REMARK  Name = ZINC23114495
REMARK  14 active torsions:
REMARK  status: ('A' for Active; 'I' for Inactive)
REMARK    1  A    between atoms: C_1  and  C_2
REMARK    2  A    between atoms: C_2  and  N_3
REMARK    3  A    between atoms: N_3  and  C_4
REMARK    4  A    between atoms: N_3  and  C_6
REMARK    5  A    between atoms: C_4  and  C_5
REMARK    6  A    between atoms: C_6  and  C_7
REMARK    7  A    between atoms: C_10  and  C_13
REMARK    8  A    between atoms: C_13  and  N_14
REMARK    9  A    between atoms: C_15  and  C_17
REMARK   10  A    between atoms: C_20  and  S_23
REMARK   11  A    between atoms: S_23  and  N_26
REMARK   12  A    between atoms: N_26  and  C_27
REMARK   13  A    between atoms: C_27  and  C_28
REMARK   14  A    between atoms: C_28  and  C_29
REMARK                            x       y       z     vdW  Elec       q    Type
REMARK                         _______ _______ _______ _____ _____    ______ ____
ROOT
ATOM      1  N   UNL     1      -0.523   5.620  -5.880  0.00  0.00    -0.307 N 
ATOM      2  C   UNL     1      -0.892   4.324  -5.900  0.00  0.00    +0.244 C 
ATOM      3  O   UNL     1      -1.470   3.871  -6.869  0.00  0.00    -0.270 OA
ATOM      4  H   UNL     1       0.001   6.029  -5.004  0.00  0.00    +0.149 HD
ENDROOT
BRANCH   2   5
ATOM      5  C   UNL     1      -0.592   3.452  -4.744  0.00  0.00    +0.037 A 
ATOM      6  C   UNL     1      -0.972   2.109  -4.762  0.00  0.00    +0.015 A 
ATOM      7  C   UNL     1      -0.688   1.301  -3.680  0.00  0.00    +0.029 A 
ATOM      8  C   UNL     1      -0.029   1.819  -2.579  0.00  0.00    +0.105 A 
ATOM      9  C   UNL     1       0.346   3.151  -2.554  0.00  0.00    +0.029 A 
ATOM     10  C   UNL     1       0.073   3.968  -3.631  0.00  0.00    +0.015 A 
BRANCH   8  11
ATOM     11  S   UNL     1       0.329   0.780  -1.202  0.00  0.00    +0.058 S 
ATOM     12  O   UNL     1      -0.612  -0.284  -1.241  0.00  0.00    -0.153 OA
ATOM     13  O   UNL     1       0.466   1.634  -0.074  0.00  0.00    -0.153 OA
BRANCH  11  14
ATOM     14  N   UNL     1       1.817   0.106  -1.470  0.00  0.00    -0.190 NA
ATOM     15  H   UNL     1       1.883  -0.950  -1.770  0.00  0.00    +0.148 HD
BRANCH  14  16
ATOM     16  C   UNL     1       3.008   0.958  -1.522  0.00  0.00    +0.111 C 
BRANCH  16  17
ATOM     17  C   UNL     1       4.262   0.088  -1.411  0.00  0.00    +0.059 C 
BRANCH  17  18
ATOM     18  C   UNL     1       5.487   0.964  -1.465  0.00  0.00    -0.009 A 
ATOM     19  C   UNL     1       6.153   1.563  -0.447  0.00  0.00    +0.011 A 
ATOM     20  C   UNL     1       7.269   2.328  -0.734  0.00  0.00    +0.008 A 
ATOM     21  C   UNL     1       7.657   2.465  -2.026  0.00  0.00    +0.045 A 
ATOM     22  S   UNL     1       6.433   1.489  -2.885  0.00  0.00    -0.102 S 
ENDBRANCH  17  18
ENDBRANCH  16  17
ENDBRANCH  14  16
ENDBRANCH  11  14
ENDBRANCH   8  11
ENDBRANCH   2   5
BRANCH   1  23
ATOM     23  C   UNL     1      -0.821   6.484  -7.026  0.00  0.00    +0.139 C 
BRANCH  23  27
ATOM     24  C   UNL     1       0.633  10.425  -6.252  0.00  0.00    -0.064 A 
ATOM     25  C   UNL     1       1.450   9.496  -6.870  0.00  0.00    +0.002 A 
ATOM     26  C   UNL     1       0.979   8.221  -7.120  0.00  0.00    +0.005 A 
ATOM     27  C   UNL     1      -0.308   7.874  -6.753  0.00  0.00    -0.030 A 
ATOM     28  C   UNL     1      -1.126   8.805  -6.140  0.00  0.00    +0.005 A 
ATOM     29  C   UNL     1      -0.654  10.079  -5.886  0.00  0.00    +0.002 A 
BRANCH  24  30
ATOM     30  C   UNL     1       1.146  11.815  -5.978  0.00  0.00    -0.043 C 
BRANCH  30  31
ATOM     31  N   UNL     1       0.850  12.682  -7.127  0.00  0.00    +0.382 N 
ATOM     32  H   UNL     1       1.227  12.184  -8.032  0.00  0.00    -0.081 HD
BRANCH  31  34
ATOM     33  C   UNL     1      -1.159  13.579  -6.051  0.00  0.00    -0.017 C 
ATOM     34  C   UNL     1      -0.599  12.869  -7.285  0.00  0.00    -0.082 C 
ENDBRANCH  31  34
BRANCH  31  35
ATOM     35  C   UNL     1       1.537  13.974  -7.003  0.00  0.00    -0.082 C 
ATOM     36  C   UNL     1       1.531  14.687  -8.356  0.00  0.00    -0.017 C 
ENDBRANCH  31  35
ENDBRANCH  30  31
ENDBRANCH  24  30
ENDBRANCH  23  27
ENDBRANCH   1  23
TORSDOF 12
