REMARK  Name = ZINC04291781
REMARK  4 active torsions:
REMARK  status: ('A' for Active; 'I' for Inactive)
REMARK    1  A    between atoms: C_1  and  O_2
REMARK    2  A    between atoms: O_2  and  C_3
REMARK    3  A    between atoms: C_8  and  C_9
REMARK    4  A    between atoms: C_26  and  C_28
REMARK                            x       y       z     vdW  Elec       q    Type
REMARK                         _______ _______ _______ _____ _____    ______ ____
ROOT
ATOM      1  C   UNL     1      -0.496  -3.133  -0.364  0.00  0.00    +0.238 C 
ATOM      2  C   UNL     1       0.324  -3.125  -1.621  0.00  0.00    +0.028 C 
ATOM      3  C   UNL     1       0.133  -4.064  -2.571  0.00  0.00    +0.083 C 
ATOM      4  C   UNL     1      -0.903  -5.096  -2.317  0.00  0.00    +0.042 A 
ATOM      5  C   UNL     1      -1.400  -5.893  -3.339  0.00  0.00    +0.013 A 
ATOM      6  C   UNL     1      -2.366  -6.840  -3.057  0.00  0.00    +0.001 A 
ATOM      7  C   UNL     1      -2.835  -6.994  -1.764  0.00  0.00    +0.004 A 
ATOM      8  C   UNL     1      -2.344  -6.204  -0.741  0.00  0.00    +0.046 A 
ATOM      9  C   UNL     1      -1.376  -5.252  -1.008  0.00  0.00    +0.131 A 
ATOM     10  O   UNL     1      -0.872  -4.469  -0.026  0.00  0.00    -0.479 OA
ATOM     11  N   UNL     1       0.861  -4.065  -3.715  0.00  0.00    -0.216 NA
ATOM     12  C   UNL     1       1.798  -3.188  -3.995  0.00  0.00    +0.209 C 
ATOM     13  N   UNL     1       2.622  -3.042  -5.081  0.00  0.00    -0.275 N 
ATOM     14  C   UNL     1       3.429  -1.951  -4.863  0.00  0.00    +0.208 C 
ATOM     15  N   UNL     1       3.142  -1.429  -3.714  0.00  0.00    -0.169 NA
ATOM     16  N   UNL     1       2.118  -2.178  -3.134  0.00  0.00    -0.181 N 
ATOM     17  C   UNL     1       1.385  -2.075  -1.863  0.00  0.00    +0.169 C 
ATOM     18  H   UNL     1       2.634  -3.610  -5.867  0.00  0.00    +0.156 HD
ENDROOT
BRANCH   1  24
ATOM     19  C   UNL     1      -1.908  -1.120   0.128  0.00  0.00    +0.127 A 
ATOM     20  C   UNL     1      -3.049  -0.356  -0.071  0.00  0.00    +0.046 A 
ATOM     21  C   UNL     1      -4.014  -0.780  -0.964  0.00  0.00    +0.004 A 
ATOM     22  C   UNL     1      -3.844  -1.963  -1.659  0.00  0.00    +0.001 A 
ATOM     23  C   UNL     1      -2.708  -2.726  -1.462  0.00  0.00    +0.011 A 
ATOM     24  C   UNL     1      -1.737  -2.304  -0.574  0.00  0.00    +0.039 A 
BRANCH  19  26
ATOM     25  C   UNL     1      -1.228   0.490   1.740  0.00  0.00    +0.277 C 
ATOM     26  O   UNL     1      -0.956  -0.705   1.006  0.00  0.00    -0.495 OA
ENDBRANCH  19  26
ENDBRANCH   1  24
BRANCH  17  27
ATOM     27  C   UNL     1       0.727  -0.721  -1.809  0.00  0.00    +0.016 A 
ATOM     28  C   UNL     1       0.868   0.261  -0.884  0.00  0.00    +0.013 A 
ATOM     29  C   UNL     1       0.156   1.435  -1.040  0.00  0.00    +0.008 A 
ATOM     30  C   UNL     1      -0.662   1.571  -2.112  0.00  0.00    +0.045 A 
ATOM     31  S   UNL     1      -0.436   0.011  -2.949  0.00  0.00    -0.099 S 
ENDBRANCH  17  27
TORSDOF 3
