REMARK  Name = ZINC20981384
REMARK  9 active torsions:
REMARK  status: ('A' for Active; 'I' for Inactive)
REMARK    1  A    between atoms: C_1  and  C_2
REMARK    2  A    between atoms: C_2  and  C_3
REMARK    3  A    between atoms: C_2  and  C_4
REMARK    4  A    between atoms: C_4  and  C_5
REMARK    5  A    between atoms: C_5  and  C_7
REMARK    6  A    between atoms: C_5  and  N_21
REMARK    7  A    between atoms: N_12  and  C_15
REMARK    8  A    between atoms: N_21  and  S_22
REMARK    9  A    between atoms: S_22  and  C_25
REMARK                            x       y       z     vdW  Elec       q    Type
REMARK                         _______ _______ _______ _____ _____    ______ ____
ROOT
ATOM      1  C   UNL     1       4.454  -0.241  -2.562  0.00  0.00    +0.162 C 
ENDROOT
BRANCH   1   2
ATOM      2  C   UNL     1       5.290  -0.878  -3.643  0.00  0.00    +0.234 C 
ATOM      3  O   UNL     1       5.804  -1.960  -3.453  0.00  0.00    -0.274 OA
ATOM      4  N   UNL     1       5.465  -0.246  -4.820  0.00  0.00    -0.297 N 
ATOM      5  C   UNL     1       4.928   1.106  -5.038  0.00  0.00    +0.126 C 
ATOM      6  C   UNL     1       6.062   1.995  -5.572  0.00  0.00    +0.124 C 
ATOM      7  N   UNL     1       6.654   1.363  -6.760  0.00  0.00    -0.327 N 
ATOM      8  C   UNL     1       7.272   0.073  -6.425  0.00  0.00    +0.124 C 
ATOM      9  C   UNL     1       6.193  -0.892  -5.923  0.00  0.00    +0.126 C 
BRANCH   7  10
ATOM     10  C   UNL     1       7.575   2.215  -7.373  0.00  0.00    +0.030 A 
ATOM     11  C   UNL     1       8.882   1.793  -7.583  0.00  0.00    +0.023 A 
ATOM     12  C   UNL     1       9.789   2.636  -8.194  0.00  0.00    +0.002 A 
ATOM     13  C   UNL     1       9.400   3.903  -8.588  0.00  0.00    +0.000 A 
ATOM     14  C   UNL     1       8.101   4.329  -8.376  0.00  0.00    +0.002 A 
ATOM     15  C   UNL     1       7.188   3.489  -7.770  0.00  0.00    +0.023 A 
ENDBRANCH   7  10
ENDBRANCH   1   2
BRANCH   1  16
ATOM     16  N   UNL     1       4.660  -0.956  -1.300  0.00  0.00    -0.178 NA
ATOM     17  H   UNL     1       3.965  -1.754  -1.000  0.00  0.00    +0.149 HD
BRANCH  16  18
ATOM     18  S   UNL     1       5.781  -0.407  -0.211  0.00  0.00    +0.059 S 
ATOM     19  O   UNL     1       6.983  -0.193  -0.938  0.00  0.00    -0.153 OA
ATOM     20  O   UNL     1       5.714  -1.275   0.912  0.00  0.00    -0.153 OA
BRANCH  18  21
ATOM     21  C   UNL     1       5.238   1.175   0.342  0.00  0.00    +0.106 A 
ATOM     22  C   UNL     1       5.673   2.324  -0.294  0.00  0.00    +0.030 A 
ATOM     23  C   UNL     1       5.245   3.550   0.153  0.00  0.00    +0.025 A 
ATOM     24  C   UNL     1       4.370   3.667   1.247  0.00  0.00    +0.037 A 
ATOM     25  C   UNL     1       3.932   2.519   1.871  0.00  0.00    -0.024 A 
ATOM     26  C   UNL     1       4.377   1.279   1.411  0.00  0.00    +0.034 A 
ATOM     27  C   UNL     1       2.985   2.475   3.026  0.00  0.00    +0.037 C 
ATOM     28  C   UNL     1       1.906   3.512   3.023  0.00  0.00    +0.014 C 
ATOM     29  C   UNL     1       2.382   4.877   3.456  0.00  0.00    +0.096 C 
ATOM     30  C   UNL     1       3.211   5.533   2.411  0.00  0.00    +0.217 C 
ATOM     31  O   UNL     1       3.094   6.736   2.305  0.00  0.00    -0.275 OA
ATOM     32  N   UNL     1       4.049   4.959   1.596  0.00  0.00    -0.285 N 
ATOM     33  H   UNL     1       4.575   5.802   1.125  0.00  0.00    +0.155 HD
ENDBRANCH  18  21
ENDBRANCH  16  18
ENDBRANCH   1  16
BRANCH   1  34
ATOM     34  C   UNL     1       2.976  -0.311  -2.952  0.00  0.00    +0.032 C 
BRANCH  34  36
ATOM     35  C   UNL     1       0.691   0.543  -2.413  0.00  0.00    +0.007 C 
ATOM     36  C   UNL     1       2.143   0.471  -1.935  0.00  0.00    -0.015 C 
ATOM     37  C   UNL     1       2.200  -0.234  -0.579  0.00  0.00    +0.007 C 
ENDBRANCH  34  36
ENDBRANCH   1  34
TORSDOF 7
