REMARK  Name = ZINC35632508
REMARK  6 active torsions:
REMARK  status: ('A' for Active; 'I' for Inactive)
REMARK    1  A    between atoms: C_1  and  C_2
REMARK    2  A    between atoms: C_2  and  C_4
REMARK    3  A    between atoms: C_2  and  O_21
REMARK    4  A    between atoms: C_7  and  O_13
REMARK    5  A    between atoms: C_8  and  N_10
REMARK    6  A    between atoms: O_13  and  C_14
REMARK                            x       y       z     vdW  Elec       q    Type
REMARK                         _______ _______ _______ _____ _____    ______ ____
ROOT
ATOM      1  C   UNL     1       1.107   0.318   1.465  0.00  0.00    -0.017 A 
ATOM      2  C   UNL     1       0.455   0.260   2.683  0.00  0.00    +0.010 A 
ATOM      3  C   UNL     1       0.995  -0.472   3.722  0.00  0.00    +0.049 A 
ATOM      4  C   UNL     1       2.193  -1.149   3.544  0.00  0.00    +0.159 A 
ATOM      5  C   UNL     1       2.845  -1.089   2.321  0.00  0.00    +0.168 A 
ATOM      6  C   UNL     1       2.298  -0.360   1.283  0.00  0.00    +0.042 A 
ENDROOT
BRANCH   5   7
ATOM      7  N   UNL     1       4.123  -1.810   2.127  0.00  0.00    +0.060 N 
ATOM      8  O   UNL     1       4.691  -1.757   1.061  0.00  0.00    -0.126 OA
ATOM      9  O   UNL     1       4.599  -2.451   3.035  0.00  0.00    -0.126 OA
ENDBRANCH   5   7
BRANCH   1  11
ATOM     10  C   UNL     1       0.947   2.580   0.461  0.00  0.00    +0.043 C 
ATOM     11  C   UNL     1       0.516   1.118   0.332  0.00  0.00    +0.141 C 
BRANCH  11  12
ATOM     12  O   UNL     1      -0.910   1.034   0.384  0.00  0.00    -0.387 OA
ATOM     13  H   UNL     1      -1.358   1.527  -0.317  0.00  0.00    +0.210 HD
ENDBRANCH  11  12
ENDBRANCH   1  11
BRANCH   4  14
ATOM     14  O   UNL     1       2.727  -1.869   4.565  0.00  0.00    -0.454 OA
BRANCH  14  15
ATOM     15  C   UNL     1       2.049  -1.905   5.743  0.00  0.00    +0.129 A 
ATOM     16  C   UNL     1       1.105  -2.897   5.971  0.00  0.00    +0.047 A 
ATOM     17  C   UNL     1       0.418  -2.932   7.169  0.00  0.00    +0.018 A 
ATOM     18  C   UNL     1       0.669  -1.980   8.140  0.00  0.00    +0.014 A 
ATOM     19  C   UNL     1       1.609  -0.990   7.914  0.00  0.00    +0.018 A 
ATOM     20  C   UNL     1       2.303  -0.954   6.720  0.00  0.00    +0.047 A 
ATOM     21  I   UNL     1      -0.376  -2.036   9.955  0.00  0.00    -0.044 I 
ENDBRANCH  14  15
ENDBRANCH   4  14
TORSDOF 5
