REMARK  Name = ZINC00612419
REMARK  3 active torsions:
REMARK  status: ('A' for Active; 'I' for Inactive)
REMARK    1  A    between atoms: C_4  and  C_7
REMARK    2  A    between atoms: C_7  and  C_8
REMARK    3  A    between atoms: C_12  and  C_17
REMARK                            x       y       z     vdW  Elec       q    Type
REMARK                         _______ _______ _______ _____ _____    ______ ____
ROOT
ATOM      1  C   UNL     1       4.691  -0.921   1.232  0.00  0.00    +0.010 C 
ATOM      2  C   UNL     1       4.820  -2.171   1.672  0.00  0.00    +0.084 C 
ATOM      3  N   UNL     1       5.156  -2.623   2.947  0.00  0.00    -0.243 N 
ATOM      4  N   UNL     1       5.231  -3.993   3.173  0.00  0.00    -0.216 N 
ATOM      5  C   UNL     1       5.512  -4.868   4.215  0.00  0.00    +0.184 A 
ATOM      6  N   UNL     1       5.407  -6.088   3.748  0.00  0.00    -0.127 NA
ATOM      7  N   UNL     1       5.084  -6.055   2.503  0.00  0.00    -0.120 NA
ATOM      8  C   UNL     1       4.968  -4.822   2.115  0.00  0.00    +0.215 A 
ATOM      9  S   UNL     1       4.602  -3.704   0.784  0.00  0.00    -0.032 S 
ATOM     10  H   UNL     1       5.334  -1.994   3.663  0.00  0.00    +0.174 HD
ENDROOT
BRANCH   5  11
ATOM     11  C   UNL     1       5.867  -4.491   5.600  0.00  0.00    +0.039 A 
ATOM     12  C   UNL     1       5.117  -3.528   6.278  0.00  0.00    +0.013 A 
ATOM     13  C   UNL     1       5.452  -3.181   7.570  0.00  0.00    +0.001 A 
ATOM     14  C   UNL     1       6.529  -3.785   8.195  0.00  0.00    +0.001 A 
ATOM     15  C   UNL     1       7.277  -4.739   7.530  0.00  0.00    +0.021 A 
ATOM     16  C   UNL     1       6.949  -5.100   6.238  0.00  0.00    +0.052 A 
ATOM     17 CL   UNL     1       7.884  -6.304   5.406  0.00  0.00    -0.083 Cl
ENDBRANCH   5  11
BRANCH   1  18
ATOM     18  C   UNL     1       4.309  -0.663  -0.203  0.00  0.00    +0.064 C 
BRANCH  18  22
ATOM     19  C   UNL     1       0.838   1.822  -0.330  0.00  0.00    +0.000 A 
ATOM     20  C   UNL     1       2.096   2.393  -0.319  0.00  0.00    +0.000 A 
ATOM     21  C   UNL     1       3.220   1.589  -0.277  0.00  0.00    +0.004 A 
ATOM     22  C   UNL     1       3.085   0.214  -0.247  0.00  0.00    -0.044 A 
ATOM     23  C   UNL     1       1.826  -0.357  -0.257  0.00  0.00    +0.004 A 
ATOM     24  C   UNL     1       0.702   0.447  -0.300  0.00  0.00    +0.000 A 
ENDBRANCH  18  22
ENDBRANCH   1  18
TORSDOF 3
