REMARK  Name = ZINC18143658
REMARK  7 active torsions:
REMARK  status: ('A' for Active; 'I' for Inactive)
REMARK    1  A    between atoms: C_1  and  C_2
REMARK    2  A    between atoms: C_7  and  C_8
REMARK    3  A    between atoms: C_8  and  C_10
REMARK    4  A    between atoms: C_12  and  C_16
REMARK    5  A    between atoms: C_16  and  N_18
REMARK    6  A    between atoms: N_20  and  C_21
REMARK    7  A    between atoms: N_20  and  C_22
REMARK                            x       y       z     vdW  Elec       q    Type
REMARK                         _______ _______ _______ _____ _____    ______ ____
ROOT
ATOM      1  C   UNL     1       0.155  -0.998   3.797  0.00  0.00    +0.040 A 
ATOM      2  C   UNL     1       0.054  -0.560   5.138  0.00  0.00    +0.044 A 
ATOM      3  C   UNL     1       0.288  -1.645   5.930  0.00  0.00    +0.105 A 
ATOM      4  N   UNL     1       0.528  -2.731   5.118  0.00  0.00    -0.356 N 
ATOM      5  H   UNL     1       0.724  -3.630   5.425  0.00  0.00    +0.165 HD
ATOM      6  C   UNL     1       0.445  -2.351   3.833  0.00  0.00    +0.095 A 
ENDROOT
BRANCH   1   7
ATOM      7  C   UNL     1      -0.022  -0.172   2.591  0.00  0.00    +0.195 C 
ATOM      8  O   UNL     1      -0.212   1.025   2.696  0.00  0.00    -0.287 OA
BRANCH   7  15
ATOM      9  C   UNL     1       2.535  -0.928   1.466  0.00  0.00    +0.044 C 
ATOM     10  C   UNL     1       1.259  -1.166   0.699  0.00  0.00    -0.040 A 
ATOM     11  C   UNL     1       1.301  -1.754  -0.548  0.00  0.00    +0.004 A 
ATOM     12  C   UNL     1       0.131  -1.973  -1.253  0.00  0.00    +0.000 A 
ATOM     13  C   UNL     1      -1.089  -1.605  -0.713  0.00  0.00    +0.001 A 
ATOM     14  C   UNL     1      -1.145  -1.016   0.532  0.00  0.00    +0.012 A 
ATOM     15  C   UNL     1       0.032  -0.797   1.252  0.00  0.00    +0.025 A 
ENDBRANCH   7  15
ENDBRANCH   1   7
BRANCH   3  16
ATOM     16  C   UNL     1       0.285  -1.653   7.400  0.00  0.00    +0.285 C 
ATOM     17  O   UNL     1       0.058  -0.626   8.015  0.00  0.00    -0.266 OA
BRANCH  16  18
ATOM     18  N   UNL     1       0.532  -2.799   8.068  0.00  0.00    -0.168 NA
ATOM     19  C   UNL     1       0.529  -2.806   9.379  0.00  0.00    +0.173 C 
ATOM     20  N   UNL     1       0.777  -3.954  10.048  0.00  0.00    -0.329 N 
ATOM     21  C   UNL     1       1.050  -5.189   9.309  0.00  0.00    +0.129 C 
ATOM     22  C   UNL     1       0.774  -3.962  11.513  0.00  0.00    +0.129 C 
ENDBRANCH  16  18
ENDBRANCH   3  16
TORSDOF 4
