REMARK  Name = ZINC09712668
REMARK  8 active torsions:
REMARK  status: ('A' for Active; 'I' for Inactive)
REMARK    1  A    between atoms: C_1  and  C_2
REMARK    2  A    between atoms: C_2  and  C_3
REMARK    3  A    between atoms: C_3  and  C_4
REMARK    4  A    between atoms: C_4  and  N_5
REMARK    5  A    between atoms: N_14  and  C_32
REMARK    6  A    between atoms: C_15  and  C_17
REMARK    7  A    between atoms: C_17  and  N_56
REMARK    8  A    between atoms: C_25  and  C_27
REMARK                            x       y       z     vdW  Elec       q    Type
REMARK                         _______ _______ _______ _____ _____    ______ ____
ROOT
ATOM      1  N   UNL     1      -0.792   1.570   1.519  0.00  0.00    -0.277 N 
ATOM      2  C   UNL     1      -0.455   2.827   1.995  0.00  0.00    +0.168 A 
ATOM      3  C   UNL     1      -0.923   3.219   3.242  0.00  0.00    +0.151 A 
ATOM      4  C   UNL     1      -1.717   2.324   3.991  0.00  0.00    +0.280 A 
ATOM      5  O   UNL     1      -2.136   2.643   5.090  0.00  0.00    -0.265 OA
ATOM      6  N   UNL     1      -2.008   1.111   3.476  0.00  0.00    -0.273 N 
ATOM      7  H   UNL     1      -2.570   0.474   4.003  0.00  0.00    +0.173 HD
ATOM      8  C   UNL     1      -1.552   0.747   2.265  0.00  0.00    +0.331 A 
ATOM      9  O   UNL     1      -1.834  -0.354   1.833  0.00  0.00    -0.246 OA
ATOM     10  N   UNL     1      -0.445   4.497   3.450  0.00  0.00    -0.327 N 
ATOM     11  C   UNL     1       0.282   4.827   2.365  0.00  0.00    +0.096 A 
ATOM     12  N   UNL     1       0.267   3.839   1.507  0.00  0.00    -0.216 NA
ATOM     13  C   UNL     1      -0.670   5.330   4.634  0.00  0.00    +0.151 C 
ENDROOT
BRANCH   1  14
ATOM     14  C   UNL     1      -0.316   1.134   0.204  0.00  0.00    +0.128 C 
BRANCH  14  15
ATOM     15  C   UNL     1      -1.338   1.526  -0.865  0.00  0.00    +0.021 C 
BRANCH  15  17
ATOM     16  C   UNL     1      -1.863   1.462  -3.307  0.00  0.00    +0.004 C 
ATOM     17  C   UNL     1      -0.840   1.071  -2.238  0.00  0.00    -0.002 C 
ENDBRANCH  15  17
ENDBRANCH  14  15
ENDBRANCH   1  14
BRANCH  11  18
ATOM     18  C   UNL     1       0.994   6.140   2.164  0.00  0.00    -0.002 C 
BRANCH  18  27
ATOM     19  C   UNL     1      -1.065   7.414   2.104  0.00  0.00    -0.072 C 
ATOM     20  C   UNL     1      -1.696   8.643   1.429  0.00  0.00    +0.024 C 
ATOM     21  C   UNL     1      -1.729   8.387  -0.042  0.00  0.00    -0.010 A 
ATOM     22  C   UNL     1      -1.058   7.409  -0.713  0.00  0.00    -0.046 A 
ATOM     23  C   UNL     1      -1.245   7.360  -2.092  0.00  0.00    +0.010 A 
ATOM     24  C   UNL     1      -2.057   8.258  -2.698  0.00  0.00    +0.045 A 
ATOM     25  S   UNL     1      -2.615   9.242  -1.314  0.00  0.00    -0.101 S 
ATOM     26  C   UNL     1      -0.163   6.445   0.059  0.00  0.00    +0.001 C 
ATOM     27  N   UNL     1       0.171   7.066   1.362  0.00  0.00    +0.392 N 
ATOM     28  H   UNL     1       0.707   7.925   1.191  0.00  0.00    -0.080 HD
BRANCH  26  29
ATOM     29  C   UNL     1       1.114   6.215  -0.709  0.00  0.00    -0.019 A 
ATOM     30  C   UNL     1       1.462   5.164  -1.491  0.00  0.00    +0.010 A 
ATOM     31  C   UNL     1       2.700   5.168  -2.106  0.00  0.00    +0.008 A 
ATOM     32  C   UNL     1       3.529   6.222  -1.910  0.00  0.00    +0.045 A 
ATOM     33  S   UNL     1       2.555   7.261  -0.832  0.00  0.00    -0.103 S 
ENDBRANCH  26  29
ENDBRANCH  18  27
ENDBRANCH  11  18
TORSDOF 6
