REMARK  Name = ZINC39545791
REMARK  6 active torsions:
REMARK  status: ('A' for Active; 'I' for Inactive)
REMARK    1  A    between atoms: C_4  and  O_7
REMARK    2  A    between atoms: O_7  and  S_8
REMARK    3  A    between atoms: S_8  and  N_11
REMARK    4  A    between atoms: C_12  and  C_14
REMARK    5  A    between atoms: C_17  and  C_28
REMARK    6  A    between atoms: C_33  and  O_34
REMARK                            x       y       z     vdW  Elec       q    Type
REMARK                         _______ _______ _______ _____ _____    ______ ____
ROOT
ATOM      1  C   UNL     1       2.823  -4.606   2.304  0.00  0.00    +0.152 C 
ATOM      2  C   UNL     1       2.822  -4.559   3.844  0.00  0.00    +0.069 C 
ATOM      3  C   UNL     1       3.441  -5.876   4.256  0.00  0.00    -0.000 C 
ATOM      4  C   UNL     1       3.758  -6.567   3.170  0.00  0.00    +0.079 C 
ATOM      5  N   UNL     1       4.320  -7.851   3.141  0.00  0.00    -0.303 N 
ATOM      6  C   UNL     1       3.862  -8.674   2.099  0.00  0.00    +0.037 A 
ATOM      7  C   UNL     1       4.262 -10.001   2.041  0.00  0.00    +0.023 A 
ATOM      8  C   UNL     1       3.819 -10.807   1.010  0.00  0.00    +0.002 A 
ATOM      9  C   UNL     1       2.979 -10.287   0.042  0.00  0.00    +0.000 A 
ATOM     10  C   UNL     1       2.577  -8.967   0.102  0.00  0.00    +0.007 A 
ATOM     11  C   UNL     1       3.012  -8.151   1.134  0.00  0.00    -0.010 A 
ATOM     12  C   UNL     1       2.537  -6.723   1.188  0.00  0.00    +0.124 C 
ATOM     13  N   UNL     1       3.452  -5.895   1.976  0.00  0.00    -0.369 NA
ATOM     14  H   UNL     1       4.976  -8.148   3.791  0.00  0.00    +0.153 HD
ATOM     15  H   UNL     1       4.298  -5.736   1.449  0.00  0.00    +0.128 HD
ENDROOT
BRANCH   3  16
ATOM     16  C   UNL     1       3.658  -6.321   5.646  0.00  0.00    +0.023 A 
ATOM     17  C   UNL     1       4.941  -6.299   6.197  0.00  0.00    +0.012 A 
ATOM     18  C   UNL     1       5.137  -6.716   7.497  0.00  0.00    +0.001 A 
ATOM     19  C   UNL     1       4.068  -7.157   8.258  0.00  0.00    +0.004 A 
ATOM     20  C   UNL     1       2.793  -7.183   7.722  0.00  0.00    +0.046 A 
ATOM     21  C   UNL     1       2.578  -6.761   6.421  0.00  0.00    +0.124 A 
BRANCH  21  22
ATOM     22  O   UNL     1       1.325  -6.781   5.896  0.00  0.00    -0.506 OA
ATOM     23  H   UNL     1       1.094  -7.613   5.459  0.00  0.00    +0.292 HD
ENDBRANCH  21  22
ENDBRANCH   3  16
BRANCH   1  25
ATOM     24  N   UNL     1       3.249  -2.193   1.963  0.00  0.00    -0.047 N 
ATOM     25  C   UNL     1       3.634  -3.466   1.743  0.00  0.00    +0.271 C 
ATOM     26  O   UNL     1       4.633  -3.694   1.094  0.00  0.00    -0.271 OA
ATOM     27 CL   UNL     1       1.841  -1.871   2.878  0.00  0.00    +0.030 Cl
BRANCH  24  28
ATOM     28  S   UNL     1       4.140  -0.941   1.346  0.00  0.00    +0.226 S 
ATOM     29  O   UNL     1       5.458  -1.436   1.154  0.00  0.00    -0.114 OA
ATOM     30  O   UNL     1       3.863   0.192   2.158  0.00  0.00    -0.114 OA
BRANCH  28  31
ATOM     31  O   UNL     1       3.586  -0.632  -0.037  0.00  0.00    -0.330 OA
BRANCH  31  35
ATOM     32  C   UNL     1      -0.017   1.378   0.010  0.00  0.00    +0.000 A 
ATOM     33  C   UNL     1       1.170   2.088   0.002  0.00  0.00    +0.004 A 
ATOM     34  C   UNL     1       2.377   1.417  -0.013  0.00  0.00    +0.048 A 
ATOM     35  C   UNL     1       2.399   0.030  -0.021  0.00  0.00    +0.158 A 
ATOM     36  C   UNL     1       1.207  -0.680  -0.013  0.00  0.00    +0.048 A 
ATOM     37  C   UNL     1       0.002  -0.004   0.002  0.00  0.00    +0.004 A 
ENDBRANCH  31  35
ENDBRANCH  28  31
ENDBRANCH  24  28
ENDBRANCH   1  25
TORSDOF 6
