REMARK  Name = ZINC64111078
REMARK  7 active torsions:
REMARK  status: ('A' for Active; 'I' for Inactive)
REMARK    1  A    between atoms: C_1  and  C_2
REMARK    2  A    between atoms: C_4  and  S_10
REMARK    3  A    between atoms: C_7  and  C_9
REMARK    4  A    between atoms: S_10  and  N_13
REMARK    5  A    between atoms: C_17  and  C_20
REMARK    6  A    between atoms: C_20  and  N_21
REMARK    7  A    between atoms: C_22  and  C_24
REMARK                            x       y       z     vdW  Elec       q    Type
REMARK                         _______ _______ _______ _____ _____    ______ ____
ROOT
ATOM      1  N   UNL     1       1.678  -0.035  -3.760  0.00  0.00    -0.180 NA
ATOM      2  C   UNL     1       3.127   0.188  -3.843  0.00  0.00    +0.109 C 
ATOM      3  C   UNL     1       3.833  -1.170  -3.905  0.00  0.00    +0.017 C 
ATOM      4  C   UNL     1       3.256  -1.988  -5.062  0.00  0.00    +0.007 C 
ATOM      5  C   UNL     1       1.763  -2.229  -4.824  0.00  0.00    +0.022 C 
ATOM      6  C   UNL     1       1.035  -0.888  -4.769  0.00  0.00    +0.114 C 
ENDROOT
BRANCH   1   7
ATOM      7  S   UNL     1       0.786   0.656  -2.548  0.00  0.00    +0.039 S 
ATOM      8  O   UNL     1      -0.528   0.763  -3.080  0.00  0.00    -0.157 OA
ATOM      9  O   UNL     1       1.515   1.819  -2.179  0.00  0.00    -0.157 OA
BRANCH   7  12
ATOM     10  C   UNL     1      -0.019   1.526   0.010  0.00  0.00    +0.021 C 
ATOM     11  C   UNL     1       0.002  -0.004   0.002  0.00  0.00    +0.077 C 
ATOM     12  C   UNL     1       0.817  -0.555  -1.198  0.00  0.00    +0.184 C 
ATOM     13  C   UNL     1       2.235  -0.813  -0.802  0.00  0.00    +0.011 C 
ATOM     14  C   UNL     1       2.551  -0.916   0.474  0.00  0.00    -0.019 C 
ATOM     15  S   UNL     1       1.030  -0.673   1.377  0.00  0.00    -0.125 S 
ATOM     16  C   UNL     1       3.917  -1.185   1.052  0.00  0.00    +0.051 C 
ENDBRANCH   7  12
ENDBRANCH   1   7
BRANCH   5  17
ATOM     17  C   UNL     1       1.194  -3.076  -5.964  0.00  0.00    +0.109 C 
BRANCH  17  18
ATOM     18  N   UNL     1       1.810  -4.405  -5.940  0.00  0.00    -0.313 N 
ATOM     19  C   UNL     1       1.459  -5.327  -6.858  0.00  0.00    +0.239 C 
ATOM     20  O   UNL     1       0.634  -5.056  -7.705  0.00  0.00    -0.273 OA
ATOM     21  H   UNL     1       2.470  -4.622  -5.263  0.00  0.00    +0.149 HD
BRANCH  19  22
ATOM     22  C   UNL     1       2.093  -6.694  -6.833  0.00  0.00    +0.190 C 
ATOM     23  C   UNL     1       3.583  -6.583  -7.062  0.00  0.00    +0.016 C 
ATOM     24  C   UNL     1       3.843  -7.280  -8.191  0.00  0.00    -0.004 A 
ATOM     25  C   UNL     1       5.081  -7.548  -8.932  0.00  0.00    +0.010 A 
ATOM     26  C   UNL     1       5.024  -8.297 -10.056  0.00  0.00    +0.001 A 
ATOM     27  C   UNL     1       3.814  -8.822 -10.532  0.00  0.00    +0.002 A 
ATOM     28  C   UNL     1       2.636  -8.619  -9.906  0.00  0.00    +0.026 A 
ATOM     29  C   UNL     1       2.579  -7.845  -8.714  0.00  0.00    +0.043 A 
ATOM     30  N   UNL     1       1.575  -7.512  -7.937  0.00  0.00    -0.370 N 
ATOM     31  H   UNL     1       0.647  -7.762  -8.069  0.00  0.00    +0.161 HD
ENDBRANCH  19  22
ENDBRANCH  17  18
ENDBRANCH   5  17
TORSDOF 5
