REMARK  Name = ZINC20532551
REMARK  10 active torsions:
REMARK  status: ('A' for Active; 'I' for Inactive)
REMARK    1  A    between atoms: C_1  and  C_2
REMARK    2  A    between atoms: C_2  and  C_3
REMARK    3  A    between atoms: C_3  and  S_4
REMARK    4  A    between atoms: S_4  and  N_7
REMARK    5  A    between atoms: N_11  and  C_26
REMARK    6  A    between atoms: C_12  and  C_14
REMARK    7  A    between atoms: C_12  and  C_15
REMARK    8  A    between atoms: N_17  and  C_18
REMARK    9  A    between atoms: C_31  and  C_32
REMARK   10  A    between atoms: C_32  and  C_33
REMARK                            x       y       z     vdW  Elec       q    Type
REMARK                         _______ _______ _______ _____ _____    ______ ____
ROOT
ATOM      1  N   UNL     1      -0.516   1.915   1.418  0.00  0.00    -0.170 NA
ATOM      2  C   UNL     1      -1.406   0.906   2.012  0.00  0.00    +0.205 C 
ATOM      3  C   UNL     1      -2.620   1.597   2.572  0.00  0.00    +0.236 C 
ATOM      4  O   UNL     1      -3.574   0.920   2.893  0.00  0.00    -0.274 OA
ATOM      5  N   UNL     1      -2.695   2.919   2.732  0.00  0.00    -0.254 N 
ATOM      6  C   UNL     1      -1.669   3.862   2.309  0.00  0.00    +0.129 C 
ATOM      7  C   UNL     1      -0.310   3.163   2.173  0.00  0.00    +0.145 C 
ATOM      8  C   UNL     1      -2.066   4.467   0.961  0.00  0.00    +0.043 C 
ENDROOT
BRANCH   5   9
ATOM      9  C   UNL     1      -3.840   3.435   3.349  0.00  0.00    +0.041 A 
ATOM     10  C   UNL     1      -3.852   3.657   4.720  0.00  0.00    +0.024 A 
ATOM     11  C   UNL     1      -4.981   4.172   5.324  0.00  0.00    +0.002 A 
ATOM     12  C   UNL     1      -6.104   4.456   4.568  0.00  0.00    +0.000 A 
ATOM     13  C   UNL     1      -6.097   4.232   3.204  0.00  0.00    +0.005 A 
ATOM     14  C   UNL     1      -4.968   3.722   2.592  0.00  0.00    -0.026 A 
BRANCH  14  15
ATOM     15  C   UNL     1      -4.962   3.477   1.105  0.00  0.00    +0.033 C 
ATOM     16  C   UNL     1      -5.476   2.064   0.819  0.00  0.00    +0.009 C 
ENDBRANCH  14  15
ENDBRANCH   5   9
BRANCH   6  17
ATOM     17  C   UNL     1      -1.556   4.963   3.332  0.00  0.00    +0.238 C 
ATOM     18  O   UNL     1      -1.548   6.123   2.977  0.00  0.00    -0.273 OA
ATOM     19  N   UNL     1      -1.465   4.659   4.642  0.00  0.00    -0.311 N 
ATOM     20  H   UNL     1      -1.392   3.608   4.959  0.00  0.00    +0.149 HD
BRANCH  19  21
ATOM     21  C   UNL     1      -1.463   5.728   5.644  0.00  0.00    +0.073 C 
ATOM     22  C   UNL     1      -0.039   6.261   5.819  0.00  0.00    +0.022 C 
ATOM     23  C   UNL     1      -0.084   7.609   6.541  0.00  0.00    +0.002 C 
ATOM     24  C   UNL     1      -1.202   8.469   5.948  0.00  0.00    +0.000 C 
ATOM     25  C   UNL     1      -2.302   8.667   6.993  0.00  0.00    +0.000 C 
ATOM     26  C   UNL     1      -3.131   7.386   7.109  0.00  0.00    +0.000 C 
ATOM     27  C   UNL     1      -2.344   6.339   7.900  0.00  0.00    +0.002 C 
ATOM     28  C   UNL     1      -1.969   5.177   6.979  0.00  0.00    +0.022 C 
ENDBRANCH  19  21
ENDBRANCH   6  17
BRANCH   1  29
ATOM     29  S   UNL     1       0.229   1.656  -0.038  0.00  0.00    +0.032 S 
ATOM     30  O   UNL     1       0.326   0.243  -0.149  0.00  0.00    -0.158 OA
ATOM     31  O   UNL     1       1.398   2.462   0.004  0.00  0.00    -0.158 OA
BRANCH  29  32
ATOM     32  C   UNL     1      -0.930   2.302  -1.276  0.00  0.00    +0.185 C 
BRANCH  32  34
ATOM     33  C   UNL     1      -1.316   2.658  -3.719  0.00  0.00    +0.005 C 
ATOM     34  C   UNL     1      -0.339   2.113  -2.675  0.00  0.00    +0.021 C 
ENDBRANCH  32  34
ENDBRANCH  29  32
ENDBRANCH   1  29
TORSDOF 7
