REMARK  Name = ZINC12604612
REMARK  6 active torsions:
REMARK  status: ('A' for Active; 'I' for Inactive)
REMARK    1  A    between atoms: C_1  and  C_2
REMARK    2  A    between atoms: C_2  and  C_3
REMARK    3  A    between atoms: C_3  and  O_4
REMARK    4  A    between atoms: O_4  and  C_5
REMARK    5  A    between atoms: C_8  and  C_12
REMARK    6  A    between atoms: C_9  and  O_11
REMARK                            x       y       z     vdW  Elec       q    Type
REMARK                         _______ _______ _______ _____ _____    ______ ____
ROOT
ATOM      1  C   UNL     1      -6.407  -4.577   0.041  0.00  0.00    +0.209 C 
ATOM      2  N   UNL     1      -7.418  -3.692   0.633  0.00  0.00    -0.319 N 
ATOM      3  C   UNL     1      -8.001  -2.671  -0.112  0.00  0.00    +0.040 A 
ATOM      4  C   UNL     1      -8.444  -1.502   0.486  0.00  0.00    +0.024 A 
ATOM      5  C   UNL     1      -9.037  -0.518  -0.283  0.00  0.00    +0.002 A 
ATOM      6  C   UNL     1      -9.195  -0.686  -1.649  0.00  0.00    +0.001 A 
ATOM      7  C   UNL     1      -8.751  -1.841  -2.265  0.00  0.00    +0.013 A 
ATOM      8  C   UNL     1      -8.148  -2.831  -1.504  0.00  0.00    +0.038 A 
ATOM      9  C   UNL     1      -7.610  -4.074  -2.091  0.00  0.00    +0.145 A 
ATOM     10  N   UNL     1      -6.798  -4.906  -1.333  0.00  0.00    -0.300 N 
ATOM     11  C   UNL     1      -6.488  -5.979  -2.109  0.00  0.00    +0.071 A 
ATOM     12  C   UNL     1      -5.750  -7.135  -1.878  0.00  0.00    +0.028 A 
ATOM     13  C   UNL     1      -5.639  -8.031  -2.928  0.00  0.00    +0.002 A 
ATOM     14  C   UNL     1      -6.231  -7.799  -4.159  0.00  0.00    +0.002 A 
ATOM     15  C   UNL     1      -6.965  -6.668  -4.414  0.00  0.00    +0.030 A 
ATOM     16  C   UNL     1      -7.098  -5.745  -3.369  0.00  0.00    +0.090 A 
ATOM     17  N   UNL     1      -7.751  -4.565  -3.290  0.00  0.00    -0.227 NA
ATOM     18  H   UNL     1      -7.683  -3.820   1.557  0.00  0.00    +0.148 HD
ENDROOT
BRANCH   1  22
ATOM     19  C   UNL     1      -2.616  -2.596   0.011  0.00  0.00    +0.124 A 
ATOM     20  C   UNL     1      -3.349  -2.718  -1.161  0.00  0.00    +0.046 A 
ATOM     21  C   UNL     1      -4.573  -3.358  -1.149  0.00  0.00    +0.014 A 
ATOM     22  C   UNL     1      -5.071  -3.880   0.030  0.00  0.00    +0.035 A 
ATOM     23  C   UNL     1      -4.342  -3.761   1.205  0.00  0.00    +0.127 A 
ATOM     24  C   UNL     1      -3.110  -3.123   1.194  0.00  0.00    +0.091 A 
BRANCH  23  25
ATOM     25  O   UNL     1      -4.832  -4.273   2.364  0.00  0.00    -0.506 OA
ATOM     26  H   UNL     1      -4.511  -5.163   2.567  0.00  0.00    +0.292 HD
ENDBRANCH  23  25
BRANCH  19  27
ATOM     27  O   UNL     1      -1.412  -1.966  -0.002  0.00  0.00    -0.492 OA
BRANCH  27  28
ATOM     28  C   UNL     1      -0.965  -1.447  -1.256  0.00  0.00    +0.229 C 
BRANCH  28  30
ATOM     29  C   UNL     1       0.877  -0.222  -2.417  0.00  0.00    +0.007 C 
ATOM     30  C   UNL     1       0.399  -0.777  -1.074  0.00  0.00    +0.038 C 
ENDBRANCH  28  30
ENDBRANCH  27  28
ENDBRANCH  19  27
ENDBRANCH   1  22
TORSDOF 5
