REMARK  Name = ZINC08633021
REMARK  11 active torsions:
REMARK  status: ('A' for Active; 'I' for Inactive)
REMARK    1  A    between atoms: C_1  and  C_2
REMARK    2  A    between atoms: N_13  and  C_32
REMARK    3  A    between atoms: C_14  and  S_16
REMARK    4  A    between atoms: S_16  and  C_17
REMARK    5  A    between atoms: C_17  and  C_19
REMARK    6  A    between atoms: C_17  and  C_20
REMARK    7  A    between atoms: N_22  and  C_23
REMARK    8  A    between atoms: C_23  and  C_24
REMARK    9  A    between atoms: C_27  and  O_30
REMARK   10  A    between atoms: O_30  and  C_31
REMARK   11  A    between atoms: C_32  and  C_33
REMARK                            x       y       z     vdW  Elec       q    Type
REMARK                         _______ _______ _______ _____ _____    ______ ____
ROOT
ATOM      1  C   UNL     1      10.194   2.659   0.016  0.00  0.00    +0.008 C 
ATOM      2  C   UNL     1       8.695   2.719   0.319  0.00  0.00    -0.009 C 
ATOM      3  C   UNL     1       8.048   3.835  -0.507  0.00  0.00    +0.008 C 
ATOM      4  C   UNL     1       6.613   4.066  -0.035  0.00  0.00    +0.037 C 
ATOM      5  C   UNL     1       5.873   2.731  -0.036  0.00  0.00    -0.023 A 
ATOM      6  C   UNL     1       6.552   1.567  -0.048  0.00  0.00    -0.004 A 
ATOM      7  S   UNL     1       5.306   0.306  -0.046  0.00  0.00    -0.073 S 
ATOM      8  C   UNL     1       3.871   1.351  -0.027  0.00  0.00    +0.117 A 
ATOM      9  C   UNL     1       4.411   2.648  -0.025  0.00  0.00    +0.076 A 
ATOM     10  C   UNL     1       3.462   3.718  -0.011  0.00  0.00    +0.263 A 
ATOM     11  O   UNL     1       3.838   4.878  -0.009  0.00  0.00    -0.267 OA
ATOM     12  N   UNL     1       2.148   3.428  -0.006  0.00  0.00    -0.283 N 
ATOM     13  C   UNL     1       1.708   2.135  -0.003  0.00  0.00    +0.174 A 
ATOM     14  N   UNL     1       2.561   1.131  -0.016  0.00  0.00    -0.216 NA
ATOM     15  C   UNL     1       8.039   1.383  -0.060  0.00  0.00    +0.046 C 
ENDROOT
BRANCH  13  16
ATOM     16  S   UNL     1      -0.022   1.806   0.012  0.00  0.00    -0.075 S 
BRANCH  16  17
ATOM     17  C   UNL     1       0.002  -0.004   0.002  0.00  0.00    +0.137 C 
ATOM     18  C   UNL     1       0.606  -0.499  -1.314  0.00  0.00    +0.029 C 
BRANCH  17  19
ATOM     19  C   UNL     1      -1.405  -0.526   0.137  0.00  0.00    +0.226 C 
ATOM     20  O   UNL     1      -2.342   0.158  -0.216  0.00  0.00    -0.275 OA
ATOM     21  N   UNL     1      -1.622  -1.754   0.648  0.00  0.00    -0.310 N 
ATOM     22  H   UNL     1      -0.873  -2.302   0.930  0.00  0.00    +0.149 HD
BRANCH  21  23
ATOM     23  C   UNL     1      -2.990  -2.262   0.779  0.00  0.00    +0.139 C 
BRANCH  23  24
ATOM     24  C   UNL     1      -2.958  -3.646   1.373  0.00  0.00    -0.030 A 
ATOM     25  C   UNL     1      -2.879  -4.751   0.545  0.00  0.00    +0.009 A 
ATOM     26  C   UNL     1      -2.843  -6.021   1.088  0.00  0.00    +0.046 A 
ATOM     27  C   UNL     1      -2.898  -6.188   2.464  0.00  0.00    +0.120 A 
ATOM     28  C   UNL     1      -2.982  -5.078   3.292  0.00  0.00    +0.046 A 
ATOM     29  C   UNL     1      -3.012  -3.810   2.745  0.00  0.00    +0.009 A 
BRANCH  27  30
ATOM     30  O   UNL     1      -2.868  -7.436   3.000  0.00  0.00    -0.495 OA
ATOM     31  C   UNL     1      -2.780  -8.532   2.087  0.00  0.00    +0.277 C 
ENDBRANCH  27  30
ENDBRANCH  23  24
ENDBRANCH  21  23
ENDBRANCH  17  19
ENDBRANCH  16  17
ENDBRANCH  13  16
BRANCH  12  32
ATOM     32  C   UNL     1       1.170   4.519   0.003  0.00  0.00    +0.154 C 
BRANCH  32  33
ATOM     33  C   UNL     1       0.847   4.892   1.427  0.00  0.00    -0.013 C 
ATOM     34  C   UNL     1       0.987   6.132   1.827  0.00  0.00    +0.005 C 
ENDBRANCH  32  33
ENDBRANCH  12  32
TORSDOF 8
