REMARK  Name = ZINC25673150
REMARK  7 active torsions:
REMARK  status: ('A' for Active; 'I' for Inactive)
REMARK    1  A    between atoms: C_1  and  N_2
REMARK    2  A    between atoms: N_2  and  C_3
REMARK    3  A    between atoms: N_2  and  S_18
REMARK    4  A    between atoms: C_3  and  C_4
REMARK    5  A    between atoms: N_6  and  C_7
REMARK    6  A    between atoms: C_11  and  C_13
REMARK    7  A    between atoms: S_18  and  C_21
REMARK                            x       y       z     vdW  Elec       q    Type
REMARK                         _______ _______ _______ _____ _____    ______ ____
ROOT
ATOM      1  C   UNL     1       2.448  -3.147  -2.321  0.00  0.00    +0.132 C 
ATOM      2  N   UNL     1       1.185  -2.941  -1.609  0.00  0.00    -0.171 NA
ENDROOT
BRANCH   2   3
ATOM      3  S   UNL     1       1.198  -2.468  -0.021  0.00  0.00    +0.061 S 
ATOM      4  O   UNL     1       2.448  -2.878   0.515  0.00  0.00    -0.153 OA
ATOM      5  O   UNL     1      -0.043  -2.883   0.535  0.00  0.00    -0.153 OA
BRANCH   3   6
ATOM      6  C   UNL     1       1.194  -0.707  -0.002  0.00  0.00    +0.106 A 
ATOM      7  C   UNL     1      -0.011  -0.020   0.015  0.00  0.00    +0.032 A 
ATOM      8  C   UNL     1      -0.036   1.359   0.031  0.00  0.00    +0.049 A 
ATOM      9  C   UNL     1       1.157   2.071   0.030  0.00  0.00    +0.139 A 
ATOM     10  C   UNL     1       2.377   1.372   0.012  0.00  0.00    +0.019 A 
ATOM     11  C   UNL     1       2.380  -0.026  -0.004  0.00  0.00    +0.040 A 
ATOM     12  C   UNL     1       3.631   2.131   0.010  0.00  0.00    +0.018 A 
ATOM     13  C   UNL     1       3.560   3.486   0.025  0.00  0.00    +0.092 A 
ATOM     14  C   UNL     1       2.300   4.122   0.043  0.00  0.00    +0.337 A 
ATOM     15  O   UNL     1       2.250   5.339   0.057  0.00  0.00    -0.245 OA
ATOM     16  O   UNL     1       1.156   3.421   0.045  0.00  0.00    -0.422 OA
ENDBRANCH   3   6
ENDBRANCH   2   3
BRANCH   2  17
ATOM     17  C   UNL     1      -0.089  -3.152  -2.300  0.00  0.00    +0.205 C 
BRANCH  17  18
ATOM     18  C   UNL     1      -0.470  -1.898  -3.044  0.00  0.00    +0.233 C 
ATOM     19  O   UNL     1       0.251  -0.924  -3.001  0.00  0.00    -0.274 OA
ATOM     20  N   UNL     1      -1.613  -1.859  -3.758  0.00  0.00    -0.284 N 
ATOM     21  H   UNL     1      -2.229  -2.765  -3.860  0.00  0.00    +0.155 HD
BRANCH  20  22
ATOM     22  C   UNL     1      -2.016  -0.666  -4.369  0.00  0.00    +0.034 A 
ATOM     23  C   UNL     1      -3.366  -0.353  -4.461  0.00  0.00    +0.025 A 
ATOM     24  C   UNL     1      -3.761   0.827  -5.060  0.00  0.00    +0.022 A 
ATOM     25  C   UNL     1      -2.813   1.692  -5.578  0.00  0.00    +0.053 A 
ATOM     26  C   UNL     1      -1.468   1.380  -5.492  0.00  0.00    +0.075 A 
ATOM     27  C   UNL     1      -1.068   0.204  -4.889  0.00  0.00    +0.037 A 
ATOM     28 CL   UNL     1      -3.313   3.172  -6.336  0.00  0.00    -0.083 Cl
BRANCH  26  29
ATOM     29  C   UNL     1      -0.439   2.325  -6.057  0.00  0.00    +0.419 C 
ATOM     30  F   UNL     1       0.841   1.798  -5.852  0.00  0.00    -0.166 F 
ATOM     31  F   UNL     1      -0.661   2.491  -7.428  0.00  0.00    -0.166 F 
ATOM     32  F   UNL     1      -0.541   3.564  -5.415  0.00  0.00    -0.166 F 
ENDBRANCH  26  29
ENDBRANCH  20  22
ENDBRANCH  17  18
ENDBRANCH   2  17
TORSDOF 6
