REMARK  Name = ZINC33033328
REMARK  15 active torsions:
REMARK  status: ('A' for Active; 'I' for Inactive)
REMARK    1  A    between atoms: C_1  and  C_2
REMARK    2  A    between atoms: C_5  and  S_9
REMARK    3  A    between atoms: C_6  and  C_8
REMARK    4  A    between atoms: S_9  and  N_12
REMARK    5  A    between atoms: N_12  and  C_13
REMARK    6  A    between atoms: C_15  and  C_25
REMARK    7  A    between atoms: C_18  and  N_19
REMARK    8  A    between atoms: N_27  and  C_28
REMARK    9  A    between atoms: N_27  and  C_32
REMARK   10  A    between atoms: C_28  and  C_29
REMARK   11  A    between atoms: C_29  and  C_30
REMARK   12  A    between atoms: C_29  and  C_31
REMARK   13  A    between atoms: C_32  and  C_33
REMARK   14  A    between atoms: C_33  and  C_34
REMARK   15  A    between atoms: C_33  and  C_35
REMARK                            x       y       z     vdW  Elec       q    Type
REMARK                         _______ _______ _______ _____ _____    ______ ____
ROOT
ATOM      1  C   UNL     1       2.526   3.009  -1.445  0.00  0.00    +0.070 A 
ATOM      2  C   UNL     1       3.274   3.807  -0.600  0.00  0.00    +0.039 A 
ATOM      3  C   UNL     1       3.830   4.997  -1.079  0.00  0.00    +0.039 A 
ATOM      4  C   UNL     1       3.628   5.376  -2.409  0.00  0.00    +0.015 A 
ATOM      5  C   UNL     1       2.881   4.577  -3.247  0.00  0.00    +0.026 A 
ATOM      6  C   UNL     1       2.332   3.391  -2.775  0.00  0.00    +0.052 A 
ENDROOT
BRANCH   6   7
ATOM      7  N   UNL     1       1.582   2.584  -3.628  0.00  0.00    -0.332 N 
ATOM      8  C   UNL     1       1.291   3.279  -4.890  0.00  0.00    +0.086 C 
ATOM      9  C   UNL     1       0.402   2.391  -5.765  0.00  0.00    -0.063 C 
ATOM     10  N   UNL     1       1.084   1.114  -6.016  0.00  0.00    +0.381 N 
ATOM     11  C   UNL     1       1.375   0.419  -4.754  0.00  0.00    -0.063 C 
ATOM     12  C   UNL     1       2.265   1.306  -3.879  0.00  0.00    +0.086 C 
ATOM     13  H   UNL     1       0.441   0.470  -6.634  0.00  0.00    -0.086 HD
ATOM     14  H   UNL     1       2.031   1.302  -6.543  0.00  0.00    -0.086 HD
ENDBRANCH   6   7
BRANCH   3  15
ATOM     15  C   UNL     1       4.631   5.852  -0.181  0.00  0.00    +0.247 C 
ATOM     16  O   UNL     1       4.546   5.714   1.024  0.00  0.00    -0.270 OA
ATOM     17  N   UNL     1       5.455   6.785  -0.697  0.00  0.00    -0.297 N 
BRANCH  17  18
ATOM     18  C   UNL     1       6.409   7.479   0.171  0.00  0.00    +0.111 C 
BRANCH  18  19
ATOM     19  C   UNL     1       7.727   6.703   0.206  0.00  0.00    +0.000 C 
ATOM     20  C   UNL     1       8.762   7.491   1.010  0.00  0.00    +0.009 C 
ATOM     21  C   UNL     1       7.498   5.340   0.864  0.00  0.00    +0.009 C 
ENDBRANCH  18  19
ENDBRANCH  17  18
BRANCH  17  22
ATOM     22  C   UNL     1       5.398   7.104  -2.126  0.00  0.00    +0.111 C 
BRANCH  22  23
ATOM     23  C   UNL     1       4.120   7.892  -2.421  0.00  0.00    +0.000 C 
ATOM     24  C   UNL     1       4.177   9.243  -1.706  0.00  0.00    +0.009 C 
ATOM     25  C   UNL     1       3.997   8.117  -3.929  0.00  0.00    +0.009 C 
ENDBRANCH  22  23
ENDBRANCH  17  22
ENDBRANCH   3  15
BRANCH   1  26
ATOM     26  N   UNL     1       1.967   1.816  -0.970  0.00  0.00    -0.214 N 
ATOM     27  H   UNL     1       1.023   1.444  -1.393  0.00  0.00    +0.174 HD
BRANCH  26  28
ATOM     28  S   UNL     1       2.728   0.966   0.230  0.00  0.00    +0.073 S 
ATOM     29  O   UNL     1       4.099   0.887  -0.134  0.00  0.00    -0.150 OA
ATOM     30  O   UNL     1       1.938  -0.190   0.473  0.00  0.00    -0.150 OA
BRANCH  28  35
ATOM     31  C   UNL     1       2.465   4.320   5.239  0.00  0.00    +0.044 C 
ATOM     32  C   UNL     1       2.530   3.482   3.988  0.00  0.00    -0.050 A 
ATOM     33  C   UNL     1       3.750   3.232   3.387  0.00  0.00    +0.005 A 
ATOM     34  C   UNL     1       3.810   2.467   2.237  0.00  0.00    +0.029 A 
ATOM     35  C   UNL     1       2.651   1.946   1.693  0.00  0.00    +0.111 A 
ATOM     36  C   UNL     1       1.432   2.193   2.295  0.00  0.00    -0.024 A 
ATOM     37  C   UNL     1       1.372   2.962   3.443  0.00  0.00    +0.008 A 
ATOM     38  C   UNL     1       0.169   1.625   1.702  0.00  0.00    +0.046 C 
ENDBRANCH  28  35
ENDBRANCH  26  28
ENDBRANCH   1  26
TORSDOF 9
