REMARK  Name = ZINC21743255
REMARK  8 active torsions:
REMARK  status: ('A' for Active; 'I' for Inactive)
REMARK    1  A    between atoms: C_1  and  C_2
REMARK    2  A    between atoms: C_2  and  C_3
REMARK    3  A    between atoms: C_3  and  C_4
REMARK    4  A    between atoms: C_4  and  C_5
REMARK    5  A    between atoms: C_5  and  C_20
REMARK    6  A    between atoms: N_6  and  N_7
REMARK    7  A    between atoms: C_8  and  C_10
REMARK    8  A    between atoms: C_12  and  N_18
REMARK                            x       y       z     vdW  Elec       q    Type
REMARK                         _______ _______ _______ _____ _____    ______ ____
ROOT
ATOM      1  C   UNL     1       1.104   2.029   0.002  0.00  0.00    +0.149 A 
ATOM      2  C   UNL     1       2.347   1.401  -0.013  0.00  0.00    +0.094 A 
ATOM      3  C   UNL     1       2.400   0.007  -0.020  0.00  0.00    +0.067 A 
ATOM      4  C   UNL     1       1.200  -0.701  -0.013  0.00  0.00    +0.100 A 
ATOM      5  C   UNL     1       0.002  -0.004   0.002  0.00  0.00    +0.150 A 
ATOM      6  N   UNL     1      -0.016   1.313   0.009  0.00  0.00    -0.228 NA
ATOM      7 CL   UNL     1      -1.497  -0.880   0.012  0.00  0.00    -0.060 Cl
ATOM      8 CL   UNL     1       1.205  -2.437  -0.022  0.00  0.00    -0.078 Cl
ATOM      9 CL   UNL     1       3.808   2.339  -0.022  0.00  0.00    -0.079 Cl
ENDROOT
BRANCH   1  11
ATOM     10  N   UNL     1      -0.171   4.120   0.026  0.00  0.00    -0.202 N 
ATOM     11  C   UNL     1       1.029   3.506   0.011  0.00  0.00    +0.283 C 
ATOM     12  O   UNL     1       2.050   4.167   0.005  0.00  0.00    -0.267 OA
ATOM     13  H   UNL     1      -1.094   3.523   0.031  0.00  0.00    +0.178 HD
BRANCH  10  15
ATOM     14  C   UNL     1      -1.381   6.103   0.048  0.00  0.00    +0.034 C 
ATOM     15  N   UNL     1      -0.241   5.520   0.034  0.00  0.00    -0.189 NA
ATOM     16  C   UNL     1      -2.646   5.284   0.056  0.00  0.00    +0.062 C 
BRANCH  14  17
ATOM     17  C   UNL     1      -1.457   7.608   0.057  0.00  0.00    +0.052 C 
BRANCH  17  18
ATOM     18  C   UNL     1      -2.104   8.093  -1.242  0.00  0.00    +0.006 C 
BRANCH  18  20
ATOM     19  C   UNL     1      -2.829  10.107  -2.531  0.00  0.00    +0.004 C 
ATOM     20  C   UNL     1      -2.182   9.621  -1.233  0.00  0.00    -0.003 C 
ENDBRANCH  18  20
ENDBRANCH  17  18
ENDBRANCH  14  17
ENDBRANCH  10  15
ENDBRANCH   1  11
BRANCH   3  21
ATOM     21  N   UNL     1       3.623  -0.661  -0.036  0.00  0.00    -0.356 N 
ATOM     22  H   UNL     1       3.649  -1.760  -0.041  0.00  0.00    +0.142 HD
ATOM     23  H   UNL     1       4.562  -0.088  -0.042  0.00  0.00    +0.142 HD
ENDBRANCH   3  21
TORSDOF 6
