REMARK  Name = ZINC13759087
REMARK  1 active torsions:
REMARK  status: ('A' for Active; 'I' for Inactive)
REMARK    1  A    between atoms: N_11  and  N_12
REMARK                            x       y       z     vdW  Elec       q    Type
REMARK                         _______ _______ _______ _____ _____    ______ ____
ROOT
ATOM      1  N   UNL     1       4.968  -3.176  -0.063  0.00  0.00    -0.174 NA
ATOM      2  C   UNL     1       5.677  -4.277   0.024  0.00  0.00    +0.153 C 
ATOM      3  C   UNL     1       5.176  -5.669   0.033  0.00  0.00    +0.029 A 
ATOM      4  C   UNL     1       3.933  -6.291  -0.034  0.00  0.00    +0.012 A 
ATOM      5  C   UNL     1       3.860  -7.672   0.004  0.00  0.00    +0.001 A 
ATOM      6  C   UNL     1       5.004  -8.456   0.108  0.00  0.00    +0.005 A 
ATOM      7  C   UNL     1       6.235  -7.854   0.174  0.00  0.00    -0.025 A 
ATOM      8  C   UNL     1       6.307  -6.464   0.138  0.00  0.00    +0.049 A 
ATOM      9  N   UNL     1       7.467  -5.685   0.200  0.00  0.00    -0.265 N 
ATOM     10  C   UNL     1       7.151  -4.391   0.127  0.00  0.00    +0.271 C 
ATOM     11  O   UNL     1       7.938  -3.462   0.146  0.00  0.00    -0.268 OA
ATOM     12  C   UNL     1       8.774  -6.351   0.326  0.00  0.00    +0.114 C 
ATOM     13  C   UNL     1       8.562  -7.701   1.022  0.00  0.00    +0.024 C 
ATOM     14  C   UNL     1       7.549  -8.580   0.284  0.00  0.00    +0.038 C 
ENDROOT
BRANCH   1  25
ATOM     15  C   UNL     1      -0.011   1.381   0.031  0.00  0.00    +0.002 A 
ATOM     16  C   UNL     1       1.176   2.099   0.001  0.00  0.00    +0.002 A 
ATOM     17  C   UNL     1       2.387   1.446  -0.024  0.00  0.00    +0.030 A 
ATOM     18  C   UNL     1       2.423   0.049  -0.019  0.00  0.00    +0.091 A 
ATOM     19  C   UNL     1       1.218  -0.674   0.012  0.00  0.00    +0.067 A 
ATOM     20  C   UNL     1       0.006   0.002   0.036  0.00  0.00    +0.028 A 
ATOM     21  N   UNL     1       1.571  -2.011   0.010  0.00  0.00    -0.325 N 
ATOM     22  H   UNL     1       0.963  -2.767   0.027  0.00  0.00    +0.169 HD
ATOM     23  C   UNL     1       2.935  -2.070  -0.021  0.00  0.00    +0.214 A 
ATOM     24  N   UNL     1       3.432  -0.859  -0.038  0.00  0.00    -0.213 NA
ATOM     25  N   UNL     1       3.679  -3.234  -0.033  0.00  0.00    -0.206 N 
ATOM     26  H   UNL     1       3.233  -4.096  -0.019  0.00  0.00    +0.177 HD
ENDBRANCH   1  25
TORSDOF 1
