REMARK  Name = ZINC39359427
REMARK  2 active torsions:
REMARK  status: ('A' for Active; 'I' for Inactive)
REMARK    1  A    between atoms: C_6  and  S_7
REMARK    2  A    between atoms: S_7  and  N_10
REMARK                            x       y       z     vdW  Elec       q    Type
REMARK                         _______ _______ _______ _____ _____    ______ ____
ROOT
ATOM      1  N   UNL     1      -2.036  -1.244  -1.522  0.00  0.00    -0.255 N 
ATOM      2  C   UNL     1      -1.465  -2.263  -2.230  0.00  0.00    +0.073 C 
ATOM      3  C   UNL     1      -0.524  -3.075  -1.612  0.00  0.00    +0.058 C 
ATOM      4  C   UNL     1       0.069  -4.117  -2.313  0.00  0.00    +0.097 C 
ATOM      5  N   UNL     1       0.975  -5.043  -2.016  0.00  0.00    -0.190 NA
ATOM      6  C   UNL     1       1.175  -5.809  -3.108  0.00  0.00    +0.369 C 
ATOM      7  O   UNL     1       1.945  -6.747  -3.167  0.00  0.00    -0.243 OA
ATOM      8  N   UNL     1       0.380  -5.374  -4.149  0.00  0.00    -0.190 NA
ATOM      9  C   UNL     1      -0.318  -4.351  -3.739  0.00  0.00    +0.096 C 
ATOM     10  C   UNL     1      -1.318  -3.470  -4.360  0.00  0.00    +0.047 C 
ATOM     11  C   UNL     1      -1.864  -2.479  -3.629  0.00  0.00    +0.045 C 
ATOM     12 BR   UNL     1      -3.157  -1.345  -4.415  0.00  0.00    -0.048 Br
ATOM     13  H   UNL     1      -2.754  -0.723  -1.915  0.00  0.00    +0.188 HD
ENDROOT
BRANCH   1  14
ATOM     14  S   UNL     1      -1.504  -0.897   0.007  0.00  0.00    +0.078 S 
ATOM     15  O   UNL     1      -0.146  -0.495  -0.116  0.00  0.00    -0.148 OA
ATOM     16  O   UNL     1      -1.904  -1.983   0.833  0.00  0.00    -0.148 OA
BRANCH  14  22
ATOM     17  C   UNL     1      -3.645   0.360   1.141  0.00  0.00    +0.030 A 
ATOM     18  C   UNL     1      -4.347   1.467   1.578  0.00  0.00    +0.022 A 
ATOM     19  C   UNL     1      -3.802   2.731   1.437  0.00  0.00    +0.041 A 
ATOM     20  C   UNL     1      -2.555   2.886   0.859  0.00  0.00    +0.022 A 
ATOM     21  C   UNL     1      -1.854   1.778   0.422  0.00  0.00    +0.030 A 
ATOM     22  C   UNL     1      -2.398   0.515   0.564  0.00  0.00    +0.110 A 
ATOM     23 CL   UNL     1      -4.684   4.123   1.985  0.00  0.00    -0.084 Cl
ENDBRANCH  14  22
ENDBRANCH   1  14
TORSDOF 2
