REMARK  Name = ZINC40819322
REMARK  10 active torsions:
REMARK  status: ('A' for Active; 'I' for Inactive)
REMARK    1  A    between atoms: C_1  and  C_2
REMARK    2  A    between atoms: C_2  and  C_3
REMARK    3  A    between atoms: C_2  and  C_4
REMARK    4  A    between atoms: C_4  and  C_5
REMARK    5  A    between atoms: C_5  and  C_7
REMARK    6  A    between atoms: C_5  and  N_19
REMARK    7  A    between atoms: C_20  and  C_22
REMARK    8  A    between atoms: C_23  and  O_30
REMARK    9  A    between atoms: C_27  and  O_28
REMARK   10  A    between atoms: O_28  and  C_29
REMARK                            x       y       z     vdW  Elec       q    Type
REMARK                         _______ _______ _______ _____ _____    ______ ____
ROOT
ATOM      1  C   UNL     1      -1.234  -1.974  -0.236  0.00  0.00    +0.140 C 
ENDROOT
BRANCH   1   2
ATOM      2  C   UNL     1      -2.580  -2.524  -0.630  0.00  0.00    +0.131 A 
ATOM      3  N   UNL     1      -3.317  -3.164   0.315  0.00  0.00    -0.309 N 
ATOM      4  H   UNL     1      -2.970  -3.254   1.216  0.00  0.00    +0.170 HD
ATOM      5  C   UNL     1      -4.533  -3.676   0.011  0.00  0.00    +0.259 A 
ATOM      6  O   UNL     1      -5.204  -4.250   0.848  0.00  0.00    -0.267 OA
ATOM      7  C   UNL     1      -5.011  -3.510  -1.370  0.00  0.00    +0.065 A 
ATOM      8  C   UNL     1      -6.248  -4.000  -1.785  0.00  0.00    +0.015 A 
ATOM      9  C   UNL     1      -6.646  -3.817  -3.091  0.00  0.00    +0.001 A 
ATOM     10  C   UNL     1      -5.827  -3.150  -3.993  0.00  0.00    +0.002 A 
ATOM     11  C   UNL     1      -4.601  -2.659  -3.603  0.00  0.00    +0.028 A 
ATOM     12  C   UNL     1      -4.176  -2.831  -2.284  0.00  0.00    +0.078 A 
ATOM     13  N   UNL     1      -2.978  -2.358  -1.855  0.00  0.00    -0.232 NA
ENDBRANCH   1   2
BRANCH   1  14
ATOM     14  N   UNL     1      -0.703  -2.745   0.892  0.00  0.00    -0.301 N 
ATOM     15  C   UNL     1       0.041  -3.845   0.664  0.00  0.00    +0.252 C 
ATOM     16  O   UNL     1       0.347  -4.148  -0.473  0.00  0.00    -0.270 OA
ATOM     17  H   UNL     1      -0.887  -2.463   1.801  0.00  0.00    +0.150 HD
BRANCH  15  18
ATOM     18  C   UNL     1       0.482  -4.681   1.793  0.00  0.00    +0.119 A 
ATOM     19  C   UNL     1      -0.314  -5.749   2.235  0.00  0.00    +0.133 A 
ATOM     20  C   UNL     1       0.111  -6.529   3.298  0.00  0.00    +0.046 A 
ATOM     21  C   UNL     1       1.315  -6.259   3.923  0.00  0.00    +0.007 A 
ATOM     22  C   UNL     1       2.107  -5.210   3.496  0.00  0.00    +0.046 A 
ATOM     23  C   UNL     1       1.704  -4.420   2.431  0.00  0.00    +0.136 A 
BRANCH  23  24
ATOM     24  O   UNL     1       2.485  -3.394   2.010  0.00  0.00    -0.494 OA
ATOM     25  C   UNL     1       3.715  -3.188   2.707  0.00  0.00    +0.277 C 
ENDBRANCH  23  24
BRANCH  19  26
ATOM     26  O   UNL     1      -1.495  -6.016   1.625  0.00  0.00    -0.506 OA
ATOM     27  H   UNL     1      -1.425  -6.634   0.885  0.00  0.00    +0.292 HD
ENDBRANCH  19  26
ENDBRANCH  15  18
ENDBRANCH   1  14
BRANCH   1  28
ATOM     28  C   UNL     1      -1.383  -0.508   0.174  0.00  0.00    +0.033 C 
BRANCH  28  30
ATOM     29  C   UNL     1      -2.128   1.751  -0.590  0.00  0.00    +0.007 C 
ATOM     30  C   UNL     1      -1.842   0.315  -1.032  0.00  0.00    -0.015 C 
ATOM     31  C   UNL     1      -0.743   0.318  -2.096  0.00  0.00    +0.007 C 
ENDBRANCH  28  30
ENDBRANCH   1  28
TORSDOF 7
