REMARK  Name = ZINC24461286
REMARK  12 active torsions:
REMARK  status: ('A' for Active; 'I' for Inactive)
REMARK    1  A    between atoms: C_1  and  C_2
REMARK    2  A    between atoms: C_2  and  N_3
REMARK    3  A    between atoms: N_3  and  C_4
REMARK    4  A    between atoms: N_3  and  C_6
REMARK    5  A    between atoms: C_4  and  C_5
REMARK    6  A    between atoms: C_6  and  C_8
REMARK    7  A    between atoms: C_6  and  C_27
REMARK    8  A    between atoms: C_8  and  N_9
REMARK    9  A    between atoms: C_10  and  C_12
REMARK   10  A    between atoms: C_16  and  S_18
REMARK   11  A    between atoms: S_18  and  N_21
REMARK   12  A    between atoms: N_21  and  C_22
REMARK                            x       y       z     vdW  Elec       q    Type
REMARK                         _______ _______ _______ _____ _____    ______ ____
ROOT
ATOM      1  N   UNL     1      -3.181  -0.731   0.173  0.00  0.00    -0.313 N 
ATOM      2  C   UNL     1      -3.570   0.465   0.658  0.00  0.00    +0.244 C 
ATOM      3  O   UNL     1      -4.681   0.596   1.133  0.00  0.00    -0.270 OA
ATOM      4  H   UNL     1      -2.149  -0.872  -0.181  0.00  0.00    +0.149 HD
ENDROOT
BRANCH   2   5
ATOM      5  C   UNL     1      -2.645   1.618   0.611  0.00  0.00    +0.039 A 
ATOM      6  C   UNL     1      -1.332   1.446   0.169  0.00  0.00    +0.013 A 
ATOM      7  C   UNL     1      -0.476   2.526   0.122  0.00  0.00    +0.003 A 
ATOM      8  C   UNL     1      -0.915   3.778   0.517  0.00  0.00    +0.028 A 
ATOM      9  C   UNL     1      -2.213   3.954   0.962  0.00  0.00    +0.106 A 
ATOM     10  C   UNL     1      -3.079   2.881   1.014  0.00  0.00    +0.041 A 
BRANCH   9  11
ATOM     11  S   UNL     1      -2.761   5.552   1.464  0.00  0.00    +0.059 S 
ATOM     12  O   UNL     1      -3.850   5.347   2.353  0.00  0.00    -0.153 OA
ATOM     13  O   UNL     1      -1.599   6.281   1.837  0.00  0.00    -0.153 OA
BRANCH  11  14
ATOM     14  N   UNL     1      -3.379   6.301   0.122  0.00  0.00    -0.187 NA
ATOM     15  H   UNL     1      -2.795   7.093  -0.368  0.00  0.00    +0.148 HD
BRANCH  14  16
ATOM     16  C   UNL     1      -4.579   5.767  -0.527  0.00  0.00    +0.077 C 
ATOM     17  C   UNL     1      -4.182   4.893  -1.735  0.00  0.00    +0.020 C 
ATOM     18  C   UNL     1      -5.274   5.189  -2.793  0.00  0.00    +0.002 C 
ATOM     19  C   UNL     1      -5.529   6.705  -2.605  0.00  0.00    +0.002 C 
ATOM     20  C   UNL     1      -5.436   6.919  -1.080  0.00  0.00    +0.020 C 
ENDBRANCH  14  16
ENDBRANCH  11  14
ENDBRANCH   9  11
ENDBRANCH   2   5
BRANCH   1  21
ATOM     21  C   UNL     1      -4.132  -1.844   0.119  0.00  0.00    +0.094 C 
BRANCH  21  22
ATOM     22  C   UNL     1      -3.411  -3.109  -0.350  0.00  0.00    -0.020 C 
BRANCH  22  23
ATOM     23  C   UNL     1      -4.346  -4.287  -0.248  0.00  0.00    -0.059 A 
ATOM     24  C   UNL     1      -5.111  -4.466   0.889  0.00  0.00    +0.002 A 
ATOM     25  C   UNL     1      -5.971  -5.544   0.981  0.00  0.00    +0.000 A 
ATOM     26  C   UNL     1      -6.060  -6.448  -0.061  0.00  0.00    +0.000 A 
ATOM     27  C   UNL     1      -5.291  -6.272  -1.196  0.00  0.00    +0.000 A 
ATOM     28  C   UNL     1      -4.433  -5.192  -1.289  0.00  0.00    +0.002 A 
ENDBRANCH  22  23
BRANCH  22  29
ATOM     29  N   UNL     1      -2.233  -3.344   0.497  0.00  0.00    +0.385 N 
ATOM     30  H   UNL     1      -1.857  -2.366   0.832  0.00  0.00    -0.081 HD
BRANCH  29  32
ATOM     31  C   UNL     1      -3.149  -3.185   2.763  0.00  0.00    -0.017 C 
ATOM     32  C   UNL     1      -2.590  -4.122   1.691  0.00  0.00    -0.081 C 
ENDBRANCH  29  32
BRANCH  29  33
ATOM     33  C   UNL     1      -1.163  -4.004  -0.262  0.00  0.00    -0.081 C 
ATOM     34  C   UNL     1      -0.514  -2.995  -1.212  0.00  0.00    -0.017 C 
ENDBRANCH  29  33
ENDBRANCH  22  29
ENDBRANCH  21  22
ENDBRANCH   1  21
TORSDOF 10
