REMARK  Name = ZINC01222227
REMARK  8 active torsions:
REMARK  status: ('A' for Active; 'I' for Inactive)
REMARK    1  A    between atoms: C_4  and  C_7
REMARK    2  A    between atoms: C_7  and  C_8
REMARK    3  A    between atoms: C_8  and  N_9
REMARK    4  A    between atoms: N_9  and  C_10
REMARK    5  A    between atoms: N_9  and  S_27
REMARK    6  A    between atoms: C_10  and  C_11
REMARK    7  A    between atoms: S_27  and  C_30
REMARK    8  A    between atoms: C_32  and  C_37
REMARK                            x       y       z     vdW  Elec       q    Type
REMARK                         _______ _______ _______ _____ _____    ______ ____
ROOT
ATOM      1  N   UNL     1      -0.454   7.404  -1.365  0.00  0.00    -0.172 NA
ENDROOT
BRANCH   1   2
ATOM      2  S   UNL     1       1.015   8.091  -1.026  0.00  0.00    +0.063 S 
ATOM      3  O   UNL     1       0.793   9.028   0.018  0.00  0.00    -0.153 OA
ATOM      4  O   UNL     1       1.944   7.023  -0.907  0.00  0.00    -0.153 OA
BRANCH   2   5
ATOM      5  C   UNL     1       1.495   9.020  -2.444  0.00  0.00    +0.124 A 
ATOM      6  C   UNL     1       1.558  10.400  -2.377  0.00  0.00    +0.042 A 
ATOM      7  C   UNL     1       1.940  11.129  -3.488  0.00  0.00    +0.057 A 
ATOM      8  C   UNL     1       2.247  10.480  -4.669  0.00  0.00    +0.014 A 
ATOM      9  C   UNL     1       2.179   9.101  -4.739  0.00  0.00    +0.022 A 
ATOM     10  C   UNL     1       1.802   8.370  -3.626  0.00  0.00    +0.067 A 
ATOM     11 CL   UNL     1       1.717   6.639  -3.712  0.00  0.00    -0.082 Cl
BRANCH   7  12
ATOM     12  C   UNL     1       2.014  12.632  -3.413  0.00  0.00    +0.417 C 
ATOM     13  F   UNL     1       2.413  13.142  -4.653  0.00  0.00    -0.166 F 
ATOM     14  F   UNL     1       0.755  13.145  -3.081  0.00  0.00    -0.166 F 
ATOM     15  F   UNL     1       2.942  13.005  -2.434  0.00  0.00    -0.166 F 
ENDBRANCH   7  12
ENDBRANCH   2   5
ENDBRANCH   1   2
BRANCH   1  16
ATOM     16  C   UNL     1      -0.520   6.033  -1.877  0.00  0.00    +0.114 C 
BRANCH  16  17
ATOM     17  C   UNL     1      -1.266   5.150  -0.875  0.00  0.00    +0.052 C 
BRANCH  17  21
ATOM     18  C   UNL     1      -1.694   1.216  -2.485  0.00  0.00    +0.000 A 
ATOM     19  C   UNL     1      -2.665   2.171  -2.725  0.00  0.00    +0.000 A 
ATOM     20  C   UNL     1      -2.529   3.443  -2.200  0.00  0.00    +0.003 A 
ATOM     21  C   UNL     1      -1.417   3.762  -1.443  0.00  0.00    -0.046 A 
ATOM     22  C   UNL     1      -0.444   2.809  -1.207  0.00  0.00    +0.003 A 
ATOM     23  C   UNL     1      -0.583   1.536  -1.728  0.00  0.00    +0.000 A 
ENDBRANCH  17  21
ENDBRANCH  16  17
ENDBRANCH   1  16
BRANCH   1  24
ATOM     24  C   UNL     1      -1.686   8.168  -1.153  0.00  0.00    +0.150 C 
BRANCH  24  25
ATOM     25  C   UNL     1      -2.378   8.381  -2.474  0.00  0.00    +0.033 A 
ATOM     26  C   UNL     1      -3.371   7.540  -2.861  0.00  0.00    +0.020 A 
ATOM     27  C   UNL     1      -4.023   7.773  -4.149  0.00  0.00    +0.003 A 
ATOM     28  C   UNL     1      -5.052   6.937  -4.600  0.00  0.00    +0.059 A 
ATOM     29  C   UNL     1      -5.647   7.180  -5.820  0.00  0.00    +0.163 A 
ATOM     30  C   UNL     1      -5.228   8.259  -6.605  0.00  0.00    +0.164 A 
ATOM     31  C   UNL     1      -4.213   9.091  -6.166  0.00  0.00    +0.075 A 
ATOM     32  C   UNL     1      -3.602   8.859  -4.941  0.00  0.00    +0.053 A 
ATOM     33  N   UNL     1      -2.587   9.678  -4.488  0.00  0.00    -0.322 N 
ATOM     34  H   UNL     1      -2.286  10.447  -5.052  0.00  0.00    +0.169 HD
ATOM     35  C   UNL     1      -1.997   9.457  -3.301  0.00  0.00    +0.254 A 
ATOM     36  O   UNL     1      -1.107  10.204  -2.931  0.00  0.00    -0.268 OA
ATOM     37  O   UNL     1      -5.812   8.508  -7.808  0.00  0.00    -0.485 OA
ATOM     38  C   UNL     1      -6.567   7.441  -8.391  0.00  0.00    +0.270 C 
ATOM     39  C   UNL     1      -7.473   6.844  -7.306  0.00  0.00    +0.270 C 
ATOM     40  O   UNL     1      -6.643   6.355  -6.247  0.00  0.00    -0.485 OA
ENDBRANCH  24  25
ENDBRANCH   1  24
TORSDOF 8
