REMARK  Name = ZINC35777416
REMARK  20 active torsions:
REMARK  status: ('A' for Active; 'I' for Inactive)
REMARK    1  A    between atoms: C_1  and  C_2
REMARK    2  A    between atoms: C_2  and  C_3
REMARK    3  A    between atoms: C_4  and  C_23
REMARK    4  A    between atoms: C_5  and  O_14
REMARK    5  A    between atoms: N_6  and  C_8
REMARK    6  A    between atoms: O_14  and  C_15
REMARK    7  A    between atoms: C_20  and  O_21
REMARK    8  A    between atoms: O_21  and  C_22
REMARK    9  A    between atoms: C_23  and  N_24
REMARK   10  A    between atoms: N_24  and  C_25
REMARK   11  A    between atoms: N_24  and  C_29
REMARK   12  A    between atoms: C_25  and  C_26
REMARK   13  A    between atoms: C_29  and  C_30
REMARK   14  A    between atoms: C_30  and  C_32
REMARK   15  A    between atoms: C_30  and  O_38
REMARK   16  A    between atoms: C_32  and  O_33
REMARK   17  A    between atoms: O_33  and  C_34
REMARK   18  A    between atoms: C_34  and  C_35
REMARK   19  A    between atoms: C_35  and  C_36
REMARK   20  A    between atoms: C_35  and  C_37
REMARK                            x       y       z     vdW  Elec       q    Type
REMARK                         _______ _______ _______ _____ _____    ______ ____
ROOT
ATOM      1  C   UNL     1      -2.298  -0.396  -0.622  0.00  0.00    +0.068 A 
ATOM      2  C   UNL     1      -2.439  -0.709   0.733  0.00  0.00    +0.021 A 
ATOM      3  C   UNL     1      -3.626  -1.353   0.892  0.00  0.00    +0.225 A 
ATOM      4  N   UNL     1      -4.211  -1.439  -0.333  0.00  0.00    -0.200 N 
ATOM      5  N   UNL     1      -3.358  -0.826  -1.259  0.00  0.00    -0.168 NA
ENDROOT
BRANCH   4   6
ATOM      6  C   UNL     1      -5.449  -2.032  -0.617  0.00  0.00    +0.069 A 
ATOM      7  C   UNL     1      -5.778  -3.259  -0.056  0.00  0.00    +0.028 A 
ATOM      8  C   UNL     1      -6.999  -3.840  -0.338  0.00  0.00    +0.002 A 
ATOM      9  C   UNL     1      -7.893  -3.202  -1.177  0.00  0.00    +0.000 A 
ATOM     10  C   UNL     1      -7.568  -1.980  -1.738  0.00  0.00    +0.002 A 
ATOM     11  C   UNL     1      -6.351  -1.391  -1.455  0.00  0.00    +0.028 A 
ENDBRANCH   4   6
BRANCH   1  13
ATOM     12  C   UNL     1      -1.379   1.831  -1.212  0.00  0.00    +0.010 C 
ATOM     13  C   UNL     1      -1.128   0.322  -1.244  0.00  0.00    +0.054 C 
ENDBRANCH   1  13
BRANCH   2  14
ATOM     14  C   UNL     1      -1.450  -0.390   1.824  0.00  0.00    -0.036 C 
BRANCH  14  15
ATOM     15  N   UNL     1      -1.709   0.961   2.341  0.00  0.00    +0.384 N 
ATOM     16  H   UNL     1      -1.699   1.621   1.577  0.00  0.00    -0.081 HD
BRANCH  15  17
ATOM     17  C   UNL     1      -0.669   1.322   3.313  0.00  0.00    -0.075 C 
BRANCH  17  18
ATOM     18  C   UNL     1       0.694   1.343   2.617  0.00  0.00    -0.028 C 
ATOM     19  C   UNL     1       1.741   0.329   3.084  0.00  0.00    +0.002 C 
ATOM     20  C   UNL     1       1.898   1.809   3.437  0.00  0.00    +0.002 C 
ENDBRANCH  17  18
ENDBRANCH  15  17
BRANCH  15  21
ATOM     21  C   UNL     1      -3.023   0.991   2.996  0.00  0.00    -0.044 C 
BRANCH  21  22
ATOM     22  C   UNL     1      -3.378   2.433   3.363  0.00  0.00    +0.124 C 
BRANCH  22  23
ATOM     23  O   UNL     1      -2.506   2.890   4.398  0.00  0.00    -0.391 OA
ATOM     24  H   UNL     1      -2.554   2.369   5.212  0.00  0.00    +0.210 HD
ENDBRANCH  22  23
BRANCH  22  25
ATOM     25  C   UNL     1      -4.827   2.494   3.852  0.00  0.00    +0.189 C 
BRANCH  25  26
ATOM     26  O   UNL     1      -5.195   3.855   4.083  0.00  0.00    -0.377 OA
BRANCH  26  27
ATOM     27  C   UNL     1      -6.537   4.023   4.546  0.00  0.00    +0.163 C 
BRANCH  27  28
ATOM     28  C   UNL     1      -6.819   5.512   4.758  0.00  0.00    +0.009 C 
ATOM     29  C   UNL     1      -6.760   6.240   3.414  0.00  0.00    +0.009 C 
ATOM     30  C   UNL     1      -8.211   5.684   5.371  0.00  0.00    +0.009 C 
ENDBRANCH  27  28
ENDBRANCH  26  27
ENDBRANCH  25  26
ENDBRANCH  22  25
ENDBRANCH  21  22
ENDBRANCH  15  21
ENDBRANCH  14  15
ENDBRANCH   2  14
BRANCH   3  31
ATOM     31  O   UNL     1      -4.134  -1.823   2.059  0.00  0.00    -0.434 OA
BRANCH  31  32
ATOM     32  C   UNL     1      -3.748  -3.060   2.471  0.00  0.00    +0.172 A 
ATOM     33  C   UNL     1      -2.778  -3.755   1.766  0.00  0.00    +0.050 A 
ATOM     34  C   UNL     1      -2.385  -5.012   2.187  0.00  0.00    +0.004 A 
ATOM     35  C   UNL     1      -2.958  -5.578   3.311  0.00  0.00    +0.004 A 
ATOM     36  C   UNL     1      -3.926  -4.890   4.019  0.00  0.00    +0.049 A 
ATOM     37  C   UNL     1      -4.320  -3.628   3.606  0.00  0.00    +0.162 A 
BRANCH  37  38
ATOM     38  O   UNL     1      -5.268  -2.947   4.304  0.00  0.00    -0.491 OA
ATOM     39  C   UNL     1      -5.812  -3.592   5.458  0.00  0.00    +0.277 C 
ENDBRANCH  37  38
ENDBRANCH  31  32
ENDBRANCH   3  31
TORSDOF 16
