REMARK  Name = ZINC18595084
REMARK  9 active torsions:
REMARK  status: ('A' for Active; 'I' for Inactive)
REMARK    1  A    between atoms: C_1  and  C_2
REMARK    2  A    between atoms: C_2  and  C_4
REMARK    3  A    between atoms: C_2  and  S_19
REMARK    4  A    between atoms: C_16  and  C_17
REMARK    5  A    between atoms: C_16  and  C_18
REMARK    6  A    between atoms: S_19  and  C_20
REMARK    7  A    between atoms: N_24  and  C_25
REMARK    8  A    between atoms: C_28  and  O_31
REMARK    9  A    between atoms: O_31  and  C_32
REMARK                            x       y       z     vdW  Elec       q    Type
REMARK                         _______ _______ _______ _____ _____    ______ ____
ROOT
ATOM      1  C   UNL     1      -2.937   1.026  -0.902  0.00  0.00    +0.029 C 
ATOM      2  C   UNL     1      -2.716   2.299  -1.721  0.00  0.00    +0.137 C 
ENDROOT
BRANCH   2   3
ATOM      3  C   UNL     1      -2.844   3.503  -0.823  0.00  0.00    +0.234 C 
ATOM      4  O   UNL     1      -3.942   3.928  -0.531  0.00  0.00    -0.274 OA
ATOM      5  N   UNL     1      -1.738   4.107  -0.344  0.00  0.00    -0.255 N 
ATOM      6  C   UNL     1      -0.457   3.637  -0.671  0.00  0.00    +0.059 A 
ATOM      7  C   UNL     1      -0.236   2.300  -0.951  0.00  0.00    +0.025 A 
ATOM      8  C   UNL     1       1.041   1.865  -1.258  0.00  0.00    +0.002 A 
ATOM      9  C   UNL     1       2.091   2.763  -1.296  0.00  0.00    +0.002 A 
ATOM     10  C   UNL     1       1.876   4.102  -1.026  0.00  0.00    +0.025 A 
ATOM     11  C   UNL     1       0.602   4.546  -0.712  0.00  0.00    +0.055 A 
ATOM     12  N   UNL     1       0.361   5.898  -0.441  0.00  0.00    -0.282 N 
ATOM     13  C   UNL     1      -0.794   6.290   0.128  0.00  0.00    +0.241 C 
ATOM     14  O   UNL     1      -1.000   7.471   0.314  0.00  0.00    -0.273 OA
ATOM     15  C   UNL     1      -1.836   5.280   0.537  0.00  0.00    +0.113 C 
ATOM     16  C   UNL     1      -1.593   4.853   1.986  0.00  0.00    +0.042 C 
ATOM     17  C   UNL     1      -3.228   5.901   0.410  0.00  0.00    +0.042 C 
ATOM     18  H   UNL     1       1.034   6.559  -0.665  0.00  0.00    +0.155 HD
ENDBRANCH   2   3
BRANCH   2  19
ATOM     19  S   UNL     1      -3.955   2.394  -3.036  0.00  0.00    -0.072 S 
BRANCH  19  20
ATOM     20  C   UNL     1      -3.493   0.989  -3.994  0.00  0.00    +0.215 A 
ATOM     21  N   UNL     1      -2.499   0.164  -3.743  0.00  0.00    -0.101 NA
ATOM     22  N   UNL     1      -2.439  -0.755  -4.638  0.00  0.00    -0.022 NA
ATOM     23  N   UNL     1      -3.367  -0.586  -5.517  0.00  0.00    -0.038 NA
ATOM     24  N   UNL     1      -4.090   0.557  -5.133  0.00  0.00    -0.187 N 
BRANCH  24  25
ATOM     25  C   UNL     1      -5.192   1.128  -5.787  0.00  0.00    +0.070 A 
ATOM     26  C   UNL     1      -6.212   1.712  -5.048  0.00  0.00    +0.031 A 
ATOM     27  C   UNL     1      -7.294   2.279  -5.692  0.00  0.00    +0.048 A 
ATOM     28  C   UNL     1      -7.367   2.255  -7.077  0.00  0.00    +0.130 A 
ATOM     29  C   UNL     1      -6.351   1.665  -7.816  0.00  0.00    +0.048 A 
ATOM     30  C   UNL     1      -5.266   1.103  -7.173  0.00  0.00    +0.031 A 
BRANCH  28  31
ATOM     31  O   UNL     1      -8.435   2.808  -7.711  0.00  0.00    -0.406 OA
BRANCH  31  32
ATOM     32  C   UNL     1      -9.444   3.397  -6.888  0.00  0.00    +0.575 C 
ATOM     33  F   UNL     1      -8.882   4.428  -6.128  0.00  0.00    -0.133 F 
ATOM     34  F   UNL     1     -10.461   3.915  -7.696  0.00  0.00    -0.133 F 
ATOM     35  F   UNL     1      -9.976   2.425  -6.034  0.00  0.00    -0.133 F 
ENDBRANCH  31  32
ENDBRANCH  28  31
ENDBRANCH  24  25
ENDBRANCH  19  20
ENDBRANCH   2  19
TORSDOF 6
