REMARK  Name = ZINC04339009
REMARK  8 active torsions:
REMARK  status: ('A' for Active; 'I' for Inactive)
REMARK    1  A    between atoms: C_1  and  C_2
REMARK    2  A    between atoms: C_2  and  C_31
REMARK    3  A    between atoms: C_6  and  N_23
REMARK    4  A    between atoms: C_10  and  N_22
REMARK    5  A    between atoms: C_11  and  C_13
REMARK    6  A    between atoms: C_16  and  C_18
REMARK    7  A    between atoms: C_18  and  O_20
REMARK    8  A    between atoms: O_20  and  C_21
REMARK                            x       y       z     vdW  Elec       q    Type
REMARK                         _______ _______ _______ _____ _____    ______ ____
ROOT
ATOM      1  C   UNL     1       1.053   1.707   0.103  0.00  0.00    +0.041 C 
ATOM      2  C   UNL     1       0.954   0.181   0.146  0.00  0.00    +0.068 C 
ATOM      3  C   UNL     1       1.379  -0.402  -1.204  0.00  0.00    +0.070 C 
ATOM      4  C   UNL     1       1.559  -1.891  -1.081  0.00  0.00    -0.025 A 
ATOM      5  C   UNL     1       1.686  -2.503   0.125  0.00  0.00    +0.020 A 
ATOM      6  C   UNL     1       1.859  -3.892   0.189  0.00  0.00    +0.105 A 
ATOM      7  N   UNL     1       1.897  -4.617  -0.917  0.00  0.00    -0.337 N 
ATOM      8  C   UNL     1       1.773  -4.060  -2.102  0.00  0.00    +0.089 A 
ATOM      9  C   UNL     1       1.598  -2.668  -2.268  0.00  0.00    +0.031 A 
ATOM     10  C   UNL     1       1.482  -2.221  -3.647  0.00  0.00    +0.052 A 
ATOM     11  C   UNL     1       1.549  -3.163  -4.649  0.00  0.00    +0.078 A 
ATOM     12  S   UNL     1       1.772  -4.693  -3.761  0.00  0.00    -0.066 S 
ATOM     13  C   UNL     1       1.639  -1.722   1.413  0.00  0.00    +0.199 C 
ATOM     14  O   UNL     1       1.831  -0.332   1.155  0.00  0.00    -0.369 OA
ATOM     15  C   UNL     1      -0.486  -0.233   0.456  0.00  0.00    +0.041 C 
ATOM     16  H   UNL     1       2.018  -5.577  -0.853  0.00  0.00    +0.168 HD
ENDROOT
BRANCH   6  17
ATOM     17  N   UNL     1       1.993  -4.512   1.424  0.00  0.00    -0.312 N 
ATOM     18  C   UNL     1       0.811  -4.960   2.179  0.00  0.00    +0.134 C 
ATOM     19  C   UNL     1       1.027  -6.420   2.592  0.00  0.00    +0.178 C 
ATOM     20  O   UNL     1       2.287  -6.540   3.256  0.00  0.00    -0.377 OA
ATOM     21  C   UNL     1       3.413  -6.213   2.438  0.00  0.00    +0.178 C 
ATOM     22  C   UNL     1       3.320  -4.747   2.014  0.00  0.00    +0.134 C 
ENDBRANCH   6  17
BRANCH  11  23
ATOM     23  C   UNL     1       1.457  -2.959  -6.094  0.00  0.00    +0.144 A 
ATOM     24  C   UNL     1       1.526  -3.950  -7.058  0.00  0.00    +0.051 A 
ATOM     25  C   UNL     1       1.396  -3.324  -8.295  0.00  0.00    +0.057 A 
ATOM     26  C   UNL     1       1.252  -1.971  -8.049  0.00  0.00    +0.212 A 
ATOM     27  O   UNL     1       1.286  -1.776  -6.712  0.00  0.00    -0.448 OA
BRANCH  26  28
ATOM     28  C   UNL     1       1.090  -0.964  -9.029  0.00  0.00    +0.375 C 
ATOM     29  O   UNL     1       1.069  -1.261 -10.210  0.00  0.00    -0.241 OA
BRANCH  28  30
ATOM     30  O   UNL     1       0.959   0.327  -8.655  0.00  0.00    -0.462 OA
ATOM     31  C   UNL     1       0.799   1.291  -9.698  0.00  0.00    +0.280 C 
ENDBRANCH  28  30
ENDBRANCH  26  28
ENDBRANCH  11  23
BRANCH  10  32
ATOM     32  N   UNL     1       1.306  -0.871  -3.948  0.00  0.00    -0.356 N 
ATOM     33  H   UNL     1       1.596  -0.192  -3.319  0.00  0.00    +0.142 HD
ATOM     34  H   UNL     1       0.893  -0.610  -4.787  0.00  0.00    +0.142 HD
ENDBRANCH  10  32
TORSDOF 5
