REMARK  Name = ZINC04565477
REMARK  5 active torsions:
REMARK  status: ('A' for Active; 'I' for Inactive)
REMARK    1  A    between atoms: C_4  and  O_20
REMARK    2  A    between atoms: C_5  and  C_7
REMARK    3  A    between atoms: N_9  and  C_10
REMARK    4  A    between atoms: O_20  and  C_21
REMARK    5  A    between atoms: C_21  and  C_22
REMARK                            x       y       z     vdW  Elec       q    Type
REMARK                         _______ _______ _______ _____ _____    ______ ____
ROOT
ATOM      1  C   UNL     1       1.250  -2.159  -0.022  0.00  0.00    +0.248 C 
ATOM      2  O   UNL     1       2.314  -2.748  -0.036  0.00  0.00    -0.270 OA
ATOM      3  N   UNL     1       0.095  -2.855  -0.014  0.00  0.00    -0.306 N 
ATOM      4  H   UNL     1      -0.754  -2.385  -0.003  0.00  0.00    +0.150 HD
ENDROOT
BRANCH   3   5
ATOM      5  C   UNL     1       0.122  -4.319  -0.023  0.00  0.00    +0.036 C 
ATOM      6  C   UNL     1       0.866  -4.823   1.216  0.00  0.00    +0.029 C 
ATOM      7  C   UNL     1       0.894  -6.353   1.207  0.00  0.00    -0.008 C 
ATOM      8  C   UNL     1      -0.539  -6.889   1.218  0.00  0.00    +0.007 C 
ATOM      9  C   UNL     1      -1.282  -6.386  -0.021  0.00  0.00    -0.008 C 
ATOM     10  C   UNL     1      -1.310  -4.856  -0.011  0.00  0.00    +0.029 C 
ATOM     11  C   UNL     1      -0.564  -6.875  -1.280  0.00  0.00    +0.007 C 
ATOM     12  C   UNL     1       0.869  -6.338  -1.291  0.00  0.00    -0.008 C 
ATOM     13  C   UNL     1       1.612  -6.842  -0.052  0.00  0.00    +0.007 C 
ATOM     14  C   UNL     1       0.840  -4.809  -1.282  0.00  0.00    +0.029 C 
ENDBRANCH   3   5
BRANCH   1  19
ATOM     15  C   UNL     1      -0.017   1.374   0.010  0.00  0.00    +0.001 A 
ATOM     16  C   UNL     1       1.170   2.089   0.002  0.00  0.00    +0.004 A 
ATOM     17  C   UNL     1       2.383   1.429  -0.013  0.00  0.00    +0.046 A 
ATOM     18  C   UNL     1       2.420   0.043  -0.021  0.00  0.00    +0.133 A 
ATOM     19  C   UNL     1       1.222  -0.684  -0.013  0.00  0.00    +0.078 A 
ATOM     20  C   UNL     1       0.002  -0.004   0.002  0.00  0.00    +0.017 A 
BRANCH  18  21
ATOM     21  O   UNL     1       3.611  -0.606  -0.037  0.00  0.00    -0.482 OA
BRANCH  21  22
ATOM     22  C   UNL     1       4.790   0.201  -0.045  0.00  0.00    +0.324 C 
BRANCH  22  23
ATOM     23  C   UNL     1       6.008  -0.687  -0.062  0.00  0.00    +0.248 C 
ATOM     24  O   UNL     1       5.878  -1.893  -0.067  0.00  0.00    -0.272 OA
ATOM     25  N   UNL     1       7.240  -0.142  -0.072  0.00  0.00    -0.327 N 
ATOM     26  H   UNL     1       7.343   0.823  -0.068  0.00  0.00    +0.145 HD
ATOM     27  H   UNL     1       8.023  -0.714  -0.083  0.00  0.00    +0.145 HD
ENDBRANCH  22  23
ENDBRANCH  21  22
ENDBRANCH  18  21
ENDBRANCH   1  19
TORSDOF 5
