REMARK  Name = ZINC44857258
REMARK  10 active torsions:
REMARK  status: ('A' for Active; 'I' for Inactive)
REMARK    1  A    between atoms: C_1  and  C_2
REMARK    2  A    between atoms: C_5  and  S_8
REMARK    3  A    between atoms: S_8  and  N_11
REMARK    4  A    between atoms: N_11  and  C_12
REMARK    5  A    between atoms: N_11  and  C_29
REMARK    6  A    between atoms: C_12  and  C_13
REMARK    7  A    between atoms: N_15  and  C_16
REMARK    8  A    between atoms: C_16  and  C_17
REMARK    9  A    between atoms: C_20  and  C_23
REMARK   10  A    between atoms: C_23  and  N_24
REMARK                            x       y       z     vdW  Elec       q    Type
REMARK                         _______ _______ _______ _____ _____    ______ ____
ROOT
ATOM      1  C   UNL     1       2.315  -5.311   1.234  0.00  0.00    +0.227 C 
ENDROOT
BRANCH   1   2
ATOM      2  C   UNL     1       2.043  -6.746   1.604  0.00  0.00    +0.232 C 
ATOM      3  O   UNL     1       1.361  -7.440   0.880  0.00  0.00    -0.274 OA
ATOM      4  N   UNL     1       2.557  -7.258   2.740  0.00  0.00    -0.310 N 
ATOM      5  H   UNL     1       3.102  -6.702   3.319  0.00  0.00    +0.149 HD
BRANCH   4   6
ATOM      6  C   UNL     1       2.292  -8.653   3.100  0.00  0.00    +0.139 C 
BRANCH   6   7
ATOM      7  C   UNL     1       2.975  -8.973   4.405  0.00  0.00    -0.030 A 
ATOM      8  C   UNL     1       4.271  -9.455   4.407  0.00  0.00    +0.005 A 
ATOM      9  C   UNL     1       4.898  -9.749   5.603  0.00  0.00    +0.002 A 
ATOM     10  C   UNL     1       4.229  -9.561   6.798  0.00  0.00    -0.064 A 
ATOM     11  C   UNL     1       2.933  -9.078   6.796  0.00  0.00    +0.002 A 
ATOM     12  C   UNL     1       2.308  -8.780   5.600  0.00  0.00    +0.005 A 
BRANCH  10  13
ATOM     13  C   UNL     1       4.912  -9.882   8.103  0.00  0.00    -0.043 C 
BRANCH  13  14
ATOM     14  N   UNL     1       5.617  -8.690   8.593  0.00  0.00    +0.382 N 
ATOM     15  C   UNL     1       4.639  -7.650   9.004  0.00  0.00    -0.078 C 
ATOM     16  C   UNL     1       5.456  -6.760   9.975  0.00  0.00    -0.020 C 
ATOM     17  C   UNL     1       6.332  -7.787  10.730  0.00  0.00    -0.020 C 
ATOM     18  C   UNL     1       6.391  -9.020   9.809  0.00  0.00    -0.078 C 
ATOM     19  H   UNL     1       6.230  -8.329   7.877  0.00  0.00    -0.081 HD
ENDBRANCH  13  14
ENDBRANCH  10  13
ENDBRANCH   6   7
ENDBRANCH   4   6
ENDBRANCH   1   2
BRANCH   1  20
ATOM     20  N   UNL     1       1.651  -4.999  -0.034  0.00  0.00    -0.194 N 
BRANCH  20  21
ATOM     21  C   UNL     1       2.284  -5.292  -1.244  0.00  0.00    +0.052 A 
ATOM     22  C   UNL     1       3.515  -4.721  -1.542  0.00  0.00    +0.025 A 
ATOM     23  C   UNL     1       4.139  -5.013  -2.739  0.00  0.00    +0.002 A 
ATOM     24  C   UNL     1       3.539  -5.872  -3.642  0.00  0.00    +0.000 A 
ATOM     25  C   UNL     1       2.313  -6.441  -3.349  0.00  0.00    +0.002 A 
ATOM     26  C   UNL     1       1.687  -6.158  -2.151  0.00  0.00    +0.025 A 
ENDBRANCH  20  21
BRANCH  20  27
ATOM     27  S   UNL     1       0.149  -4.301  -0.033  0.00  0.00    +0.075 S 
ATOM     28  O   UNL     1      -0.501  -4.738   1.152  0.00  0.00    -0.150 OA
ATOM     29  O   UNL     1      -0.399  -4.515  -1.326  0.00  0.00    -0.150 OA
BRANCH  27  34
ATOM     30  C   UNL     1       0.949   1.653   0.535  0.00  0.00    +0.044 C 
ATOM     31  C   UNL     1       0.750   0.166   0.394  0.00  0.00    -0.050 A 
ATOM     32  C   UNL     1       0.708  -0.409  -0.863  0.00  0.00    +0.005 A 
ATOM     33  C   UNL     1       0.525  -1.773  -0.993  0.00  0.00    +0.029 A 
ATOM     34  C   UNL     1       0.384  -2.562   0.133  0.00  0.00    +0.109 A 
ATOM     35  C   UNL     1       0.427  -1.988   1.389  0.00  0.00    +0.029 A 
ATOM     36  C   UNL     1       0.614  -0.624   1.520  0.00  0.00    +0.005 A 
ENDBRANCH  27  34
ENDBRANCH  20  27
ENDBRANCH   1  20
TORSDOF 9
