REMARK  Name = ZINC47892074
REMARK  9 active torsions:
REMARK  status: ('A' for Active; 'I' for Inactive)
REMARK    1  A    between atoms: C_1  and  C_2
REMARK    2  A    between atoms: N_5  and  C_8
REMARK    3  A    between atoms: C_8  and  C_9
REMARK    4  A    between atoms: C_8  and  C_26
REMARK    5  A    between atoms: C_9  and  N_10
REMARK    6  A    between atoms: N_13  and  C_14
REMARK    7  A    between atoms: C_18  and  N_20
REMARK    8  A    between atoms: C_26  and  C_27
REMARK    9  A    between atoms: C_26  and  C_28
REMARK                            x       y       z     vdW  Elec       q    Type
REMARK                         _______ _______ _______ _____ _____    ______ ____
ROOT
ATOM      1  N   UNL     1       1.905  -3.771   2.306  0.00  0.00    -0.301 N 
ATOM      2  C   UNL     1       2.406  -4.154   3.497  0.00  0.00    +0.304 C 
ATOM      3  O   UNL     1       3.404  -4.847   3.543  0.00  0.00    -0.253 OA
ATOM      4  N   UNL     1       1.801  -3.768   4.638  0.00  0.00    -0.269 N 
ATOM      5  H   UNL     1       1.109  -3.219   2.270  0.00  0.00    +0.150 HD
ATOM      6  H   UNL     1       0.957  -3.291   4.602  0.00  0.00    +0.156 HD
ENDROOT
BRANCH   4   7
ATOM      7  C   UNL     1       2.390  -4.056   5.875  0.00  0.00    +0.037 A 
ATOM      8  C   UNL     1       3.773  -4.053   6.003  0.00  0.00    +0.023 A 
ATOM      9  C   UNL     1       4.356  -4.337   7.223  0.00  0.00    +0.004 A 
ATOM     10  C   UNL     1       3.565  -4.624   8.319  0.00  0.00    +0.024 A 
ATOM     11  C   UNL     1       2.181  -4.628   8.197  0.00  0.00    +0.040 A 
ATOM     12  C   UNL     1       1.593  -4.339   6.974  0.00  0.00    +0.047 A 
BRANCH  11  13
ATOM     13  N   UNL     1       1.381  -4.920   9.308  0.00  0.00    -0.254 N 
ATOM     14  C   UNL     1       1.867  -5.104  10.683  0.00  0.00    +0.134 C 
ATOM     15  C   UNL     1       0.587  -5.400  11.490  0.00  0.00    +0.125 C 
ATOM     16  N   UNL     1      -0.483  -5.350  10.483  0.00  0.00    -0.297 N 
ATOM     17  C   UNL     1       0.050  -5.069   9.287  0.00  0.00    +0.307 C 
ATOM     18  O   UNL     1      -0.614  -4.964   8.274  0.00  0.00    -0.252 OA
ATOM     19  H   UNL     1      -1.427  -5.494  10.659  0.00  0.00    +0.150 HD
ENDBRANCH  11  13
ENDBRANCH   4   7
BRANCH   1  20
ATOM     20  C   UNL     1       2.563  -4.191   1.066  0.00  0.00    +0.091 C 
BRANCH  20  21
ATOM     21  C   UNL     1       1.826  -3.588  -0.132  0.00  0.00    -0.048 C 
BRANCH  21  26
ATOM     22  C   UNL     1       3.383   1.840   0.668  0.00  0.00    +0.007 C 
ATOM     23  C   UNL     1       3.199   0.330   0.831  0.00  0.00    -0.018 C 
ATOM     24  C   UNL     1       1.707   0.005   0.946  0.00  0.00    -0.016 C 
ATOM     25  C   UNL     1       1.525  -1.512   1.029  0.00  0.00    -0.078 C 
ATOM     26  N   UNL     1       2.072  -2.140  -0.180  0.00  0.00    +0.383 N 
ATOM     27  C   UNL     1       3.517  -1.894  -0.259  0.00  0.00    -0.078 C 
ATOM     28  C   UNL     1       3.775  -0.391  -0.391  0.00  0.00    -0.016 C 
ATOM     29  H   UNL     1       1.621  -1.751  -0.994  0.00  0.00    -0.081 HD
ENDBRANCH  21  26
BRANCH  21  30
ATOM     30  C   UNL     1       2.334  -4.235  -1.422  0.00  0.00    -0.029 C 
ATOM     31  C   UNL     1       1.964  -5.719  -1.428  0.00  0.00    +0.005 C 
ATOM     32  C   UNL     1       1.691  -3.544  -2.626  0.00  0.00    +0.005 C 
ENDBRANCH  21  30
ENDBRANCH  20  21
ENDBRANCH   1  20
TORSDOF 6
