REMARK  Name = ZINC67066886
REMARK  7 active torsions:
REMARK  status: ('A' for Active; 'I' for Inactive)
REMARK    1  A    between atoms: C_1  and  C_2
REMARK    2  A    between atoms: C_2  and  C_3
REMARK    3  A    between atoms: C_2  and  C_4
REMARK    4  A    between atoms: C_4  and  C_5
REMARK    5  A    between atoms: C_5  and  C_6
REMARK    6  A    between atoms: N_8  and  N_9
REMARK    7  A    between atoms: N_12  and  C_13
REMARK                            x       y       z     vdW  Elec       q    Type
REMARK                         _______ _______ _______ _____ _____    ______ ____
ROOT
ATOM      1  N   UNL     1      -5.695  -0.848  -2.288  0.00  0.00    -0.218 N 
ATOM      2  C   UNL     1      -6.508  -0.613  -3.337  0.00  0.00    +0.317 C 
ATOM      3  O   UNL     1      -7.665  -0.985  -3.304  0.00  0.00    -0.251 OA
ATOM      4  N   UNL     1      -6.038   0.034  -4.421  0.00  0.00    -0.287 N 
ATOM      5  H   UNL     1      -6.033  -1.314  -1.507  0.00  0.00    +0.174 HD
ATOM      6  H   UNL     1      -5.115   0.331  -4.447  0.00  0.00    +0.151 HD
ENDROOT
BRANCH   4   7
ATOM      7  C   UNL     1      -6.922   0.290  -5.561  0.00  0.00    +0.160 C 
ATOM      8  C   UNL     1      -6.085   0.659  -6.788  0.00  0.00    +0.032 C 
ATOM      9  C   UNL     1      -4.857   1.455  -6.383  0.00  0.00    +0.004 C 
ATOM     10  C   UNL     1      -5.176   2.828  -5.820  0.00  0.00    +0.019 C 
ATOM     11  C   UNL     1      -5.904   2.712  -4.479  0.00  0.00    +0.104 C 
ATOM     12  N   UNL     1      -7.347   2.580  -4.737  0.00  0.00    -0.314 N 
ATOM     13  C   UNL     1      -7.846   1.446  -5.240  0.00  0.00    +0.233 C 
ATOM     14  O   UNL     1      -9.037   1.343  -5.444  0.00  0.00    -0.274 OA
ATOM     15  H   UNL     1      -7.942   3.320  -4.538  0.00  0.00    +0.149 HD
ENDBRANCH   4   7
BRANCH   1  18
ATOM     16  C   UNL     1      -3.548  -0.655  -1.276  0.00  0.00    +0.229 C 
ATOM     17  O   UNL     1      -3.971  -1.238  -0.300  0.00  0.00    -0.274 OA
ATOM     18  N   UNL     1      -4.361  -0.420  -2.325  0.00  0.00    -0.233 N 
ATOM     19  H   UNL     1      -4.023   0.046  -3.106  0.00  0.00    +0.173 HD
BRANCH  16  20
ATOM     20  C   UNL     1      -2.114  -0.194  -1.316  0.00  0.00    +0.097 C 
BRANCH  20  21
ATOM     21  C   UNL     1      -1.417  -0.584  -0.011  0.00  0.00    +0.012 C 
BRANCH  21  23
ATOM     22  C   UNL     1       0.083   1.413  -0.093  0.00  0.00    +0.007 C 
ATOM     23  C   UNL     1       0.040  -0.116  -0.052  0.00  0.00    -0.017 C 
ATOM     24  C   UNL     1       0.770  -0.613   1.197  0.00  0.00    +0.007 C 
ENDBRANCH  21  23
ENDBRANCH  20  21
ENDBRANCH  16  20
ENDBRANCH   1  18
TORSDOF 5
