REMARK  Name = ZINC21176217
REMARK  6 active torsions:
REMARK  status: ('A' for Active; 'I' for Inactive)
REMARK    1  A    between atoms: N_14  and  C_18
REMARK    2  A    between atoms: C_18  and  C_19
REMARK    3  A    between atoms: N_21  and  C_22
REMARK    4  A    between atoms: C_27  and  S_28
REMARK    5  A    between atoms: S_28  and  C_29
REMARK    6  A    between atoms: C_29  and  C_30
REMARK                            x       y       z     vdW  Elec       q    Type
REMARK                         _______ _______ _______ _____ _____    ______ ____
ROOT
ATOM      1  C   UNL     1       1.156   3.148   0.010  0.00  0.00    +0.000 A 
ATOM      2  C   UNL     1       1.181   1.766   0.000  0.00  0.00    +0.000 A 
ATOM      3  C   UNL     1      -0.003   1.058   0.006  0.00  0.00    +0.006 A 
ATOM      4  C   UNL     1      -1.225   1.726   0.035  0.00  0.00    -0.012 A 
ATOM      5  C   UNL     1      -1.246   3.090   0.036  0.00  0.00    -0.042 A 
ATOM      6  C   UNL     1      -0.055   3.809   0.025  0.00  0.00    +0.004 A 
ATOM      7  C   UNL     1      -2.529   3.894   0.044  0.00  0.00    +0.035 C 
ATOM      8  C   UNL     1      -3.262   3.660   1.363  0.00  0.00    +0.005 C 
ATOM      9  C   UNL     1      -4.075   2.381   1.311  0.00  0.00    +0.003 C 
ATOM     10  C   UNL     1      -3.247   1.114   1.361  0.00  0.00    +0.040 C 
ATOM     11  C   UNL     1      -2.471   0.872   0.072  0.00  0.00    +0.138 C 
ATOM     12  C   UNL     1      -3.314   1.041  -1.158  0.00  0.00    +0.251 C 
ATOM     13  O   UNL     1      -3.949   2.006  -1.528  0.00  0.00    -0.272 OA
ATOM     14  N   UNL     1      -3.247  -0.140  -1.816  0.00  0.00    -0.215 N 
ATOM     15  C   UNL     1      -2.533  -1.042  -1.134  0.00  0.00    +0.310 C 
ATOM     16  O   UNL     1      -2.331  -2.177  -1.519  0.00  0.00    -0.252 OA
ATOM     17  N   UNL     1      -2.065  -0.548   0.026  0.00  0.00    -0.281 N 
ATOM     18  H   UNL     1      -1.490  -0.983   0.857  0.00  0.00    +0.152 HD
ENDROOT
BRANCH  14  19
ATOM     19  C   UNL     1      -3.878  -0.393  -3.113  0.00  0.00    +0.214 C 
BRANCH  19  20
ATOM     20  C   UNL     1      -2.914  -0.044  -4.218  0.00  0.00    +0.235 C 
ATOM     21  O   UNL     1      -1.808   0.375  -3.948  0.00  0.00    -0.274 OA
ATOM     22  N   UNL     1      -3.281  -0.196  -5.506  0.00  0.00    -0.283 N 
ATOM     23  H   UNL     1      -4.256  -0.644  -5.750  0.00  0.00    +0.155 HD
BRANCH  22  24
ATOM     24  C   UNL     1      -2.421   0.216  -6.533  0.00  0.00    +0.047 A 
ATOM     25  C   UNL     1      -1.049   0.098  -6.380  0.00  0.00    +0.024 A 
ATOM     26  C   UNL     1      -0.202   0.504  -7.394  0.00  0.00    +0.002 A 
ATOM     27  C   UNL     1      -0.720   1.030  -8.564  0.00  0.00    +0.001 A 
ATOM     28  C   UNL     1      -2.087   1.152  -8.726  0.00  0.00    +0.016 A 
ATOM     29  C   UNL     1      -2.945   0.741  -7.715  0.00  0.00    +0.030 A 
BRANCH  29  30
ATOM     30  S   UNL     1      -4.688   0.888  -7.921  0.00  0.00    -0.108 S 
BRANCH  30  31
ATOM     31  C   UNL     1      -4.876   1.605  -9.576  0.00  0.00    +0.192 C 
BRANCH  31  32
ATOM     32  C   UNL     1      -6.306   1.781  -9.876  0.00  0.00    +0.074 C 
ATOM     33  N   UNL     1      -7.410   1.918 -10.107  0.00  0.00    -0.196 NA
ENDBRANCH  31  32
ENDBRANCH  30  31
ENDBRANCH  29  30
ENDBRANCH  22  24
ENDBRANCH  19  20
ENDBRANCH  14  19
TORSDOF 6
