REMARK  Name = ZINC35137464
REMARK  15 active torsions:
REMARK  status: ('A' for Active; 'I' for Inactive)
REMARK    1  A    between atoms: C_1  and  C_2
REMARK    2  A    between atoms: C_2  and  C_3
REMARK    3  A    between atoms: C_3  and  C_4
REMARK    4  A    between atoms: C_4  and  N_5
REMARK    5  A    between atoms: N_5  and  C_6
REMARK    6  A    between atoms: C_6  and  C_7
REMARK    7  A    between atoms: N_9  and  C_10
REMARK    8  A    between atoms: C_12  and  C_21
REMARK    9  A    between atoms: N_14  and  C_15
REMARK   10  A    between atoms: C_21  and  C_22
REMARK   11  A    between atoms: C_21  and  C_23
REMARK   12  A    between atoms: C_21  and  C_24
REMARK   13  A    between atoms: N_27  and  C_28
REMARK   14  A    between atoms: C_29  and  C_35
REMARK   15  A    between atoms: C_33  and  C_34
REMARK                            x       y       z     vdW  Elec       q    Type
REMARK                         _______ _______ _______ _____ _____    ______ ____
ROOT
ATOM      1  C   UNL     1      -1.410  -3.208  -1.300  0.00  0.00    +0.236 C 
ATOM      2  O   UNL     1      -0.540  -3.193  -0.454  0.00  0.00    -0.274 OA
ATOM      3  N   UNL     1      -1.243  -3.930  -2.425  0.00  0.00    -0.269 N 
ATOM      4  H   UNL     1      -1.938  -3.942  -3.101  0.00  0.00    +0.156 HD
ENDROOT
BRANCH   3   5
ATOM      5  C   UNL     1      -0.070  -4.660  -2.618  0.00  0.00    +0.129 A 
ATOM      6  C   UNL     1       0.980  -4.739  -1.755  0.00  0.00    +0.069 A 
ATOM      7  C   UNL     1       1.945  -5.571  -2.330  0.00  0.00    +0.071 A 
ATOM      8  N   UNL     1       1.502  -5.981  -3.491  0.00  0.00    -0.169 NA
ATOM      9  N   UNL     1       0.231  -5.429  -3.700  0.00  0.00    -0.218 N 
BRANCH   9  10
ATOM     10  C   UNL     1      -0.583  -5.630  -4.823  0.00  0.00    +0.067 A 
ATOM     11  C   UNL     1      -1.963  -5.684  -4.681  0.00  0.00    +0.028 A 
ATOM     12  C   UNL     1      -2.762  -5.881  -5.790  0.00  0.00    +0.002 A 
ATOM     13  C   UNL     1      -2.189  -6.026  -7.040  0.00  0.00    +0.000 A 
ATOM     14  C   UNL     1      -0.815  -5.973  -7.184  0.00  0.00    +0.002 A 
ATOM     15  C   UNL     1      -0.011  -5.769  -6.080  0.00  0.00    +0.028 A 
ENDBRANCH   9  10
BRANCH   7  16
ATOM     16  C   UNL     1       3.272  -5.935  -1.716  0.00  0.00    +0.006 C 
ATOM     17  C   UNL     1       3.054  -6.954  -0.596  0.00  0.00    +0.017 C 
ATOM     18  C   UNL     1       4.181  -6.542  -2.787  0.00  0.00    +0.017 C 
ATOM     19  C   UNL     1       3.930  -4.678  -1.142  0.00  0.00    +0.017 C 
ENDBRANCH   7  16
ENDBRANCH   3   5
BRANCH   1  20
ATOM     20  C   UNL     1      -2.677  -2.419  -1.091  0.00  0.00    +0.205 C 
BRANCH  20  21
ATOM     21  N   UNL     1      -2.615  -1.726   0.198  0.00  0.00    -0.277 N 
ATOM     22  C   UNL     1      -3.076  -2.331   1.311  0.00  0.00    +0.307 C 
ATOM     23  O   UNL     1      -3.543  -3.452   1.244  0.00  0.00    -0.252 OA
ATOM     24  N   UNL     1      -3.018  -1.694   2.497  0.00  0.00    -0.269 N 
ATOM     25  H   UNL     1      -2.596  -0.823   2.560  0.00  0.00    +0.156 HD
BRANCH  24  26
ATOM     26  C   UNL     1      -3.569  -2.289   3.638  0.00  0.00    +0.041 A 
ATOM     27  C   UNL     1      -2.796  -2.450   4.780  0.00  0.00    -0.029 A 
ATOM     28  C   UNL     1      -3.342  -3.037   5.905  0.00  0.00    +0.005 A 
ATOM     29  C   UNL     1      -4.657  -3.464   5.894  0.00  0.00    +0.001 A 
ATOM     30  C   UNL     1      -5.429  -3.305   4.758  0.00  0.00    +0.005 A 
ATOM     31  C   UNL     1      -4.891  -2.714   3.632  0.00  0.00    -0.029 A 
ATOM     32  C   UNL     1      -5.735  -2.535   2.397  0.00  0.00    +0.045 C 
ATOM     33  C   UNL     1      -1.362  -1.985   4.793  0.00  0.00    +0.045 C 
ENDBRANCH  24  26
BRANCH  21  34
ATOM     34  C   UNL     1      -2.051  -0.376   0.278  0.00  0.00    +0.110 C 
BRANCH  34  35
ATOM     35  C   UNL     1      -3.163   0.653   0.068  0.00  0.00    +0.019 C 
BRANCH  35  37
ATOM     36  C   UNL     1      -3.687   3.093  -0.058  0.00  0.00    +0.004 C 
ATOM     37  C   UNL     1      -2.575   2.063   0.152  0.00  0.00    -0.002 C 
ENDBRANCH  35  37
ENDBRANCH  34  35
ENDBRANCH  21  34
ENDBRANCH  20  21
ENDBRANCH   1  20
TORSDOF 9
