REMARK  Name = ZINC20413890
REMARK  9 active torsions:
REMARK  status: ('A' for Active; 'I' for Inactive)
REMARK    1  A    between atoms: C_1  and  C_2
REMARK    2  A    between atoms: C_5  and  N_9
REMARK    3  A    between atoms: C_6  and  C_8
REMARK    4  A    between atoms: C_10  and  C_12
REMARK    5  A    between atoms: C_13  and  C_30
REMARK    6  A    between atoms: C_17  and  S_28
REMARK    7  A    between atoms: C_20  and  C_22
REMARK    8  A    between atoms: C_25  and  C_27
REMARK    9  A    between atoms: S_28  and  C_29
REMARK                            x       y       z     vdW  Elec       q    Type
REMARK                         _______ _______ _______ _____ _____    ______ ____
ROOT
ATOM      1  C   UNL     1      -2.443   3.626   7.058  0.00  0.00    +0.063 C 
ATOM      2  C   UNL     1      -1.627   3.866   8.095  0.00  0.00    +0.018 C 
ATOM      3  N   UNL     1      -2.092   4.332   9.300  0.00  0.00    -0.287 N 
ATOM      4  C   UNL     1      -3.399   4.798   9.343  0.00  0.00    +0.220 A 
ATOM      5  N   UNL     1      -4.016   5.482  10.268  0.00  0.00    -0.187 NA
ATOM      6  C   UNL     1      -5.278   5.721   9.881  0.00  0.00    +0.210 A 
ATOM      7  N   UNL     1      -5.472   5.182   8.696  0.00  0.00    -0.141 NA
ATOM      8  N   UNL     1      -4.271   4.576   8.330  0.00  0.00    -0.217 N 
ATOM      9  C   UNL     1      -3.932   3.835   7.119  0.00  0.00    +0.213 C 
ATOM     10  C   UNL     1      -0.149   3.619   7.931  0.00  0.00    +0.061 C 
ATOM     11  H   UNL     1      -1.436   4.325  10.183  0.00  0.00    +0.155 HD
ENDROOT
BRANCH   9  12
ATOM     12  C   UNL     1      -4.626   2.497   7.144  0.00  0.00    +0.134 A 
ATOM     13  C   UNL     1      -5.511   2.053   6.233  0.00  0.00    +0.047 A 
ATOM     14  C   UNL     1      -5.907   0.759   6.643  0.00  0.00    +0.045 A 
ATOM     15  C   UNL     1      -5.241   0.490   7.781  0.00  0.00    +0.102 A 
ATOM     16  O   UNL     1      -4.462   1.544   8.076  0.00  0.00    -0.462 OA
ATOM     17  C   UNL     1      -5.345  -0.781   8.583  0.00  0.00    +0.086 C 
ENDBRANCH   9  12
BRANCH   1  19
ATOM     18  N   UNL     1      -1.642   1.844   5.677  0.00  0.00    -0.281 N 
ATOM     19  C   UNL     1      -1.877   3.160   5.848  0.00  0.00    +0.248 C 
ATOM     20  O   UNL     1      -1.601   3.948   4.962  0.00  0.00    -0.270 OA
ATOM     21  H   UNL     1      -1.975   1.122   6.438  0.00  0.00    +0.155 HD
BRANCH  18  26
ATOM     22  C   UNL     1       1.058   0.025   1.032  0.00  0.00    +0.044 C 
ATOM     23  C   UNL     1       0.340   0.508   2.266  0.00  0.00    -0.050 A 
ATOM     24  C   UNL     1       0.534   1.802   2.714  0.00  0.00    +0.005 A 
ATOM     25  C   UNL     1      -0.122   2.248   3.845  0.00  0.00    +0.024 A 
ATOM     26  C   UNL     1      -0.977   1.395   4.532  0.00  0.00    +0.037 A 
ATOM     27  C   UNL     1      -1.169   0.097   4.079  0.00  0.00    -0.029 A 
ATOM     28  C   UNL     1      -0.514  -0.341   2.944  0.00  0.00    +0.008 A 
ATOM     29  C   UNL     1      -2.096  -0.831   4.820  0.00  0.00    +0.045 C 
ENDBRANCH  18  26
ENDBRANCH   1  19
BRANCH   6  30
ATOM     30  S   UNL     1      -6.482   6.613  10.809  0.00  0.00    -0.088 S 
ATOM     31  C   UNL     1      -5.605   7.085  12.325  0.00  0.00    +0.093 C 
ENDBRANCH   6  30
TORSDOF 4
