REMARK  Name = ZINC63383835
REMARK  6 active torsions:
REMARK  status: ('A' for Active; 'I' for Inactive)
REMARK    1  A    between atoms: C_1  and  C_2
REMARK    2  A    between atoms: C_2  and  C_4
REMARK    3  A    between atoms: C_2  and  N_10
REMARK    4  A    between atoms: C_13  and  C_20
REMARK    5  A    between atoms: C_27  and  O_32
REMARK    6  A    between atoms: O_32  and  C_33
REMARK                            x       y       z     vdW  Elec       q    Type
REMARK                         _______ _______ _______ _____ _____    ______ ____
ROOT
ATOM      1  N   UNL     1      -1.318  -0.634  -0.084  0.00  0.00    -0.253 N 
ATOM      2  C   UNL     1      -1.568  -1.534  -1.055  0.00  0.00    +0.266 A 
ATOM      3  O   UNL     1      -0.701  -1.824  -1.861  0.00  0.00    -0.267 OA
ATOM      4  C   UNL     1      -2.836  -2.136  -1.133  0.00  0.00    +0.100 A 
ATOM      5  C   UNL     1      -3.789  -1.795  -0.219  0.00  0.00    +0.263 A 
ATOM      6  N   UNL     1      -3.492  -0.874   0.754  0.00  0.00    -0.274 N 
ATOM      7  H   UNL     1      -4.166  -0.628   1.406  0.00  0.00    +0.173 HD
ATOM      8  C   UNL     1      -2.270  -0.314   0.812  0.00  0.00    +0.333 A 
ATOM      9  O   UNL     1      -2.023   0.496   1.685  0.00  0.00    -0.246 OA
ATOM     10  O   UNL     1      -5.014  -2.358  -0.272  0.00  0.00    -0.267 OA
ENDROOT
BRANCH   4  11
ATOM     11  C   UNL     1      -3.138  -3.144  -2.211  0.00  0.00    +0.121 C 
ATOM     12  C   UNL     1      -2.258  -4.382  -2.022  0.00  0.00    +0.128 C 
ATOM     13  C   UNL     1      -2.501  -5.268  -3.238  0.00  0.00    -0.035 C 
ATOM     14  C   UNL     1      -2.848  -6.459  -2.772  0.00  0.00    +0.003 A 
ATOM     15  C   UNL     1      -3.122  -7.738  -3.444  0.00  0.00    +0.055 A 
ATOM     16  C   UNL     1      -3.475  -8.784  -2.647  0.00  0.00    +0.121 A 
ATOM     17  C   UNL     1      -3.586  -8.704  -1.252  0.00  0.00    +0.047 A 
ATOM     18  C   UNL     1      -3.351  -7.578  -0.530  0.00  0.00    +0.029 A 
ATOM     19  C   UNL     1      -2.956  -6.379  -1.282  0.00  0.00    +0.043 A 
ATOM     20  N   UNL     1      -2.644  -5.173  -0.853  0.00  0.00    -0.376 N 
ATOM     21  C   UNL     1      -2.423  -4.722  -4.643  0.00  0.00    +0.048 C 
ATOM     22  C   UNL     1      -3.249  -3.423  -4.646  0.00  0.00    +0.086 C 
ATOM     23  N   UNL     1      -2.843  -2.563  -3.531  0.00  0.00    -0.307 NA
ATOM     24  H   UNL     1      -3.245  -1.642  -3.618  0.00  0.00    +0.123 HD
ATOM     25  H   UNL     1      -2.667  -4.857   0.064  0.00  0.00    +0.160 HD
BRANCH  16  26
ATOM     26  O   UNL     1      -3.735  -9.979  -3.241  0.00  0.00    -0.495 OA
ATOM     27  C   UNL     1      -4.103 -11.062  -2.384  0.00  0.00    +0.277 C 
ENDBRANCH  16  26
ENDBRANCH   4  11
BRANCH   1  29
ATOM     28  C   UNL     1       1.062  -1.075   0.272  0.00  0.00    +0.036 C 
ATOM     29  C   UNL     1       0.002  -0.004   0.002  0.00  0.00    +0.122 C 
BRANCH  29  30
ATOM     30  C   UNL     1       0.311   0.693  -1.298  0.00  0.00    -0.025 A 
ATOM     31  C   UNL     1      -0.696   1.331  -1.997  0.00  0.00    +0.005 A 
ATOM     32  C   UNL     1      -0.412   1.970  -3.189  0.00  0.00    +0.000 A 
ATOM     33  C   UNL     1       0.879   1.971  -3.683  0.00  0.00    +0.000 A 
ATOM     34  C   UNL     1       1.886   1.333  -2.983  0.00  0.00    +0.000 A 
ATOM     35  C   UNL     1       1.604   0.698  -1.789  0.00  0.00    +0.005 A 
ENDBRANCH  29  30
ENDBRANCH   1  29
TORSDOF 4
