REMARK  Name = ZINC42908954
REMARK  9 active torsions:
REMARK  status: ('A' for Active; 'I' for Inactive)
REMARK    1  A    between atoms: C_1  and  C_2
REMARK    2  A    between atoms: C_5  and  C_8
REMARK    3  A    between atoms: C_8  and  C_10
REMARK    4  A    between atoms: C_8  and  N_14
REMARK    5  A    between atoms: C_10  and  C_12
REMARK    6  A    between atoms: C_10  and  N_13
REMARK    7  A    between atoms: N_14  and  C_15
REMARK    8  A    between atoms: N_14  and  C_16
REMARK    9  A    between atoms: C_16  and  C_17
REMARK                            x       y       z     vdW  Elec       q    Type
REMARK                         _______ _______ _______ _____ _____    ______ ____
ROOT
ATOM      1  C   UNL     1       0.052  -4.048   0.135  0.00  0.00    +0.072 C 
ENDROOT
BRANCH   1   6
ATOM      2  C   UNL     1       1.569   1.524   0.362  0.00  0.00    +0.044 C 
ATOM      3  C   UNL     1       1.173   0.071   0.303  0.00  0.00    -0.050 A 
ATOM      4  C   UNL     1       0.867  -0.513  -0.912  0.00  0.00    +0.003 A 
ATOM      5  C   UNL     1       0.504  -1.846  -0.966  0.00  0.00    +0.005 A 
ATOM      6  C   UNL     1       0.449  -2.595   0.194  0.00  0.00    -0.032 A 
ATOM      7  C   UNL     1       0.756  -2.011   1.409  0.00  0.00    +0.005 A 
ATOM      8  C   UNL     1       1.123  -0.679   1.463  0.00  0.00    +0.003 A 
ENDBRANCH   1   6
BRANCH   1   9
ATOM      9  C   UNL     1      -1.418  -4.192   0.534  0.00  0.00    -0.056 C 
ATOM     10  C   UNL     1      -2.283  -3.332  -0.390  0.00  0.00    -0.012 C 
BRANCH   9  11
ATOM     11  N   UNL     1      -1.594  -3.748   1.923  0.00  0.00    +0.381 N 
ATOM     12  H   UNL     1      -1.317  -2.782   2.005  0.00  0.00    -0.090 HD
ATOM     13  H   UNL     1      -2.564  -3.844   2.186  0.00  0.00    -0.090 HD
ATOM     14  H   UNL     1      -1.024  -4.315   2.532  0.00  0.00    -0.090 HD
ENDBRANCH   9  11
ENDBRANCH   1   9
BRANCH   1  15
ATOM     15  N   UNL     1       0.889  -4.821   1.062  0.00  0.00    -0.296 NA
ATOM     16  C   UNL     1       2.314  -4.663   0.742  0.00  0.00    +0.105 C 
BRANCH  15  17
ATOM     17  C   UNL     1       0.504  -6.239   1.060  0.00  0.00    +0.119 C 
BRANCH  17  18
ATOM     18  C   UNL     1       1.148  -6.936   2.231  0.00  0.00    -0.033 A 
ATOM     19  C   UNL     1       2.399  -7.508   2.091  0.00  0.00    +0.006 A 
ATOM     20  C   UNL     1       2.990  -8.147   3.165  0.00  0.00    +0.015 A 
ATOM     21  C   UNL     1       2.331  -8.214   4.379  0.00  0.00    +0.018 A 
ATOM     22  C   UNL     1       1.080  -7.641   4.518  0.00  0.00    +0.015 A 
ATOM     23  C   UNL     1       0.491  -6.997   3.446  0.00  0.00    +0.006 A 
ATOM     24 BR   UNL     1       3.139  -9.088   5.848  0.00  0.00    -0.050 Br
ENDBRANCH  17  18
ENDBRANCH  15  17
ENDBRANCH   1  15
TORSDOF 6
