REMARK  Name = ZINC13147680
REMARK  17 active torsions:
REMARK  status: ('A' for Active; 'I' for Inactive)
REMARK    1  A    between atoms: C_1  and  C_2
REMARK    2  A    between atoms: C_2  and  O_3
REMARK    3  A    between atoms: O_3  and  C_4
REMARK    4  A    between atoms: C_4  and  C_6
REMARK    5  A    between atoms: C_7  and  C_35
REMARK    6  A    between atoms: C_8  and  C_32
REMARK    7  A    between atoms: C_10  and  N_11
REMARK    8  A    between atoms: C_12  and  C_14
REMARK    9  A    between atoms: C_14  and  S_15
REMARK   10  A    between atoms: S_15  and  C_16
REMARK   11  A    between atoms: C_19  and  C_22
REMARK   12  A    between atoms: N_20  and  C_21
REMARK   13  A    between atoms: C_25  and  C_28
REMARK   14  A    between atoms: C_28  and  C_29
REMARK   15  A    between atoms: C_28  and  C_30
REMARK   16  A    between atoms: C_28  and  C_31
REMARK   17  A    between atoms: C_32  and  C_34
REMARK                            x       y       z     vdW  Elec       q    Type
REMARK                         _______ _______ _______ _____ _____    ______ ____
ROOT
ATOM      1  N   UNL     1      -1.768   2.022   1.141  0.00  0.00    -0.279 N 
ATOM      2  C   UNL     1      -1.437   3.322   1.006  0.00  0.00    +0.228 C 
ATOM      3  O   UNL     1      -0.280   3.668   1.113  0.00  0.00    -0.275 OA
ATOM      4  H   UNL     1      -2.693   1.746   1.055  0.00  0.00    +0.155 HD
ENDROOT
BRANCH   1   9
ATOM      5  C   UNL     1      -0.931  -0.298   1.571  0.00  0.00    +0.091 A 
ATOM      6  C   UNL     1       0.211  -1.039   1.820  0.00  0.00    -0.017 A 
ATOM      7  C   UNL     1       1.412  -0.356   1.881  0.00  0.00    +0.060 A 
ATOM      8  S   UNL     1       0.917   1.331   1.586  0.00  0.00    -0.070 S 
ATOM      9  C   UNL     1      -0.789   1.085   1.400  0.00  0.00    +0.087 A 
ATOM     10  C   UNL     1       0.148  -2.532   2.017  0.00  0.00    +0.046 C 
BRANCH   7  11
ATOM     11  C   UNL     1       2.706  -0.866   2.118  0.00  0.00    +0.167 C 
ATOM     12  O   UNL     1       2.865  -2.056   2.302  0.00  0.00    -0.292 OA
ATOM     13  C   UNL     1       3.890   0.066   2.143  0.00  0.00    +0.092 C 
ENDBRANCH   7  11
BRANCH   5  14
ATOM     14  C   UNL     1      -2.248  -0.940   1.490  0.00  0.00    +0.342 C 
ATOM     15  O   UNL     1      -2.661  -1.348   0.421  0.00  0.00    -0.245 OA
BRANCH  14  16
ATOM     16  O   UNL     1      -3.001  -1.077   2.600  0.00  0.00    -0.461 OA
BRANCH  16  18
ATOM     17  C   UNL     1      -4.996  -1.786   3.802  0.00  0.00    +0.048 C 
ATOM     18  C   UNL     1      -4.293  -1.721   2.445  0.00  0.00    +0.229 C 
ENDBRANCH  16  18
ENDBRANCH  14  16
ENDBRANCH   5  14
ENDBRANCH   1   9
BRANCH   2  19
ATOM     19  C   UNL     1      -2.507   4.345   0.723  0.00  0.00    +0.173 C 
BRANCH  19  20
ATOM     20  S   UNL     1      -1.753   5.986   0.598  0.00  0.00    -0.077 S 
BRANCH  20  21
ATOM     21  C   UNL     1      -3.187   6.958   0.273  0.00  0.00    +0.192 A 
ATOM     22  N   UNL     1      -4.420   6.515   0.164  0.00  0.00    -0.122 NA
ATOM     23  N   UNL     1      -5.220   7.493  -0.072  0.00  0.00    -0.128 NA
ATOM     24  C   UNL     1      -4.546   8.618  -0.137  0.00  0.00    +0.165 A 
ATOM     25  N   UNL     1      -3.223   8.309   0.082  0.00  0.00    -0.305 N 
ATOM     26  C   UNL     1      -2.090   9.238   0.107  0.00  0.00    +0.153 C 
BRANCH  24  27
ATOM     27  C   UNL     1      -5.104   9.962  -0.396  0.00  0.00    +0.019 A 
ATOM     28  C   UNL     1      -6.461  10.210  -0.188  0.00  0.00    +0.012 A 
ATOM     29  C   UNL     1      -6.974  11.469  -0.427  0.00  0.00    +0.005 A 
ATOM     30  C   UNL     1      -6.148  12.480  -0.883  0.00  0.00    -0.042 A 
ATOM     31  C   UNL     1      -4.802  12.240  -1.097  0.00  0.00    +0.005 A 
ATOM     32  C   UNL     1      -4.276  10.988  -0.856  0.00  0.00    +0.012 A 
BRANCH  30  33
ATOM     33  C   UNL     1      -6.716  13.851  -1.148  0.00  0.00    -0.013 C 
ATOM     34  C   UNL     1      -6.502  14.216  -2.618  0.00  0.00    +0.015 C 
ATOM     35  C   UNL     1      -8.214  13.851  -0.835  0.00  0.00    +0.015 C 
ATOM     36  C   UNL     1      -6.009  14.877  -0.260  0.00  0.00    +0.015 C 
ENDBRANCH  30  33
ENDBRANCH  24  27
ENDBRANCH  20  21
ENDBRANCH  19  20
ENDBRANCH   2  19
TORSDOF 10
