REMARK  Name = ZINC40158516
REMARK  9 active torsions:
REMARK  status: ('A' for Active; 'I' for Inactive)
REMARK    1  A    between atoms: C_1  and  C_2
REMARK    2  A    between atoms: C_3  and  C_11
REMARK    3  A    between atoms: C_11  and  C_12
REMARK    4  A    between atoms: C_12  and  N_13
REMARK    5  A    between atoms: C_14  and  C_16
REMARK    6  A    between atoms: C_16  and  S_17
REMARK    7  A    between atoms: S_17  and  C_18
REMARK    8  A    between atoms: C_21  and  C_29
REMARK    9  A    between atoms: N_22  and  C_23
REMARK                            x       y       z     vdW  Elec       q    Type
REMARK                         _______ _______ _______ _____ _____    ______ ____
ROOT
ATOM      1  C   UNL     1      -2.653   0.895  -6.475  0.00  0.00    +0.173 C 
ENDROOT
BRANCH   1   3
ATOM      2  N   UNL     1      -1.466   0.248  -4.404  0.00  0.00    -0.314 N 
ATOM      3  C   UNL     1      -2.639   0.437  -5.040  0.00  0.00    +0.223 C 
ATOM      4  O   UNL     1      -3.684   0.238  -4.457  0.00  0.00    -0.275 OA
ATOM      5  H   UNL     1      -0.630   0.407  -4.870  0.00  0.00    +0.149 HD
BRANCH   2   6
ATOM      6  C   UNL     1      -1.453  -0.197  -3.008  0.00  0.00    +0.110 C 
BRANCH   6   7
ATOM      7  C   UNL     1      -0.006  -0.332  -2.530  0.00  0.00    +0.074 C 
BRANCH   7  10
ATOM      8  C   UNL     1      -0.018   1.503   0.010  0.00  0.00    +0.065 C 
ATOM      9  C   UNL     1       0.002  -0.004   0.002  0.00  0.00    +0.034 A 
ATOM     10  C   UNL     1       0.008  -0.790  -1.094  0.00  0.00    +0.040 A 
ATOM     11  N   UNL     1       0.028  -2.079  -0.651  0.00  0.00    -0.333 N 
ATOM     12  C   UNL     1       0.033  -2.042   0.703  0.00  0.00    +0.087 A 
ATOM     13  N   UNL     1       0.024  -0.798   1.085  0.00  0.00    -0.347 N 
ATOM     14  C   UNL     1       0.051  -3.271   1.581  0.00  0.00    +0.072 C 
ATOM     15  C   UNL     1      -0.337  -4.481   0.721  0.00  0.00    +0.009 C 
ATOM     16  C   UNL     1       0.492  -4.470  -0.567  0.00  0.00    +0.022 C 
ATOM     17  C   UNL     1       0.043  -3.304  -1.454  0.00  0.00    +0.123 C 
ATOM     18  H   UNL     1       0.029  -0.493   2.005  0.00  0.00    +0.167 HD
ENDBRANCH   7  10
ENDBRANCH   6   7
ENDBRANCH   2   6
ENDBRANCH   1   3
BRANCH   1  19
ATOM     19  S   UNL     1      -4.368   1.055  -7.043  0.00  0.00    -0.076 S 
BRANCH  19  20
ATOM     20  C   UNL     1      -4.216   1.590  -8.714  0.00  0.00    +0.197 A 
ATOM     21  N   UNL     1      -3.095   1.806  -9.366  0.00  0.00    -0.122 NA
ATOM     22  N   UNL     1      -3.347   2.188 -10.566  0.00  0.00    -0.128 NA
ATOM     23  C   UNL     1      -4.644   2.241 -10.758  0.00  0.00    +0.169 A 
ATOM     24  N   UNL     1      -5.243   1.854  -9.579  0.00  0.00    -0.270 N 
BRANCH  24  25
ATOM     25  C   UNL     1      -6.617   1.754  -9.319  0.00  0.00    +0.051 A 
ATOM     26  C   UNL     1      -7.386   0.813  -9.991  0.00  0.00    +0.026 A 
ATOM     27  C   UNL     1      -8.739   0.717  -9.732  0.00  0.00    +0.002 A 
ATOM     28  C   UNL     1      -9.329   1.557  -8.806  0.00  0.00    +0.000 A 
ATOM     29  C   UNL     1      -8.566   2.496  -8.135  0.00  0.00    +0.002 A 
ATOM     30  C   UNL     1      -7.211   2.592  -8.385  0.00  0.00    +0.026 A 
ENDBRANCH  24  25
BRANCH  23  31
ATOM     31  C   UNL     1      -5.333   2.635 -12.005  0.00  0.00    +0.020 A 
ATOM     32  C   UNL     1      -6.692   2.954 -11.985  0.00  0.00    +0.011 A 
ATOM     33  C   UNL     1      -7.328   3.323 -13.152  0.00  0.00    +0.001 A 
ATOM     34  C   UNL     1      -6.622   3.376 -14.341  0.00  0.00    +0.000 A 
ATOM     35  C   UNL     1      -5.276   3.060 -14.368  0.00  0.00    +0.001 A 
ATOM     36  C   UNL     1      -4.626   2.696 -13.207  0.00  0.00    +0.011 A 
ENDBRANCH  23  31
ENDBRANCH  19  20
ENDBRANCH   1  19
TORSDOF 8
