REMARK  Name = ZINC09218981
REMARK  11 active torsions:
REMARK  status: ('A' for Active; 'I' for Inactive)
REMARK    1  A    between atoms: C_1  and  C_2
REMARK    2  A    between atoms: C_7  and  N_8
REMARK    3  A    between atoms: C_9  and  C_26
REMARK    4  A    between atoms: C_12  and  S_13
REMARK    5  A    between atoms: S_13  and  C_14
REMARK    6  A    between atoms: C_14  and  C_15
REMARK    7  A    between atoms: N_20  and  C_21
REMARK    8  A    between atoms: C_21  and  C_22
REMARK    9  A    between atoms: C_22  and  C_23
REMARK   10  A    between atoms: C_23  and  C_24
REMARK   11  A    between atoms: C_23  and  C_25
REMARK                            x       y       z     vdW  Elec       q    Type
REMARK                         _______ _______ _______ _____ _____    ______ ____
ROOT
ATOM      1  N   UNL     1       2.439  -2.889   0.244  0.00  0.00    -0.270 N 
ATOM      2  C   UNL     1       1.322  -2.127  -0.022  0.00  0.00    +0.171 A 
ATOM      3  N   UNL     1       0.343  -2.959  -0.292  0.00  0.00    -0.128 NA
ATOM      4  N   UNL     1       0.761  -4.171  -0.208  0.00  0.00    -0.122 NA
ATOM      5  C   UNL     1       2.034  -4.190   0.120  0.00  0.00    +0.197 A 
ENDROOT
BRANCH   1  12
ATOM      6  C   UNL     1       4.286  -2.412  -1.868  0.00  0.00    +0.046 C 
ATOM      7  C   UNL     1       4.652  -2.183  -0.424  0.00  0.00    -0.026 A 
ATOM      8  C   UNL     1       5.912  -1.725  -0.094  0.00  0.00    +0.005 A 
ATOM      9  C   UNL     1       6.250  -1.520   1.230  0.00  0.00    +0.000 A 
ATOM     10  C   UNL     1       5.327  -1.769   2.229  0.00  0.00    +0.002 A 
ATOM     11  C   UNL     1       4.063  -2.222   1.905  0.00  0.00    +0.026 A 
ATOM     12  C   UNL     1       3.720  -2.429   0.576  0.00  0.00    +0.053 A 
ENDBRANCH   1  12
BRANCH   2  13
ATOM     13  C   UNL     1       1.244  -0.651  -0.013  0.00  0.00    +0.038 A 
ATOM     14  C   UNL     1       0.002  -0.004   0.002  0.00  0.00    +0.014 A 
ATOM     15  C   UNL     1      -0.017   1.379   0.010  0.00  0.00    +0.020 A 
ATOM     16  C   UNL     1       1.180   2.073   0.002  0.00  0.00    +0.111 A 
ATOM     17  N   UNL     1       2.336   1.437  -0.013  0.00  0.00    -0.263 NA
ATOM     18  C   UNL     1       2.406   0.122  -0.020  0.00  0.00    +0.122 A 
ENDBRANCH   2  13
BRANCH   5  19
ATOM     19  S   UNL     1       3.033  -5.623   0.350  0.00  0.00    -0.076 S 
BRANCH  19  20
ATOM     20  C   UNL     1       1.812  -6.915   0.009  0.00  0.00    +0.173 C 
BRANCH  20  21
ATOM     21  C   UNL     1       2.461  -8.268   0.150  0.00  0.00    +0.231 C 
ATOM     22  O   UNL     1       3.632  -8.351   0.452  0.00  0.00    -0.274 OA
ATOM     23  N   UNL     1       1.738  -9.387  -0.058  0.00  0.00    -0.240 N 
ATOM     24  C   UNL     1       2.318 -10.597   0.068  0.00  0.00    +0.306 C 
ATOM     25  O   UNL     1       3.493 -10.680   0.370  0.00  0.00    -0.252 OA
ATOM     26  N   UNL     1       1.596 -11.716  -0.140  0.00  0.00    -0.299 N 
ATOM     27  H   UNL     1       0.801  -9.321  -0.299  0.00  0.00    +0.159 HD
ATOM     28  H   UNL     1       0.658 -11.650  -0.381  0.00  0.00    +0.150 HD
BRANCH  26  29
ATOM     29  C   UNL     1       2.226 -13.031  -0.003  0.00  0.00    +0.106 C 
BRANCH  29  30
ATOM     30  C   UNL     1       1.194 -14.123  -0.291  0.00  0.00    +0.022 C 
BRANCH  30  31
ATOM     31  C   UNL     1       1.853 -15.497  -0.148  0.00  0.00    -0.016 C 
ATOM     32  C   UNL     1       0.794 -16.590  -0.313  0.00  0.00    +0.007 C 
ATOM     33  C   UNL     1       2.928 -15.662  -1.224  0.00  0.00    +0.007 C 
ENDBRANCH  30  31
ENDBRANCH  29  30
ENDBRANCH  26  29
ENDBRANCH  20  21
ENDBRANCH  19  20
ENDBRANCH   5  19
TORSDOF 8
