REMARK  Name = ZINC61886296
REMARK  4 active torsions:
REMARK  status: ('A' for Active; 'I' for Inactive)
REMARK    1  A    between atoms: C_5  and  C_6
REMARK    2  A    between atoms: N_8  and  C_9
REMARK    3  A    between atoms: C_14  and  C_16
REMARK    4  A    between atoms: N_17  and  O_18
REMARK                            x       y       z     vdW  Elec       q    Type
REMARK                         _______ _______ _______ _____ _____    ______ ____
ROOT
ATOM      1  C   UNL     1      -0.897  -1.015  -0.246  0.00  0.00    +0.251 C 
ATOM      2  O   UNL     1      -2.010  -0.524  -0.196  0.00  0.00    -0.270 OA
ATOM      3  N   UNL     1      -0.752  -2.355  -0.251  0.00  0.00    -0.307 N 
ATOM      4  H   UNL     1       0.135  -2.746  -0.218  0.00  0.00    +0.149 HD
ENDROOT
BRANCH   1   9
ATOM      5  C   UNL     1       0.352   1.226  -0.399  0.00  0.00    +0.024 A 
ATOM      6  C   UNL     1       1.627   1.794  -0.431  0.00  0.00    -0.036 A 
ATOM      7  C   UNL     1       2.677   0.936  -0.364  0.00  0.00    -0.006 A 
ATOM      8  S   UNL     1       2.008  -0.596  -0.254  0.00  0.00    -0.088 S 
ATOM      9  C   UNL     1       0.284  -0.149  -0.300  0.00  0.00    +0.074 A 
ATOM     10  C   UNL     1       3.996   1.663  -0.414  0.00  0.00    +0.043 C 
ATOM     11  C   UNL     1       3.649   3.065  -0.959  0.00  0.00    +0.010 C 
ATOM     12  C   UNL     1       2.177   3.219  -0.527  0.00  0.00    +0.036 C 
ENDBRANCH   1   9
BRANCH   3  13
ATOM     13  C   UNL     1      -1.933  -3.220  -0.306  0.00  0.00    +0.083 C 
ATOM     14  C   UNL     1      -2.277  -3.549  -1.769  0.00  0.00    +0.023 C 
ATOM     15  C   UNL     1      -2.178  -5.082  -1.911  0.00  0.00    +0.003 C 
ATOM     16  C   UNL     1      -1.225  -5.508  -0.766  0.00  0.00    +0.013 C 
ATOM     17  C   UNL     1      -1.636  -4.564   0.392  0.00  0.00    +0.076 C 
BRANCH  17  18
ATOM     18  C   UNL     1      -0.505  -4.409   1.375  0.00  0.00    +0.136 C 
ATOM     19  N   UNL     1      -0.759  -4.188   2.622  0.00  0.00    -0.076 NA
ATOM     20  N   UNL     1       0.800  -4.504   0.944  0.00  0.00    -0.344 N 
ATOM     21  H   UNL     1       0.990  -4.670   0.008  0.00  0.00    +0.144 HD
ATOM     22  H   UNL     1       1.528  -4.405   1.577  0.00  0.00    +0.144 HD
BRANCH  19  23
ATOM     23  O   UNL     1      -2.097  -4.197   3.085  0.00  0.00    -0.408 OA
ATOM     24  H   UNL     1      -2.193  -3.946   4.014  0.00  0.00    +0.328 HD
ENDBRANCH  19  23
ENDBRANCH  17  18
ENDBRANCH   3  13
TORSDOF 4
