REMARK  Name = ZINC08742819
REMARK  19 active torsions:
REMARK  status: ('A' for Active; 'I' for Inactive)
REMARK    1  A    between atoms: C_1  and  C_2
REMARK    2  A    between atoms: C_2  and  C_3
REMARK    3  A    between atoms: C_3  and  C_4
REMARK    4  A    between atoms: C_4  and  N_75
REMARK    5  A    between atoms: C_5  and  C_6
REMARK    6  A    between atoms: C_5  and  N_75
REMARK    7  A    between atoms: C_6  and  C_7
REMARK    8  A    between atoms: C_7  and  C_8
REMARK    9  A    between atoms: C_9  and  N_10
REMARK   10  A    between atoms: C_9  and  N_75
REMARK   11  A    between atoms: N_18  and  N_19
REMARK   12  A    between atoms: C_20  and  C_22
REMARK   13  A    between atoms: C_22  and  O_23
REMARK   14  A    between atoms: O_23  and  N_24
REMARK   15  A    between atoms: C_25  and  C_26
REMARK   16  A    between atoms: C_29  and  O_34
REMARK   17  A    between atoms: C_30  and  O_32
REMARK   18  A    between atoms: O_32  and  C_33
REMARK   19  A    between atoms: O_34  and  C_35
REMARK                            x       y       z     vdW  Elec       q    Type
REMARK                         _______ _______ _______ _____ _____    ______ ____
ROOT
ATOM      1  N   UNL     1      -1.798   6.494   4.412  0.00  0.00    -0.282 N 
ATOM      2  C   UNL     1      -1.161   6.531   3.176  0.00  0.00    +0.044 A 
ATOM      3  C   UNL     1      -0.862   7.586   2.322  0.00  0.00    +0.024 A 
ATOM      4  C   UNL     1      -0.195   7.351   1.137  0.00  0.00    +0.002 A 
ATOM      5  C   UNL     1       0.173   6.065   0.778  0.00  0.00    +0.001 A 
ATOM      6  C   UNL     1      -0.120   5.003   1.611  0.00  0.00    +0.012 A 
ATOM      7  C   UNL     1      -0.784   5.232   2.811  0.00  0.00    +0.028 A 
ATOM      8  C   UNL     1      -1.237   4.341   3.905  0.00  0.00    +0.153 C 
ATOM      9  N   UNL     1      -1.099   3.041   3.984  0.00  0.00    -0.174 NA
ATOM     10  C   UNL     1      -1.873   5.240   4.889  0.00  0.00    +0.270 C 
ATOM     11  O   UNL     1      -2.376   4.905   5.946  0.00  0.00    -0.268 OA
ENDROOT
BRANCH   9  12
ATOM     12  N   UNL     1      -0.346   2.356   3.022  0.00  0.00    -0.203 N 
ATOM     13  C   UNL     1      -0.134   1.031   3.149  0.00  0.00    +0.272 C 
ATOM     14  O   UNL     1      -0.595   0.432   4.096  0.00  0.00    -0.270 OA
ATOM     15  H   UNL     1       0.023   2.836   2.263  0.00  0.00    +0.177 HD
BRANCH  13  16
ATOM     16  C   UNL     1       0.676   0.295   2.113  0.00  0.00    +0.359 C 
BRANCH  16  17
ATOM     17  O   UNL     1       0.759  -1.087   2.467  0.00  0.00    -0.384 OA
BRANCH  17  18
ATOM     18  N   UNL     1       1.503  -1.872   1.553  0.00  0.00    -0.092 NA
ATOM     19  C   UNL     1       1.652  -3.141   1.762  0.00  0.00    +0.161 C 
BRANCH  19  20
ATOM     20  C   UNL     1       2.427  -3.959   0.810  0.00  0.00    -0.000 A 
ATOM     21  C   UNL     1       3.002  -3.366  -0.317  0.00  0.00    +0.013 A 
ATOM     22  C   UNL     1       3.726  -4.131  -1.205  0.00  0.00    +0.050 A 
ATOM     23  C   UNL     1       3.887  -5.492  -0.983  0.00  0.00    +0.162 A 
ATOM     24  C   UNL     1       3.317  -6.090   0.139  0.00  0.00    +0.162 A 
ATOM     25  C   UNL     1       2.594  -5.327   1.036  0.00  0.00    +0.059 A 
BRANCH  24  26
ATOM     26  O   UNL     1       3.476  -7.423   0.353  0.00  0.00    -0.491 OA
ATOM     27  C   UNL     1       2.864  -7.970   1.524  0.00  0.00    +0.277 C 
ENDBRANCH  24  26
BRANCH  23  28
ATOM     28  O   UNL     1       4.603  -6.242  -1.861  0.00  0.00    -0.491 OA
ATOM     29  C   UNL     1       5.160  -5.565  -2.990  0.00  0.00    +0.277 C 
ENDBRANCH  23  28
ENDBRANCH  19  20
ENDBRANCH  17  18
ENDBRANCH  16  17
ENDBRANCH  13  16
ENDBRANCH   9  12
BRANCH   1  30
ATOM     30  C   UNL     1      -2.321   7.674   5.105  0.00  0.00    +0.039 C 
BRANCH  30  31
ATOM     31  N   UNL     1      -1.260   8.214   5.981  0.00  0.00    +0.390 N 
ATOM     32  H   UNL     1      -0.687   7.437   6.329  0.00  0.00    -0.080 HD
BRANCH  31  33
ATOM     33  C   UNL     1      -0.399   9.142   5.218  0.00  0.00    -0.077 C 
BRANCH  33  34
ATOM     34  C   UNL     1      -1.197  10.368   4.769  0.00  0.00    -0.019 C 
BRANCH  34  36
ATOM     35  C   UNL     1      -1.086  12.528   3.517  0.00  0.00    +0.004 C 
ATOM     36  C   UNL     1      -0.288  11.302   3.966  0.00  0.00    -0.005 C 
ENDBRANCH  34  36
ENDBRANCH  33  34
ENDBRANCH  31  33
BRANCH  31  37
ATOM     37  C   UNL     1      -1.865   8.918   7.132  0.00  0.00    -0.077 C 
BRANCH  37  38
ATOM     38  C   UNL     1      -0.754   9.320   8.105  0.00  0.00    -0.019 C 
BRANCH  38  39
ATOM     39  C   UNL     1      -1.375   9.909   9.373  0.00  0.00    -0.005 C 
ATOM     40  C   UNL     1      -0.265  10.311  10.345  0.00  0.00    +0.004 C 
ENDBRANCH  38  39
ENDBRANCH  37  38
ENDBRANCH  31  37
ENDBRANCH  30  31
ENDBRANCH   1  30
TORSDOF 15
