REMARK  Name = ZINC08684791
REMARK  6 active torsions:
REMARK  status: ('A' for Active; 'I' for Inactive)
REMARK    1  A    between atoms: C_1  and  C_2
REMARK    2  A    between atoms: C_5  and  C_8
REMARK    3  A    between atoms: C_8  and  C_10
REMARK    4  A    between atoms: C_12  and  C_30
REMARK    5  A    between atoms: C_22  and  C_29
REMARK    6  A    between atoms: C_34  and  N_36
REMARK                            x       y       z     vdW  Elec       q    Type
REMARK                         _______ _______ _______ _____ _____    ______ ____
ROOT
ATOM      1  C   UNL     1       0.122   1.817  -2.316  0.00  0.00    +0.069 C 
ATOM      2  C   UNL     1       0.027   1.260  -0.874  0.00  0.00    +0.016 C 
ATOM      3  C   UNL     1       1.493   1.033  -0.489  0.00  0.00    -0.047 C 
ATOM      4  C   UNL     1       1.706   1.026   1.027  0.00  0.00    +0.052 C 
ATOM      5  S   UNL     1       2.872   2.432   1.257  0.00  0.00    -0.181 S 
ATOM      6  C   UNL     1       2.703   3.181  -0.420  0.00  0.00    -0.005 C 
ATOM      7  C   UNL     1       1.529   2.416  -2.418  0.00  0.00    +0.052 C 
ATOM      8  C   UNL     1       1.424   3.909  -2.586  0.00  0.00    -0.027 A 
ATOM      9  C   UNL     1       0.829   4.909  -1.848  0.00  0.00    +0.008 A 
ATOM     10  C   UNL     1       0.909   6.226  -2.263  0.00  0.00    -0.050 A 
ATOM     11  C   UNL     1       1.569   6.539  -3.437  0.00  0.00    +0.005 A 
ATOM     12  C   UNL     1       2.137   5.540  -4.199  0.00  0.00    +0.024 A 
ATOM     13  C   UNL     1       2.053   4.210  -3.790  0.00  0.00    +0.036 A 
ATOM     14  N   UNL     1       2.511   3.042  -4.399  0.00  0.00    -0.286 N 
ATOM     15  C   UNL     1       2.267   1.950  -3.650  0.00  0.00    +0.212 C 
ATOM     16  O   UNL     1       2.633   0.823  -3.910  0.00  0.00    -0.277 OA
ATOM     17  C   UNL     1       0.281   7.318  -1.436  0.00  0.00    +0.044 C 
ATOM     18  H   UNL     1       2.953   3.018  -5.262  0.00  0.00    +0.155 HD
ATOM     19  N   UNL     1       2.308   1.989  -1.254  0.00  0.00    +0.401 N 
ATOM     20  H   UNL     1       3.162   1.518  -1.574  0.00  0.00    -0.078 HD
ENDROOT
BRANCH   2  21
ATOM     21  C   UNL     1      -0.739  -0.037  -0.855  0.00  0.00    -0.043 A 
ATOM     22  C   UNL     1      -0.098  -1.223  -1.161  0.00  0.00    +0.004 A 
ATOM     23  C   UNL     1      -0.800  -2.413  -1.139  0.00  0.00    +0.002 A 
ATOM     24  C   UNL     1      -2.145  -2.417  -0.820  0.00  0.00    +0.033 A 
ATOM     25  C   UNL     1      -2.788  -1.230  -0.520  0.00  0.00    +0.126 A 
ATOM     26  C   UNL     1      -2.084  -0.040  -0.537  0.00  0.00    +0.036 A 
BRANCH  25  27
ATOM     27  N   UNL     1      -4.228  -1.234  -0.179  0.00  0.00    +0.056 N 
ATOM     28  O   UNL     1      -4.794  -0.189   0.086  0.00  0.00    -0.126 OA
ATOM     29  O   UNL     1      -4.848  -2.283  -0.164  0.00  0.00    -0.126 OA
ENDBRANCH  25  27
ENDBRANCH   2  21
BRANCH   1  30
ATOM     30  C   UNL     1      -0.116   0.729  -3.324  0.00  0.00    +0.166 C 
ATOM     31  O   UNL     1       0.619  -0.234  -3.361  0.00  0.00    -0.292 OA
BRANCH  30  36
ATOM     32  C   UNL     1      -4.515   1.134  -7.003  0.00  0.00    +0.044 C 
ATOM     33  C   UNL     1      -3.362   1.028  -6.039  0.00  0.00    -0.050 A 
ATOM     34  C   UNL     1      -2.525  -0.073  -6.085  0.00  0.00    +0.004 A 
ATOM     35  C   UNL     1      -1.468  -0.178  -5.206  0.00  0.00    +0.011 A 
ATOM     36  C   UNL     1      -1.242   0.833  -4.266  0.00  0.00    +0.018 A 
ATOM     37  C   UNL     1      -2.096   1.940  -4.222  0.00  0.00    +0.011 A 
ATOM     38  C   UNL     1      -3.145   2.033  -5.112  0.00  0.00    +0.004 A 
ENDBRANCH  30  36
ENDBRANCH   1  30
TORSDOF 4
