REMARK  Name = ZINC00887701
REMARK  10 active torsions:
REMARK  status: ('A' for Active; 'I' for Inactive)
REMARK    1  A    between atoms: C_3  and  C_6
REMARK    2  A    between atoms: N_9  and  C_11
REMARK    3  A    between atoms: C_11  and  C_12
REMARK    4  A    between atoms: N_14  and  C_15
REMARK    5  A    between atoms: N_14  and  C_23
REMARK    6  A    between atoms: C_15  and  C_16
REMARK    7  A    between atoms: C_23  and  C_25
REMARK    8  A    between atoms: C_23  and  C_32
REMARK    9  A    between atoms: N_34  and  C_35
REMARK   10  A    between atoms: C_35  and  C_36
REMARK                            x       y       z     vdW  Elec       q    Type
REMARK                         _______ _______ _______ _____ _____    ______ ____
ROOT
ATOM      1  C   UNL     1       4.261  -2.718  -3.905  0.00  0.00    +0.240 C 
ATOM      2  O   UNL     1       4.624  -2.420  -2.787  0.00  0.00    -0.273 OA
ATOM      3  N   UNL     1       3.999  -4.005  -4.208  0.00  0.00    -0.280 N 
ENDROOT
BRANCH   1   4
ATOM      4  C   UNL     1       4.101  -1.649  -4.955  0.00  0.00    +0.264 C 
BRANCH   4   8
ATOM      5  C   UNL     1       5.825   1.253  -3.923  0.00  0.00    +0.211 A 
ATOM      6  N   UNL     1       4.585   1.501  -3.473  0.00  0.00    -0.107 NA
ATOM      7  N   UNL     1       3.850   0.493  -3.802  0.00  0.00    -0.045 NA
ATOM      8  N   UNL     1       4.576  -0.368  -4.425  0.00  0.00    -0.154 N 
ATOM      9  N   UNL     1       5.783   0.074  -4.514  0.00  0.00    -0.129 NA
BRANCH   5  12
ATOM     10  C   UNL     1       8.328   3.993  -3.174  0.00  0.00    +0.008 A 
ATOM     11  C   UNL     1       7.107   3.356  -3.183  0.00  0.00    +0.019 A 
ATOM     12  C   UNL     1       7.008   2.130  -3.783  0.00  0.00    +0.060 A 
ATOM     13  S   UNL     1       8.681   1.861  -4.347  0.00  0.00    -0.093 S 
ATOM     14  C   UNL     1       9.393   3.389  -3.760  0.00  0.00    +0.046 A 
ENDBRANCH   5  12
ENDBRANCH   4   8
ENDBRANCH   1   4
BRANCH   3  15
ATOM     15  C   UNL     1       3.628  -4.374  -5.576  0.00  0.00    +0.144 C 
BRANCH  15  16
ATOM     16  C   UNL     1       2.223  -3.907  -5.859  0.00  0.00    -0.030 A 
ATOM     17  C   UNL     1       1.339  -3.707  -4.816  0.00  0.00    +0.008 A 
ATOM     18  C   UNL     1       0.052  -3.274  -5.073  0.00  0.00    +0.038 A 
ATOM     19  C   UNL     1      -0.354  -3.051  -6.378  0.00  0.00    +0.123 A 
ATOM     20  C   UNL     1       0.531  -3.256  -7.422  0.00  0.00    +0.038 A 
ATOM     21  C   UNL     1       1.819  -3.684  -7.162  0.00  0.00    +0.008 A 
ATOM     22  F   UNL     1      -1.614  -2.632  -6.631  0.00  0.00    -0.205 F 
ENDBRANCH  15  16
ENDBRANCH   3  15
BRANCH   3  23
ATOM     23  C   UNL     1       4.087  -5.034  -3.169  0.00  0.00    +0.193 C 
BRANCH  23  24
ATOM     24  C   UNL     1       5.518  -5.172  -2.718  0.00  0.00    -0.018 A 
ATOM     25  C   UNL     1       6.530  -5.275  -3.654  0.00  0.00    +0.009 A 
ATOM     26  C   UNL     1       7.844  -5.397  -3.241  0.00  0.00    +0.038 A 
ATOM     27  C   UNL     1       8.144  -5.426  -1.890  0.00  0.00    +0.123 A 
ATOM     28  C   UNL     1       7.129  -5.329  -0.954  0.00  0.00    +0.038 A 
ATOM     29  C   UNL     1       5.817  -5.202  -1.369  0.00  0.00    +0.009 A 
ATOM     30  F   UNL     1       9.427  -5.550  -1.485  0.00  0.00    -0.205 F 
ENDBRANCH  23  24
BRANCH  23  31
ATOM     31  C   UNL     1       3.606  -6.350  -3.724  0.00  0.00    +0.238 C 
ATOM     32  O   UNL     1       2.760  -6.369  -4.593  0.00  0.00    -0.273 OA
ATOM     33  N   UNL     1       4.117  -7.506  -3.256  0.00  0.00    -0.311 N 
ATOM     34  H   UNL     1       4.794  -7.491  -2.562  0.00  0.00    +0.149 HD
BRANCH  33  35
ATOM     35  C   UNL     1       3.649  -8.785  -3.796  0.00  0.00    +0.135 C 
BRANCH  35  36
ATOM     36  C   UNL     1       4.384  -9.932  -3.098  0.00  0.00    +0.135 C 
ATOM     37  C   UNL     1       3.992 -11.275  -3.744  0.00  0.00    +0.035 C 
ATOM     38  C   UNL     1       3.402 -12.101  -2.575  0.00  0.00    +0.031 C 
ATOM     39  C   UNL     1       4.004 -11.388  -1.337  0.00  0.00    +0.160 C 
ATOM     40  O   UNL     1       3.997  -9.994  -1.715  0.00  0.00    -0.375 OA
ENDBRANCH  35  36
ENDBRANCH  33  35
ENDBRANCH  23  31
ENDBRANCH   3  23
TORSDOF 10
