REMARK  Name = ZINC36558943
REMARK  8 active torsions:
REMARK  status: ('A' for Active; 'I' for Inactive)
REMARK    1  A    between atoms: C_1  and  C_2
REMARK    2  A    between atoms: C_6  and  C_37
REMARK    3  A    between atoms: C_7  and  O_8
REMARK    4  A    between atoms: O_8  and  C_9
REMARK    5  A    between atoms: C_9  and  C_10
REMARK    6  A    between atoms: C_10  and  N_11
REMARK    7  A    between atoms: C_13  and  C_20
REMARK    8  A    between atoms: N_26  and  C_29
REMARK                            x       y       z     vdW  Elec       q    Type
REMARK                         _______ _______ _______ _____ _____    ______ ____
ROOT
ATOM      1  N   UNL     1      -2.381   1.293   6.259  0.00  0.00    -0.343 N 
ATOM      2  C   UNL     1      -3.128   2.284   5.740  0.00  0.00    +0.095 A 
ATOM      3  C   UNL     1      -4.115   2.641   6.643  0.00  0.00    +0.001 A 
ATOM      4  C   UNL     1      -3.930   1.767   7.819  0.00  0.00    +0.007 A 
ATOM      5  C   UNL     1      -2.835   0.943   7.515  0.00  0.00    +0.050 A 
ATOM      6  C   UNL     1      -2.418  -0.004   8.444  0.00  0.00    +0.026 A 
ATOM      7  C   UNL     1      -3.082  -0.129   9.646  0.00  0.00    +0.002 A 
ATOM      8  C   UNL     1      -4.166   0.683   9.941  0.00  0.00    +0.001 A 
ATOM      9  C   UNL     1      -4.588   1.634   9.037  0.00  0.00    +0.010 A 
ENDROOT
BRANCH   3  10
ATOM     10  C   UNL     1      -5.098   3.637   6.474  0.00  0.00    +0.028 C 
ATOM     11  C   UNL     1      -4.742   4.887   5.982  0.00  0.00    +0.102 C 
ATOM     12  C   UNL     1      -5.762   5.882   5.594  0.00  0.00    +0.276 C 
ATOM     13  N   UNL     1      -5.347   7.071   5.127  0.00  0.00    -0.123 NA
ATOM     14  C   UNL     1      -4.077   7.366   5.008  0.00  0.00    +0.340 C 
ATOM     15  O   UNL     1      -3.748   8.582   4.531  0.00  0.00    -0.250 OA
ATOM     16  N   UNL     1      -3.072   6.512   5.341  0.00  0.00    -0.188 N 
ATOM     17  C   UNL     1      -3.333   5.282   5.831  0.00  0.00    +0.264 C 
ATOM     18  O   UNL     1      -2.431   4.521   6.134  0.00  0.00    -0.269 OA
ATOM     19  O   UNL     1      -6.951   5.630   5.695  0.00  0.00    -0.268 OA
BRANCH  16  20
ATOM     20  C   UNL     1      -1.740   6.920   5.178  0.00  0.00    +0.046 A 
ATOM     21  C   UNL     1      -1.071   7.544   6.222  0.00  0.00    +0.027 A 
ATOM     22  C   UNL     1       0.240   7.945   6.059  0.00  0.00    +0.040 A 
ATOM     23  C   UNL     1       0.888   7.725   4.856  0.00  0.00    +0.124 A 
ATOM     24  C   UNL     1       0.223   7.103   3.813  0.00  0.00    +0.040 A 
ATOM     25  C   UNL     1      -1.087   6.695   3.974  0.00  0.00    +0.027 A 
ATOM     26  F   UNL     1       2.171   8.118   4.698  0.00  0.00    -0.205 F 
ENDBRANCH  16  20
ENDBRANCH   3  10
BRANCH   1  27
ATOM     27  C   UNL     1      -1.244   0.666   5.580  0.00  0.00    +0.163 C 
BRANCH  27  28
ATOM     28  C   UNL     1      -1.716  -0.595   4.854  0.00  0.00    +0.250 C 
BRANCH  28  29
ATOM     29  O   UNL     1      -0.607  -1.207   4.192  0.00  0.00    -0.490 OA
BRANCH  29  36
ATOM     30  C   UNL     1      -1.321  -0.939   1.472  0.00  0.00    +0.047 C 
ATOM     31  C   UNL     1      -1.211  -2.278   2.156  0.00  0.00    -0.009 A 
ATOM     32  C   UNL     1      -1.458  -3.438   1.448  0.00  0.00    +0.007 A 
ATOM     33  C   UNL     1      -1.358  -4.666   2.074  0.00  0.00    +0.001 A 
ATOM     34  C   UNL     1      -1.010  -4.737   3.410  0.00  0.00    +0.007 A 
ATOM     35  C   UNL     1      -0.762  -3.580   4.123  0.00  0.00    -0.009 A 
ATOM     36  C   UNL     1      -0.856  -2.346   3.495  0.00  0.00    +0.126 A 
ATOM     37  C   UNL     1      -0.383  -3.658   5.580  0.00  0.00    +0.047 C 
ENDBRANCH  29  36
ENDBRANCH  28  29
ENDBRANCH  27  28
ENDBRANCH   1  27
TORSDOF 6
