REMARK  Name = ZINC19939362
REMARK  6 active torsions:
REMARK  status: ('A' for Active; 'I' for Inactive)
REMARK    1  A    between atoms: C_1  and  C_2
REMARK    2  A    between atoms: C_5  and  C_8
REMARK    3  A    between atoms: N_10  and  C_11
REMARK    4  A    between atoms: C_11  and  C_29
REMARK    5  A    between atoms: N_14  and  C_23
REMARK    6  A    between atoms: C_15  and  C_17
REMARK                            x       y       z     vdW  Elec       q    Type
REMARK                         _______ _______ _______ _____ _____    ______ ____
ROOT
ATOM      1  C   UNL     1       0.535   5.730   0.085  0.00  0.00    +0.302 C 
ATOM      2  C   UNL     1       2.048   5.656   0.047  0.00  0.00    +0.276 C 
ATOM      3  O   UNL     1       2.834   6.572   0.160  0.00  0.00    -0.270 OA
ATOM      4  N   UNL     1       2.332   4.349  -0.134  0.00  0.00    -0.249 N 
ATOM      5  C   UNL     1       1.175   3.610  -0.222  0.00  0.00    +0.133 C 
ATOM      6  N   UNL     1       0.107   4.334  -0.101  0.00  0.00    -0.225 NA
ENDROOT
BRANCH   5   7
ATOM      7  C   UNL     1       1.153   2.144  -0.425  0.00  0.00    +0.015 A 
ATOM      8  C   UNL     1       0.181   1.364   0.202  0.00  0.00    +0.011 A 
ATOM      9  C   UNL     1       0.165  -0.002   0.008  0.00  0.00    +0.001 A 
ATOM     10  C   UNL     1       1.110  -0.598  -0.807  0.00  0.00    +0.000 A 
ATOM     11  C   UNL     1       2.077   0.169  -1.432  0.00  0.00    +0.001 A 
ATOM     12  C   UNL     1       2.103   1.536  -1.246  0.00  0.00    +0.011 A 
ENDBRANCH   5   7
BRANCH   4  13
ATOM     13  C   UNL     1       3.685   3.795  -0.229  0.00  0.00    +0.083 C 
ATOM     14  C   UNL     1       4.496   4.215   0.999  0.00  0.00    +0.023 C 
ATOM     15  C   UNL     1       5.908   3.636   0.899  0.00  0.00    +0.002 C 
ATOM     16  C   UNL     1       6.588   4.164  -0.366  0.00  0.00    +0.000 C 
ATOM     17  C   UNL     1       5.778   3.743  -1.593  0.00  0.00    +0.002 C 
ATOM     18  C   UNL     1       4.365   4.322  -1.494  0.00  0.00    +0.023 C 
ENDBRANCH   4  13
BRANCH   1  21
ATOM     19  C   UNL     1       0.513   7.434   1.827  0.00  0.00    +0.246 C 
ATOM     20  O   UNL     1       1.357   8.045   1.201  0.00  0.00    -0.270 OA
ATOM     21  N   UNL     1       0.078   6.239   1.381  0.00  0.00    -0.273 N 
ATOM     22  H   UNL     1      -0.621   5.645   1.990  0.00  0.00    +0.152 HD
BRANCH  19  27
ATOM     23  C   UNL     1      -1.628   9.643   6.691  0.00  0.00    +0.044 C 
ATOM     24  C   UNL     1      -1.067   9.064   5.417  0.00  0.00    -0.050 A 
ATOM     25  C   UNL     1      -0.105   9.762   4.708  0.00  0.00    +0.004 A 
ATOM     26  C   UNL     1       0.412   9.238   3.541  0.00  0.00    +0.013 A 
ATOM     27  C   UNL     1      -0.037   8.001   3.077  0.00  0.00    +0.037 A 
ATOM     28  C   UNL     1      -1.010   7.304   3.794  0.00  0.00    +0.013 A 
ATOM     29  C   UNL     1      -1.516   7.837   4.962  0.00  0.00    +0.004 A 
ENDBRANCH  19  27
ENDBRANCH   1  21
BRANCH   1  30
ATOM     30  C   UNL     1       0.008   6.609  -1.051  0.00  0.00    +0.440 C 
ATOM     31  F   UNL     1      -1.391   6.581  -1.052  0.00  0.00    -0.166 F 
ATOM     32  F   UNL     1       0.448   7.924  -0.865  0.00  0.00    -0.166 F 
ATOM     33  F   UNL     1       0.485   6.125  -2.274  0.00  0.00    -0.166 F 
ENDBRANCH   1  30
TORSDOF 5
