REMARK  Name = ZINC12323818
REMARK  10 active torsions:
REMARK  status: ('A' for Active; 'I' for Inactive)
REMARK    1  A    between atoms: C_1  and  C_2
REMARK    2  A    between atoms: C_4  and  C_34
REMARK    3  A    between atoms: C_6  and  S_8
REMARK    4  A    between atoms: S_8  and  C_9
REMARK    5  A    between atoms: C_9  and  C_10
REMARK    6  A    between atoms: C_14  and  N_20
REMARK    7  A    between atoms: N_18  and  C_19
REMARK    8  A    between atoms: N_20  and  C_21
REMARK    9  A    between atoms: C_21  and  N_23
REMARK   10  A    between atoms: N_23  and  C_24
REMARK                            x       y       z     vdW  Elec       q    Type
REMARK                         _______ _______ _______ _____ _____    ______ ____
ROOT
ATOM      1  C   UNL     1      -1.105   1.814  -0.937  0.00  0.00    +0.121 A 
ATOM      2  N   UNL     1      -1.011   3.002  -1.458  0.00  0.00    -0.231 NA
ATOM      3  C   UNL     1      -1.604   3.013  -2.680  0.00  0.00    +0.091 A 
ATOM      4  C   UNL     1      -1.787   4.001  -3.651  0.00  0.00    +0.053 A 
ATOM      5  C   UNL     1      -2.450   3.693  -4.824  0.00  0.00    +0.035 A 
ATOM      6  C   UNL     1      -2.934   2.405  -5.043  0.00  0.00    +0.025 A 
ATOM      7  C   UNL     1      -2.759   1.424  -4.093  0.00  0.00    +0.030 A 
ATOM      8  C   UNL     1      -2.095   1.717  -2.909  0.00  0.00    +0.069 A 
ATOM      9  N   UNL     1      -1.759   0.980  -1.789  0.00  0.00    -0.330 N 
ATOM     10  C   UNL     1      -2.055  -0.437  -1.561  0.00  0.00    +0.150 C 
ENDROOT
BRANCH   5  11
ATOM     11  N   UNL     1      -2.634   4.682  -5.800  0.00  0.00    -0.297 N 
ATOM     12  H   UNL     1      -2.456   4.483  -6.732  0.00  0.00    +0.154 HD
BRANCH  11  13
ATOM     13  C   UNL     1      -3.059   5.910  -5.442  0.00  0.00    +0.135 C 
ATOM     14  S   UNL     1      -3.270   6.295  -3.788  0.00  0.00    -0.019 S 
BRANCH  13  15
ATOM     15  N   UNL     1      -3.319   6.835  -6.388  0.00  0.00    -0.323 N 
ATOM     16  H   UNL     1      -3.199   6.617  -7.325  0.00  0.00    +0.148 HD
BRANCH  15  17
ATOM     17  C   UNL     1      -3.781   8.170  -5.999  0.00  0.00    +0.075 C 
ATOM     18  C   UNL     1      -5.318   8.182  -5.839  0.00  0.00    +0.026 C 
ATOM     19  C   UNL     1      -5.816   9.215  -6.895  0.00  0.00    -0.009 C 
ATOM     20  C   UNL     1      -5.351  10.596  -6.340  0.00  0.00    +0.004 C 
ATOM     21  C   UNL     1      -3.814  10.584  -6.501  0.00  0.00    +0.005 C 
ATOM     22  C   UNL     1      -3.495   9.197  -7.138  0.00  0.00    +0.010 C 
ATOM     23  C   UNL     1      -4.764   8.992  -8.038  0.00  0.00    +0.009 C 
ENDBRANCH  15  17
ENDBRANCH  13  15
ENDBRANCH  11  13
ENDBRANCH   5  11
BRANCH   1  24
ATOM     24  C   UNL     1      -0.562   1.418   0.412  0.00  0.00    +0.151 C 
BRANCH  24  25
ATOM     25  S   UNL     1      -1.828   1.694   1.676  0.00  0.00    -0.078 S 
BRANCH  25  31
ATOM     26  C   UNL     1       2.397  -0.171   3.882  0.00  0.00    +0.066 C 
ATOM     27  C   UNL     1       0.981   0.323   4.036  0.00  0.00    +0.043 A 
ATOM     28  C   UNL     1       0.383   0.357   5.286  0.00  0.00    +0.046 A 
ATOM     29  C   UNL     1      -0.921   0.818   5.385  0.00  0.00    +0.043 A 
ATOM     30  N   UNL     1      -1.551   1.209   4.290  0.00  0.00    -0.227 NA
ATOM     31  C   UNL     1      -0.951   1.163   3.109  0.00  0.00    +0.189 A 
ATOM     32  N   UNL     1       0.293   0.723   2.980  0.00  0.00    -0.227 NA
ATOM     33  C   UNL     1      -1.611   0.874   6.723  0.00  0.00    +0.066 C 
ENDBRANCH  25  31
ENDBRANCH  24  25
ENDBRANCH   1  24
TORSDOF 7
