REMARK  Name = ZINC07883907
REMARK  9 active torsions:
REMARK  status: ('A' for Active; 'I' for Inactive)
REMARK    1  A    between atoms: C_1  and  C_2
REMARK    2  A    between atoms: C_2  and  O_3
REMARK    3  A    between atoms: O_3  and  C_4
REMARK    4  A    between atoms: C_8  and  C_12
REMARK    5  A    between atoms: C_9  and  O_10
REMARK    6  A    between atoms: O_10  and  C_11
REMARK    7  A    between atoms: N_23  and  C_24
REMARK    8  A    between atoms: C_27  and  O_30
REMARK    9  A    between atoms: O_30  and  C_31
REMARK                            x       y       z     vdW  Elec       q    Type
REMARK                         _______ _______ _______ _____ _____    ______ ____
ROOT
ATOM      1  C   UNL     1      -1.268   2.106   0.027  0.00  0.00    +0.201 C 
ATOM      2  N   UNL     1      -2.252   1.323   0.784  0.00  0.00    -0.321 N 
ATOM      3  C   UNL     1      -2.232   1.377   2.170  0.00  0.00    +0.041 A 
ATOM      4  C   UNL     1      -2.671   0.320   2.949  0.00  0.00    +0.024 A 
ATOM      5  C   UNL     1      -2.645   0.427   4.326  0.00  0.00    +0.002 A 
ATOM      6  C   UNL     1      -2.184   1.585   4.933  0.00  0.00    +0.001 A 
ATOM      7  C   UNL     1      -1.740   2.646   4.172  0.00  0.00    +0.015 A 
ATOM      8  C   UNL     1      -1.757   2.550   2.783  0.00  0.00    +0.058 A 
ATOM      9  C   UNL     1      -1.285   3.652   1.927  0.00  0.00    +0.254 C 
ATOM     10  O   UNL     1      -1.028   4.738   2.410  0.00  0.00    -0.270 OA
ATOM     11  N   UNL     1      -1.139   3.446   0.602  0.00  0.00    -0.244 N 
ATOM     12  H   UNL     1      -2.905   0.774   0.324  0.00  0.00    +0.148 HD
ENDROOT
BRANCH   1  17
ATOM     13  C   UNL     1       1.364  -0.612   0.124  0.00  0.00    +0.162 A 
ATOM     14  C   UNL     1       2.528   0.139   0.155  0.00  0.00    +0.049 A 
ATOM     15  C   UNL     1       2.461   1.520   0.147  0.00  0.00    +0.004 A 
ATOM     16  C   UNL     1       1.233   2.155   0.108  0.00  0.00    +0.011 A 
ATOM     17  C   UNL     1       0.068   1.411   0.076  0.00  0.00    +0.036 A 
ATOM     18  C   UNL     1       0.129   0.027   0.084  0.00  0.00    +0.168 A 
BRANCH  18  19
ATOM     19  O   UNL     1      -1.016  -0.706   0.054  0.00  0.00    -0.491 OA
ATOM     20  C   UNL     1      -1.525  -1.061  -1.233  0.00  0.00    +0.277 C 
ENDBRANCH  18  19
BRANCH  13  21
ATOM     21  O   UNL     1       1.429  -1.970   0.132  0.00  0.00    -0.489 OA
BRANCH  21  23
ATOM     22  C   UNL     1       2.604  -4.082   0.175  0.00  0.00    +0.048 C 
ATOM     23  C   UNL     1       2.732  -2.557   0.173  0.00  0.00    +0.226 C 
ENDBRANCH  21  23
ENDBRANCH  13  21
ENDBRANCH   1  17
BRANCH  11  24
ATOM     24  C   UNL     1      -0.861   4.531  -0.237  0.00  0.00    +0.039 A 
ATOM     25  C   UNL     1       0.266   5.312  -0.013  0.00  0.00    +0.027 A 
ATOM     26  C   UNL     1       0.544   6.378  -0.845  0.00  0.00    +0.047 A 
ATOM     27  C   UNL     1      -0.309   6.677  -1.897  0.00  0.00    +0.120 A 
ATOM     28  C   UNL     1      -1.438   5.902  -2.118  0.00  0.00    +0.047 A 
ATOM     29  C   UNL     1      -1.713   4.831  -1.291  0.00  0.00    +0.027 A 
BRANCH  27  30
ATOM     30  O   UNL     1      -0.037   7.731  -2.713  0.00  0.00    -0.495 OA
ATOM     31  C   UNL     1       1.141   8.486  -2.427  0.00  0.00    +0.277 C 
ENDBRANCH  27  30
ENDBRANCH  11  24
TORSDOF 6
