REMARK  Name = ZINC19644434
REMARK  11 active torsions:
REMARK  status: ('A' for Active; 'I' for Inactive)
REMARK    1  A    between atoms: C_1  and  C_2
REMARK    2  A    between atoms: C_4  and  O_5
REMARK    3  A    between atoms: N_13  and  C_14
REMARK    4  A    between atoms: C_14  and  N_16
REMARK    5  A    between atoms: N_16  and  N_17
REMARK    6  A    between atoms: C_18  and  C_20
REMARK    7  A    between atoms: C_20  and  C_22
REMARK    8  A    between atoms: C_20  and  N_23
REMARK    9  A    between atoms: C_25  and  N_30
REMARK   10  A    between atoms: C_26  and  O_28
REMARK   11  A    between atoms: O_28  and  C_29
REMARK                            x       y       z     vdW  Elec       q    Type
REMARK                         _______ _______ _______ _____ _____    ______ ____
ROOT
ATOM      1  N   UNL     1       1.156  -0.668  -0.279  0.00  0.00    -0.246 N 
ATOM      2  H   UNL     1       2.066  -0.088  -0.495  0.00  0.00    +0.172 HD
ENDROOT
BRANCH   1   3
ATOM      3  N   UNL     1      -0.048  -0.006  -0.003  0.00  0.00    -0.233 N 
ATOM      4  C   UNL     1      -0.091   1.341  -0.004  0.00  0.00    +0.253 C 
ATOM      5  O   UNL     1       0.912   1.980  -0.242  0.00  0.00    -0.272 OA
ATOM      6  H   UNL     1      -0.957  -0.586   0.213  0.00  0.00    +0.173 HD
BRANCH   4   7
ATOM      7  C   UNL     1      -1.387   2.053   0.286  0.00  0.00    +0.191 C 
ATOM      8  C   UNL     1      -1.879   1.668   1.683  0.00  0.00    +0.042 C 
BRANCH   7   9
ATOM      9  N   UNL     1      -1.173   3.501   0.227  0.00  0.00    -0.254 N 
ATOM     10  C   UNL     1      -0.723   4.279   1.234  0.00  0.00    +0.146 A 
ATOM     11  C   UNL     1      -0.663   5.551   0.780  0.00  0.00    +0.206 A 
ATOM     12  C   UNL     1      -1.092   5.553  -0.556  0.00  0.00    +0.264 A 
ATOM     13  N   UNL     1      -1.393   4.321  -0.888  0.00  0.00    -0.130 NA
BRANCH  11  14
ATOM     14  N   UNL     1      -0.224   6.733   1.555  0.00  0.00    +0.063 N 
ATOM     15  O   UNL     1       0.127   6.605   2.714  0.00  0.00    -0.126 OA
ATOM     16  O   UNL     1      -0.213   7.834   1.034  0.00  0.00    -0.126 OA
ENDBRANCH  11  14
BRANCH  12  17
ATOM     17  O   UNL     1      -1.176   6.641  -1.367  0.00  0.00    -0.477 OA
ATOM     18  C   UNL     1      -1.640   6.423  -2.700  0.00  0.00    +0.279 C 
ENDBRANCH  12  17
ENDBRANCH   7   9
ENDBRANCH   4   7
ENDBRANCH   1   3
BRANCH   1  19
ATOM     19  C   UNL     1       1.200  -2.015  -0.278  0.00  0.00    +0.151 C 
ATOM     20  S   UNL     1       2.670  -2.824  -0.615  0.00  0.00    -0.017 S 
BRANCH  19  32
ATOM     21  C   UNL     1       0.840  -9.017  -1.628  0.00  0.00    +0.045 C 
ATOM     22  C   UNL     1       0.151  -8.331  -0.476  0.00  0.00    -0.033 A 
ATOM     23  C   UNL     1      -0.477  -9.050   0.490  0.00  0.00    +0.091 A 
ATOM     24  C   UNL     1      -1.113  -8.385   1.558  0.00  0.00    +0.285 A 
ATOM     25  O   UNL     1      -1.119  -7.046   1.651  0.00  0.00    -0.425 OA
ATOM     26  C   UNL     1      -0.513  -6.272   0.725  0.00  0.00    +0.141 A 
ATOM     27  C   UNL     1       0.142  -6.871  -0.368  0.00  0.00    +0.021 A 
ATOM     28  C   UNL     1       0.772  -6.073  -1.330  0.00  0.00    +0.013 A 
ATOM     29  C   UNL     1       0.743  -4.714  -1.210  0.00  0.00    +0.024 A 
ATOM     30  C   UNL     1       0.101  -4.115  -0.126  0.00  0.00    +0.036 A 
ATOM     31  C   UNL     1      -0.528  -4.891   0.837  0.00  0.00    +0.070 A 
ATOM     32  N   UNL     1       0.085  -2.725  -0.013  0.00  0.00    -0.296 N 
ATOM     33  H   UNL     1      -0.837  -2.208   0.292  0.00  0.00    +0.154 HD
BRANCH  24  34
ATOM     34  O   UNL     1      -1.672  -9.042   2.417  0.00  0.00    -0.480 OA
ATOM     35  H   UNL     1      -2.173  -8.538   3.257  0.00  0.00    +0.295 HD
ENDBRANCH  24  34
ENDBRANCH  19  32
ENDBRANCH   1  19
TORSDOF 8
