REMARK  Name = ZINC27204431
REMARK  7 active torsions:
REMARK  status: ('A' for Active; 'I' for Inactive)
REMARK    1  A    between atoms: C_1  and  C_2
REMARK    2  A    between atoms: C_6  and  N_9
REMARK    3  A    between atoms: C_7  and  C_8
REMARK    4  A    between atoms: N_12  and  C_15
REMARK    5  A    between atoms: C_15  and  N_16
REMARK    6  A    between atoms: C_20  and  C_28
REMARK    7  A    between atoms: C_25  and  C_27
REMARK                            x       y       z     vdW  Elec       q    Type
REMARK                         _______ _______ _______ _____ _____    ______ ____
ROOT
ATOM      1  C   UNL     1       5.413   1.278   3.663  0.00  0.00    +0.205 C 
ENDROOT
BRANCH   1   2
ATOM      2  N   UNL     1       5.795   0.690   4.949  0.00  0.00    -0.211 N 
ATOM      3  C   UNL     1       6.149   1.408   6.036  0.00  0.00    +0.248 C 
ATOM      4  O   UNL     1       6.209   2.615   6.130  0.00  0.00    -0.273 OA
ATOM      5  C   UNL     1       6.453   0.389   7.110  0.00  0.00    +0.118 C 
ATOM      6  C   UNL     1       7.905   0.510   7.558  0.00  0.00    +0.019 C 
ATOM      7  C   UNL     1       8.204  -0.552   8.619  0.00  0.00    +0.006 C 
ATOM      8  C   UNL     1       7.266  -0.357   9.812  0.00  0.00    +0.001 C 
ATOM      9  C   UNL     1       5.814  -0.503   9.352  0.00  0.00    +0.006 C 
ATOM     10  C   UNL     1       5.507   0.560   8.294  0.00  0.00    +0.019 C 
ATOM     11  C   UNL     1       5.696   1.952   8.900  0.00  0.00    +0.010 C 
ATOM     12  C   UNL     1       8.828   0.304   6.355  0.00  0.00    +0.010 C 
ATOM     13  N   UNL     1       6.224  -0.903   6.452  0.00  0.00    -0.284 N 
ATOM     14  C   UNL     1       5.842  -0.626   5.191  0.00  0.00    +0.310 C 
ATOM     15  O   UNL     1       5.570  -1.475   4.364  0.00  0.00    -0.252 OA
ATOM     16  H   UNL     1       6.375  -1.839   7.010  0.00  0.00    +0.151 HD
ENDBRANCH   1   2
BRANCH   1  20
ATOM     17  N   UNL     1       1.384   1.594   2.434  0.00  0.00    -0.327 N 
ATOM     18  C   UNL     1       1.735   0.520   3.374  0.00  0.00    +0.120 C 
ATOM     19  C   UNL     1       3.243   0.264   3.312  0.00  0.00    +0.105 C 
ATOM     20  N   UNL     1       3.962   1.503   3.639  0.00  0.00    -0.283 NA
ATOM     21  C   UNL     1       3.611   2.576   2.699  0.00  0.00    +0.105 C 
ATOM     22  C   UNL     1       2.103   2.833   2.762  0.00  0.00    +0.120 C 
BRANCH  17  28
ATOM     23  C   UNL     1      -2.864   1.540  -0.036  0.00  0.00    +0.044 C 
ATOM     24  C   UNL     1      -2.082   1.789   1.227  0.00  0.00    -0.046 A 
ATOM     25  C   UNL     1      -2.731   2.230   2.366  0.00  0.00    +0.004 A 
ATOM     26  C   UNL     1      -2.015   2.466   3.526  0.00  0.00    +0.002 A 
ATOM     27  C   UNL     1      -0.650   2.255   3.552  0.00  0.00    +0.023 A 
ATOM     28  C   UNL     1       0.004   1.807   2.412  0.00  0.00    +0.033 A 
ATOM     29  C   UNL     1      -0.718   1.572   1.248  0.00  0.00    -0.027 A 
ATOM     30  C   UNL     1      -0.013   1.086   0.008  0.00  0.00    +0.046 C 
ENDBRANCH  17  28
ENDBRANCH   1  20
TORSDOF 3
