REMARK  Name = ZINC32899383
REMARK  6 active torsions:
REMARK  status: ('A' for Active; 'I' for Inactive)
REMARK    1  A    between atoms: C_4  and  C_7
REMARK    2  A    between atoms: C_8  and  C_9
REMARK    3  A    between atoms: N_14  and  C_16
REMARK    4  A    between atoms: C_16  and  N_17
REMARK    5  A    between atoms: N_20  and  C_23
REMARK    6  A    between atoms: C_28  and  O_29
REMARK                            x       y       z     vdW  Elec       q    Type
REMARK                         _______ _______ _______ _____ _____    ______ ____
ROOT
ATOM      1  C   UNL     1       6.527   0.474  -0.020  0.00  0.00    +0.072 C 
ENDROOT
BRANCH   1   7
ATOM      2  C   UNL     1       8.818   2.118   2.230  0.00  0.00    +0.153 A 
ATOM      3  N   UNL     1       8.287   1.139   3.051  0.00  0.00    -0.318 N 
ATOM      4  H   UNL     1       8.619   1.058   4.096  0.00  0.00    +0.169 HD
ATOM      5  C   UNL     1       7.394   0.427   2.335  0.00  0.00    +0.174 A 
ATOM      6  S   UNL     1       6.468  -0.895   2.905  0.00  0.00    -0.012 S 
ATOM      7  N   UNL     1       7.361   0.943   1.090  0.00  0.00    -0.257 N 
ATOM      8  N   UNL     1       8.273   2.006   1.047  0.00  0.00    -0.153 NA
BRANCH   2  10
ATOM      9  C   UNL     1      10.264   4.014   1.723  0.00  0.00    +0.011 C 
ATOM     10  C   UNL     1       9.827   3.111   2.620  0.00  0.00    +0.048 C 
BRANCH   9  14
ATOM     11  C   UNL     1      13.180   6.883   2.850  0.00  0.00    +0.000 A 
ATOM     12  C   UNL     1      12.681   6.879   1.560  0.00  0.00    +0.001 A 
ATOM     13  C   UNL     1      11.733   5.949   1.186  0.00  0.00    +0.008 A 
ATOM     14  C   UNL     1      11.277   5.010   2.115  0.00  0.00    -0.025 A 
ATOM     15  C   UNL     1      11.781   5.023   3.418  0.00  0.00    +0.008 A 
ATOM     16  C   UNL     1      12.733   5.955   3.775  0.00  0.00    +0.001 A 
ENDBRANCH   9  14
ENDBRANCH   2  10
ENDBRANCH   1   7
BRANCH   1  17
ATOM     17  N   UNL     1       5.243   1.187  -0.003  0.00  0.00    +0.395 N 
ATOM     18  C   UNL     1       4.476   0.920  -1.228  0.00  0.00    -0.057 C 
ATOM     19  C   UNL     1       3.185   1.742  -1.208  0.00  0.00    +0.087 C 
ATOM     20  N   UNL     1       2.403   1.391  -0.014  0.00  0.00    -0.331 N 
ATOM     21  C   UNL     1       3.170   1.658   1.211  0.00  0.00    +0.087 C 
ATOM     22  C   UNL     1       4.461   0.836   1.191  0.00  0.00    -0.057 C 
ATOM     23  H   UNL     1       5.457   2.265   0.036  0.00  0.00    -0.079 HD
BRANCH  20  24
ATOM     24  C   UNL     1       1.179   2.071   0.002  0.00  0.00    +0.072 A 
ATOM     25  C   UNL     1       1.155   3.458   0.010  0.00  0.00    +0.027 A 
ATOM     26  C   UNL     1      -0.055   4.126   0.025  0.00  0.00    +0.002 A 
ATOM     27  C   UNL     1      -1.241   3.416   0.032  0.00  0.00    +0.004 A 
ATOM     28  C   UNL     1      -1.224   2.034   0.019  0.00  0.00    +0.047 A 
ATOM     29  C   UNL     1      -0.016   1.356   0.009  0.00  0.00    +0.138 A 
BRANCH  29  30
ATOM     30  O   UNL     1       0.002  -0.004   0.002  0.00  0.00    -0.505 OA
ATOM     31  H   UNL     1      -0.943  -0.567   0.008  0.00  0.00    +0.292 HD
ENDBRANCH  29  30
ENDBRANCH  20  24
ENDBRANCH   1  17
TORSDOF 6
