REMARK  Name = ZINC17191800
REMARK  4 active torsions:
REMARK  status: ('A' for Active; 'I' for Inactive)
REMARK    1  A    between atoms: C_8  and  N_11
REMARK    2  A    between atoms: C_12  and  C_14
REMARK    3  A    between atoms: C_14  and  C_15
REMARK    4  A    between atoms: C_15  and  C_16
REMARK                            x       y       z     vdW  Elec       q    Type
REMARK                         _______ _______ _______ _____ _____    ______ ____
ROOT
ATOM      1  N   UNL     1       1.652   7.432  -2.112  0.00  0.00    -0.310 N 
ATOM      2  C   UNL     1       1.849   6.496  -1.163  0.00  0.00    +0.214 C 
ATOM      3  O   UNL     1       2.693   6.667  -0.309  0.00  0.00    -0.276 OA
ATOM      4  H   UNL     1       0.977   7.295  -2.795  0.00  0.00    +0.149 HD
ENDROOT
BRANCH   1  12
ATOM      5  C   UNL     1       4.357  10.458  -3.428  0.00  0.00    +0.007 C 
ATOM      6  C   UNL     1       4.778   9.571  -2.255  0.00  0.00    -0.008 C 
ATOM      7  C   UNL     1       4.561  10.325  -0.942  0.00  0.00    +0.007 C 
ATOM      8  C   UNL     1       3.081  10.688  -0.801  0.00  0.00    -0.008 C 
ATOM      9  C   UNL     1       2.660  11.575  -1.974  0.00  0.00    +0.007 C 
ATOM     10  C   UNL     1       2.877  10.821  -3.287  0.00  0.00    -0.008 C 
ATOM     11  C   UNL     1       2.036   9.543  -3.287  0.00  0.00    +0.029 C 
ATOM     12  C   UNL     1       2.457   8.656  -2.113  0.00  0.00    +0.035 C 
ATOM     13  C   UNL     1       3.937   8.293  -2.254  0.00  0.00    +0.029 C 
ATOM     14  C   UNL     1       2.240   9.410  -0.800  0.00  0.00    +0.029 C 
ENDBRANCH   1  12
BRANCH   2  15
ATOM     15  C   UNL     1       1.021   5.237  -1.162  0.00  0.00    +0.103 C 
BRANCH  15  16
ATOM     16  C   UNL     1       1.442   4.350   0.011  0.00  0.00    +0.085 C 
BRANCH  16  17
ATOM     17  C   UNL     1       0.614   3.091   0.012  0.00  0.00    +0.125 A 
ATOM     18  N   UNL     1       1.102   1.823   0.001  0.00  0.00    -0.285 N 
ATOM     19  H   UNL     1       2.035   1.562  -0.009  0.00  0.00    +0.188 HD
ATOM     20  N   UNL     1      -0.011   0.966   0.007  0.00  0.00    -0.276 N 
ATOM     21  H   UNL     1       0.002  -0.004   0.002  0.00  0.00    +0.189 HD
ATOM     22  C   UNL     1      -1.102   1.760   0.016  0.00  0.00    +0.194 A 
ATOM     23  S   UNL     1      -2.729   1.229   0.020  0.00  0.00    -0.010 S 
ATOM     24  N   UNL     1      -0.692   3.040   0.024  0.00  0.00    -0.207 NA
ENDBRANCH  16  17
ENDBRANCH  15  16
ENDBRANCH   2  15
TORSDOF 4
