REMARK  Name = ZINC39958187
REMARK  7 active torsions:
REMARK  status: ('A' for Active; 'I' for Inactive)
REMARK    1  A    between atoms: C_1  and  C_2
REMARK    2  A    between atoms: C_6  and  N_8
REMARK    3  A    between atoms: C_9  and  S_17
REMARK    4  A    between atoms: C_15  and  N_16
REMARK    5  A    between atoms: S_17  and  C_18
REMARK    6  A    between atoms: C_18  and  C_20
REMARK    7  A    between atoms: C_18  and  C_21
REMARK                            x       y       z     vdW  Elec       q    Type
REMARK                         _______ _______ _______ _____ _____    ______ ____
ROOT
ATOM      1  N   UNL     1      -0.059  -2.861   2.730  0.00  0.00    -0.260 N 
ATOM      2  C   UNL     1      -0.077  -4.325   2.611  0.00  0.00    +0.228 C 
ATOM      3  N   UNL     1      -0.865  -4.885   3.713  0.00  0.00    -0.284 N 
ATOM      4  C   UNL     1      -0.911  -4.259   4.903  0.00  0.00    +0.242 C 
ATOM      5  O   UNL     1      -1.471  -4.793   5.845  0.00  0.00    -0.271 OA
ATOM      6  C   UNL     1      -0.322  -2.998   5.072  0.00  0.00    +0.106 C 
ATOM      7  C   UNL     1       0.126  -2.305   3.977  0.00  0.00    +0.095 C 
ATOM      8  H   UNL     1      -1.355  -5.712   3.584  0.00  0.00    +0.152 HD
ENDROOT
BRANCH   1  14
ATOM      9  C   UNL     1      -2.739   0.401   0.211  0.00  0.00    +0.044 C 
ATOM     10  C   UNL     1      -1.510  -0.459   0.355  0.00  0.00    -0.049 A 
ATOM     11  C   UNL     1      -0.539  -0.447  -0.630  0.00  0.00    +0.003 A 
ATOM     12  C   UNL     1       0.590  -1.235  -0.503  0.00  0.00    +0.002 A 
ATOM     13  C   UNL     1       0.752  -2.037   0.610  0.00  0.00    +0.023 A 
ATOM     14  C   UNL     1      -0.220  -2.051   1.602  0.00  0.00    +0.038 A 
ATOM     15  C   UNL     1      -1.351  -1.254   1.473  0.00  0.00    +0.027 A 
ENDBRANCH   1  14
BRANCH   7  16
ATOM     16  N   UNL     1       0.738  -1.085   4.117  0.00  0.00    -0.346 N 
ATOM     17  H   UNL     1       0.983  -0.573   3.330  0.00  0.00    +0.143 HD
ATOM     18  H   UNL     1       0.926  -0.736   5.002  0.00  0.00    +0.143 HD
ENDBRANCH   7  16
BRANCH   2  19
ATOM     19  S   UNL     1       1.620  -4.961   2.691  0.00  0.00    -0.108 S 
BRANCH  19  20
ATOM     20  C   UNL     1       1.479  -6.666   2.088  0.00  0.00    +0.112 C 
ATOM     21  C   UNL     1       1.114  -6.654   0.603  0.00  0.00    +0.027 C 
BRANCH  20  22
ATOM     22  C   UNL     1       2.794  -7.376   2.277  0.00  0.00    +0.123 A 
ATOM     23  N   UNL     1       2.923  -8.636   1.786  0.00  0.00    -0.309 N 
ATOM     24  H   UNL     1       2.175  -9.052   1.328  0.00  0.00    +0.170 HD
ATOM     25  C   UNL     1       4.084  -9.317   1.929  0.00  0.00    +0.259 A 
ATOM     26  O   UNL     1       4.213 -10.446   1.493  0.00  0.00    -0.267 OA
ATOM     27  C   UNL     1       5.184  -8.639   2.631  0.00  0.00    +0.065 A 
ATOM     28  C   UNL     1       6.419  -9.251   2.831  0.00  0.00    +0.015 A 
ATOM     29  C   UNL     1       7.415  -8.569   3.496  0.00  0.00    +0.001 A 
ATOM     30  C   UNL     1       7.196  -7.281   3.966  0.00  0.00    +0.002 A 
ATOM     31  C   UNL     1       5.983  -6.658   3.779  0.00  0.00    +0.028 A 
ATOM     32  C   UNL     1       4.958  -7.328   3.107  0.00  0.00    +0.078 A 
ATOM     33  N   UNL     1       3.749  -6.750   2.896  0.00  0.00    -0.233 NA
ENDBRANCH  20  22
ENDBRANCH  19  20
ENDBRANCH   2  19
TORSDOF 5
