REMARK  Name = ZINC03651587
REMARK  4 active torsions:
REMARK  status: ('A' for Active; 'I' for Inactive)
REMARK    1  A    between atoms: C_1  and  S_2
REMARK    2  A    between atoms: S_2  and  C_3
REMARK    3  A    between atoms: C_6  and  C_9
REMARK    4  A    between atoms: C_14  and  C_19
REMARK                            x       y       z     vdW  Elec       q    Type
REMARK                         _______ _______ _______ _____ _____    ______ ____
ROOT
ATOM      1  C   UNL     1       3.126  -1.373  -4.962  0.00  0.00    +0.028 C 
ATOM      2  C   UNL     1       3.415  -0.393  -5.860  0.00  0.00    +0.081 A 
ATOM      3  C   UNL     1       3.247   1.062  -5.741  0.00  0.00    +0.273 A 
ATOM      4  O   UNL     1       2.790   1.562  -4.730  0.00  0.00    -0.266 OA
ATOM      5  N   UNL     1       3.616   1.818  -6.781  0.00  0.00    -0.235 N 
ATOM      6  C   UNL     1       3.644   3.176  -7.112  0.00  0.00    +0.172 A 
ATOM      7  N   UNL     1       4.129   3.278  -8.324  0.00  0.00    -0.128 NA
ATOM      8  N   UNL     1       4.410   2.112  -8.788  0.00  0.00    -0.121 NA
ATOM      9  C   UNL     1       4.120   1.205  -7.901  0.00  0.00    +0.204 A 
ATOM     10  S   UNL     1       4.096  -0.527  -7.507  0.00  0.00    -0.044 S 
ENDROOT
BRANCH   6  11
ATOM     11  C   UNL     1       3.206   4.294  -6.251  0.00  0.00    +0.020 A 
ATOM     12  C   UNL     1       2.667   5.449  -6.821  0.00  0.00    +0.013 A 
ATOM     13  C   UNL     1       2.255   6.486  -6.011  0.00  0.00    +0.021 A 
ATOM     14  C   UNL     1       2.386   6.389  -4.636  0.00  0.00    +0.041 A 
ATOM     15  C   UNL     1       2.925   5.248  -4.064  0.00  0.00    +0.021 A 
ATOM     16  C   UNL     1       3.336   4.202  -4.863  0.00  0.00    +0.013 A 
ATOM     17 CL   UNL     1       1.872   7.702  -3.623  0.00  0.00    -0.084 Cl
ENDBRANCH   6  11
BRANCH   1  21
ATOM     18  C   UNL     1       1.044  -0.431  -1.402  0.00  0.00    +0.008 A 
ATOM     19  C   UNL     1       2.067  -1.378  -1.379  0.00  0.00    +0.015 A 
ATOM     20  C   UNL     1       2.738  -1.688  -2.527  0.00  0.00    +0.009 A 
ATOM     21  C   UNL     1       2.405  -1.046  -3.727  0.00  0.00    -0.024 A 
ATOM     22  C   UNL     1       1.379  -0.091  -3.744  0.00  0.00    +0.009 A 
ATOM     23  C   UNL     1       0.710   0.210  -2.593  0.00  0.00    +0.015 A 
BRANCH  18  25
ATOM     24  C   UNL     1       0.947  -1.102   1.333  0.00  0.00    +0.090 C 
ATOM     25  S   UNL     1       0.177  -0.040   0.081  0.00  0.00    -0.129 S 
ENDBRANCH  18  25
ENDBRANCH   1  21
TORSDOF 3
