REMARK  Name = ZINC07387393
REMARK  8 active torsions:
REMARK  status: ('A' for Active; 'I' for Inactive)
REMARK    1  A    between atoms: C_1  and  C_2
REMARK    2  A    between atoms: C_5  and  S_9
REMARK    3  A    between atoms: C_7  and  C_8
REMARK    4  A    between atoms: S_9  and  N_12
REMARK    5  A    between atoms: N_12  and  N_13
REMARK    6  A    between atoms: C_14  and  C_16
REMARK    7  A    between atoms: C_17  and  C_27
REMARK    8  A    between atoms: C_19  and  C_21
REMARK                            x       y       z     vdW  Elec       q    Type
REMARK                         _______ _______ _______ _____ _____    ______ ____
ROOT
ATOM      1  N   UNL     1      -0.016   1.344   0.009  0.00  0.00    -0.227 N 
ATOM      2  C   UNL     1       0.002  -0.004   0.002  0.00  0.00    +0.267 C 
ATOM      3  O   UNL     1      -1.044  -0.627   0.009  0.00  0.00    -0.268 OA
ATOM      4  H   UNL     1       0.817   1.840   0.004  0.00  0.00    +0.171 HD
ENDROOT
BRANCH   2   5
ATOM      5  C   UNL     1       1.281  -0.720  -0.014  0.00  0.00    +0.098 A 
ATOM      6  C   UNL     1       1.534  -2.086  -0.024  0.00  0.00    +0.058 A 
ATOM      7  N   UNL     1       2.780  -2.474  -0.038  0.00  0.00    -0.243 NA
ATOM      8  C   UNL     1       3.779  -1.602  -0.043  0.00  0.00    +0.109 A 
ATOM      9  S   UNL     1       2.949  -0.077  -0.034  0.00  0.00    -0.062 S 
ATOM     10  C   UNL     1       0.407  -3.086  -0.018  0.00  0.00    +0.067 C 
BRANCH   8  11
ATOM     11  C   UNL     1       5.234  -1.863  -0.058  0.00  0.00    +0.007 A 
ATOM     12  C   UNL     1       5.711  -3.175  -0.063  0.00  0.00    +0.010 A 
ATOM     13  C   UNL     1       7.070  -3.411  -0.082  0.00  0.00    +0.001 A 
ATOM     14  C   UNL     1       7.960  -2.352  -0.084  0.00  0.00    +0.000 A 
ATOM     15  C   UNL     1       7.494  -1.049  -0.074  0.00  0.00    +0.001 A 
ATOM     16  C   UNL     1       6.137  -0.798  -0.060  0.00  0.00    +0.010 A 
ENDBRANCH   8  11
ENDBRANCH   2   5
BRANCH   1  17
ATOM     17  N   UNL     1      -1.239   2.027   0.019  0.00  0.00    -0.108 NA
ATOM     18  H   UNL     1      -1.901   1.847  -0.667  0.00  0.00    +0.172 HD
BRANCH  17  19
ATOM     19  S   UNL     1      -1.554   3.143   1.201  0.00  0.00    +0.074 S 
ATOM     20  O   UNL     1      -2.789   3.758   0.861  0.00  0.00    -0.152 OA
ATOM     21  O   UNL     1      -1.347   2.487   2.445  0.00  0.00    -0.152 OA
BRANCH  19  26
ATOM     22  C   UNL     1       2.676   7.426   0.787  0.00  0.00    +0.044 C 
ATOM     23  C   UNL     1       1.619   6.356   0.891  0.00  0.00    -0.047 A 
ATOM     24  C   UNL     1       1.828   5.255   1.700  0.00  0.00    +0.005 A 
ATOM     25  C   UNL     1       0.856   4.276   1.799  0.00  0.00    +0.029 A 
ATOM     26  C   UNL     1      -0.319   4.394   1.080  0.00  0.00    +0.107 A 
ATOM     27  C   UNL     1      -0.527   5.495   0.272  0.00  0.00    +0.032 A 
ATOM     28  C   UNL     1       0.442   6.477   0.177  0.00  0.00    -0.046 A 
ATOM     29  C   UNL     1       0.214   7.678  -0.705  0.00  0.00    +0.044 C 
ENDBRANCH  19  26
ENDBRANCH  17  19
ENDBRANCH   1  17
TORSDOF 5
