REMARK  Name = ZINC45648980
REMARK  7 active torsions:
REMARK  status: ('A' for Active; 'I' for Inactive)
REMARK    1  A    between atoms: C_1  and  C_2
REMARK    2  A    between atoms: C_2  and  C_4
REMARK    3  A    between atoms: C_2  and  C_21
REMARK    4  A    between atoms: C_4  and  N_5
REMARK    5  A    between atoms: C_16  and  C_18
REMARK    6  A    between atoms: C_21  and  O_22
REMARK    7  A    between atoms: O_22  and  C_23
REMARK                            x       y       z     vdW  Elec       q    Type
REMARK                         _______ _______ _______ _____ _____    ______ ____
ROOT
ATOM      1  N   UNL     1      -0.009  -0.141   2.444  0.00  0.00    -0.299 N 
ATOM      2  C   UNL     1       0.457  -0.484   3.661  0.00  0.00    +0.303 C 
ATOM      3  O   UNL     1       1.450  -1.178   3.759  0.00  0.00    -0.253 OA
ATOM      4  N   UNL     1      -0.179  -0.057   4.771  0.00  0.00    -0.268 N 
ATOM      5  C   UNL     1       0.383  -0.328   6.102  0.00  0.00    +0.115 C 
ATOM      6  C   UNL     1       0.759   1.013   6.750  0.00  0.00    +0.062 C 
ATOM      7  C   UNL     1      -0.341   1.992   6.497  0.00  0.00    -0.003 A 
ATOM      8  C   UNL     1      -1.344   1.905   5.581  0.00  0.00    -0.006 A 
ATOM      9  C   UNL     1      -2.247   2.966   5.539  0.00  0.00    +0.014 A 
ATOM     10  C   UNL     1      -2.104   4.010   6.387  0.00  0.00    +0.046 A 
ATOM     11  S   UNL     1      -0.650   3.537   7.311  0.00  0.00    -0.101 S 
ATOM     12  C   UNL     1      -1.439   0.691   4.666  0.00  0.00    +0.222 C 
ATOM     13  H   UNL     1      -0.842   0.349   2.364  0.00  0.00    +0.150 HD
ENDROOT
BRANCH  12  14
ATOM     14  C   UNL     1      -2.588  -0.182   5.101  0.00  0.00    +0.381 C 
ATOM     15  O   UNL     1      -2.410  -1.051   5.938  0.00  0.00    -0.244 OA
ATOM     16  O   UNL     1      -3.695  -0.019   4.617  0.00  0.00    -0.244 OA
ENDBRANCH  12  14
BRANCH   1  17
ATOM     17  C   UNL     1       0.742  -0.510   1.242  0.00  0.00    +0.111 C 
BRANCH  17  19
ATOM     18  C   UNL     1      -0.024   1.525   0.011  0.00  0.00    +0.011 C 
ATOM     19  C   UNL     1       0.001  -0.005   0.002  0.00  0.00    +0.029 C 
BRANCH  19  20
ATOM     20  C   UNL     1       0.719  -0.496  -1.257  0.00  0.00    +0.164 C 
BRANCH  20  21
ATOM     21  O   UNL     1      -0.036  -0.124  -2.412  0.00  0.00    -0.383 OA
ATOM     22  C   UNL     1       0.550  -0.538  -3.647  0.00  0.00    +0.193 C 
ENDBRANCH  20  21
ENDBRANCH  19  20
ENDBRANCH  17  19
ENDBRANCH   1  17
TORSDOF 5
