REMARK  Name = ZINC01466156
REMARK  8 active torsions:
REMARK  status: ('A' for Active; 'I' for Inactive)
REMARK    1  A    between atoms: N_9  and  C_12
REMARK    2  A    between atoms: C_12  and  C_13
REMARK    3  A    between atoms: C_13  and  C_14
REMARK    4  A    between atoms: C_14  and  C_15
REMARK    5  A    between atoms: N_17  and  C_18
REMARK    6  A    between atoms: C_19  and  C_27
REMARK    7  A    between atoms: N_29  and  C_30
REMARK    8  A    between atoms: C_30  and  C_31
REMARK                            x       y       z     vdW  Elec       q    Type
REMARK                         _______ _______ _______ _____ _____    ______ ____
ROOT
ATOM      1  C   UNL     1      -7.762   2.318  -1.435  0.00  0.00    +0.084 A 
ATOM      2  C   UNL     1      -7.045   1.279  -0.859  0.00  0.00    +0.069 A 
ATOM      3  C   UNL     1      -7.657   0.577   0.256  0.00  0.00    -0.023 A 
ATOM      4  C   UNL     1      -8.883   1.019   0.611  0.00  0.00    -0.004 A 
ATOM      5  S   UNL     1      -9.227   2.346  -0.509  0.00  0.00    -0.077 S 
ATOM      6  C   UNL     1      -9.748   0.493   1.714  0.00  0.00    +0.043 C 
ATOM      7  C   UNL     1      -9.199  -0.874   2.150  0.00  0.00    +0.005 C 
ATOM      8  C   UNL     1      -7.686  -0.756   2.350  0.00  0.00    +0.005 C 
ATOM      9  C   UNL     1      -6.994  -0.578   0.997  0.00  0.00    +0.037 C 
ENDROOT
BRANCH   1  12
ATOM     10  C   UNL     1      -8.233   4.102  -2.919  0.00  0.00    +0.218 C 
ATOM     11  O   UNL     1      -9.306   4.258  -2.375  0.00  0.00    -0.275 OA
ATOM     12  N   UNL     1      -7.397   3.135  -2.494  0.00  0.00    -0.279 N 
ATOM     13  H   UNL     1      -6.539   3.010  -2.929  0.00  0.00    +0.155 HD
BRANCH  10  14
ATOM     14  C   UNL     1      -7.836   4.990  -4.070  0.00  0.00    +0.097 C 
BRANCH  14  15
ATOM     15  C   UNL     1      -8.955   5.995  -4.349  0.00  0.00    +0.029 C 
BRANCH  15  16
ATOM     16  C   UNL     1      -8.552   6.896  -5.518  0.00  0.00    +0.117 C 
BRANCH  16  25
ATOM     17  C   UNL     1     -12.683  11.313  -6.178  0.00  0.00    +0.001 A 
ATOM     18  C   UNL     1     -13.261  10.424  -7.064  0.00  0.00    +0.001 A 
ATOM     19  C   UNL     1     -12.681   9.187  -7.297  0.00  0.00    +0.014 A 
ATOM     20  C   UNL     1     -11.514   8.840  -6.635  0.00  0.00    +0.049 A 
ATOM     21  C   UNL     1     -10.925   9.747  -5.732  0.00  0.00    +0.049 A 
ATOM     22  C   UNL     1     -11.515  10.980  -5.510  0.00  0.00    +0.014 A 
ATOM     23  C   UNL     1      -9.716   9.073  -5.213  0.00  0.00    +0.254 C 
ATOM     24  O   UNL     1      -8.937   9.537  -4.405  0.00  0.00    -0.270 OA
ATOM     25  N   UNL     1      -9.623   7.859  -5.785  0.00  0.00    -0.234 N 
ATOM     26  C   UNL     1     -10.641   7.647  -6.639  0.00  0.00    +0.254 C 
ATOM     27  O   UNL     1     -10.815   6.643  -7.300  0.00  0.00    -0.270 OA
ENDBRANCH  16  25
ENDBRANCH  15  16
ENDBRANCH  14  15
ENDBRANCH  10  14
ENDBRANCH   1  12
BRANCH   2  28
ATOM     28  C   UNL     1      -5.716   0.907  -1.355  0.00  0.00    +0.247 C 
ATOM     29  O   UNL     1      -5.606   0.070  -2.232  0.00  0.00    -0.270 OA
ATOM     30  N   UNL     1      -4.617   1.492  -0.839  0.00  0.00    -0.309 N 
ATOM     31  H   UNL     1      -4.704   2.158  -0.140  0.00  0.00    +0.149 HD
BRANCH  30  32
ATOM     32  C   UNL     1      -3.289   1.120  -1.334  0.00  0.00    +0.136 C 
BRANCH  32  33
ATOM     33  C   UNL     1      -2.223   1.924  -0.587  0.00  0.00    +0.135 C 
ATOM     34  C   UNL     1      -0.833   1.634  -1.185  0.00  0.00    +0.035 C 
ATOM     35  C   UNL     1      -0.013   1.086   0.008  0.00  0.00    +0.031 C 
ATOM     36  C   UNL     1      -0.810   1.621   1.224  0.00  0.00    +0.160 C 
ATOM     37  O   UNL     1      -2.186   1.524   0.793  0.00  0.00    -0.375 OA
ENDBRANCH  32  33
ENDBRANCH  30  32
ENDBRANCH   2  28
TORSDOF 8
