REMARK  Name = ZINC39596215
REMARK  7 active torsions:
REMARK  status: ('A' for Active; 'I' for Inactive)
REMARK    1  A    between atoms: C_1  and  C_2
REMARK    2  A    between atoms: C_2  and  C_4
REMARK    3  A    between atoms: C_2  and  O_27
REMARK    4  A    between atoms: C_4  and  N_5
REMARK    5  A    between atoms: C_6  and  C_8
REMARK    6  A    between atoms: C_19  and  C_21
REMARK    7  A    between atoms: O_27  and  C_28
REMARK                            x       y       z     vdW  Elec       q    Type
REMARK                         _______ _______ _______ _____ _____    ______ ____
ROOT
ATOM      1  C   UNL     1       2.600  -2.340   3.111  0.00  0.00    +0.100 C 
ATOM      2  C   UNL     1       1.245  -3.062   3.288  0.00  0.00    +0.121 C 
ATOM      3  N   UNL     1       1.489  -4.060   4.356  0.00  0.00    -0.296 N 
ATOM      4  C   UNL     1       2.360  -3.355   5.327  0.00  0.00    +0.115 C 
ATOM      5  C   UNL     1       3.328  -2.533   4.452  0.00  0.00    -0.004 C 
ATOM      6  C   UNL     1       3.608  -1.182   5.102  0.00  0.00    -0.010 C 
ATOM      7  C   UNL     1       4.384  -1.397   6.404  0.00  0.00    -0.082 C 
ATOM      8  N   UNL     1       5.643  -2.094   6.116  0.00  0.00    +0.379 N 
ATOM      9  C   UNL     1       5.364  -3.430   5.577  0.00  0.00    -0.082 C 
ATOM     10  C   UNL     1       4.629  -3.301   4.240  0.00  0.00    -0.010 C 
ATOM     11  C   UNL     1       1.025  -5.323   4.428  0.00  0.00    +0.248 C 
ATOM     12  O   UNL     1       0.406  -5.797   3.496  0.00  0.00    -0.270 OA
ATOM     13  H   UNL     1       6.172  -1.564   5.439  0.00  0.00    -0.086 HD
ATOM     14  H   UNL     1       6.181  -2.180   6.965  0.00  0.00    -0.086 HD
ENDROOT
BRANCH  11  15
ATOM     15  C   UNL     1       1.267  -6.131   5.642  0.00  0.00    +0.055 A 
ATOM     16  C   UNL     1       1.581  -5.513   6.859  0.00  0.00    +0.016 A 
ATOM     17  C   UNL     1       1.798  -6.314   7.965  0.00  0.00    +0.020 A 
ATOM     18  C   UNL     1       1.700  -7.688   7.836  0.00  0.00    +0.111 A 
ATOM     19  N   UNL     1       1.402  -8.243   6.676  0.00  0.00    -0.263 NA
ATOM     20  C   UNL     1       1.181  -7.523   5.596  0.00  0.00    +0.123 A 
ENDBRANCH  11  15
BRANCH   1  22
ATOM     21  N   UNL     1       3.284  -0.179   2.119  0.00  0.00    -0.312 N 
ATOM     22  C   UNL     1       2.381  -0.873   2.840  0.00  0.00    +0.218 C 
ATOM     23  O   UNL     1       1.393  -0.318   3.271  0.00  0.00    -0.275 OA
ATOM     24  H   UNL     1       4.074  -0.624   1.775  0.00  0.00    +0.149 HD
BRANCH  21  25
ATOM     25  C   UNL     1       3.071   1.246   1.856  0.00  0.00    +0.148 C 
BRANCH  25  27
ATOM     26  C   UNL     1       4.012   3.278   0.747  0.00  0.00    +0.053 C 
ATOM     27  C   UNL     1       4.234   1.789   1.023  0.00  0.00    +0.187 C 
BRANCH  27  28
ATOM     28  O   UNL     1       5.457   1.615   1.741  0.00  0.00    -0.488 OA
BRANCH  28  29
ATOM     29  C   UNL     1       6.599   1.540   1.007  0.00  0.00    +0.121 A 
ATOM     30  C   UNL     1       7.805   1.249   1.627  0.00  0.00    +0.048 A 
ATOM     31  C   UNL     1       8.964   1.173   0.880  0.00  0.00    +0.042 A 
ATOM     32  C   UNL     1       8.923   1.388  -0.487  0.00  0.00    +0.124 A 
ATOM     33  C   UNL     1       7.720   1.679  -1.107  0.00  0.00    +0.042 A 
ATOM     34  C   UNL     1       6.558   1.749  -0.363  0.00  0.00    +0.048 A 
ATOM     35  F   UNL     1      10.058   1.314  -1.217  0.00  0.00    -0.205 F 
ENDBRANCH  28  29
ENDBRANCH  27  28
ENDBRANCH  25  27
ENDBRANCH  21  25
ENDBRANCH   1  22
TORSDOF 6
