REMARK  Name = ZINC38748483
REMARK  13 active torsions:
REMARK  status: ('A' for Active; 'I' for Inactive)
REMARK    1  A    between atoms: C_1  and  C_2
REMARK    2  A    between atoms: C_4  and  C_34
REMARK    3  A    between atoms: C_8  and  C_12
REMARK    4  A    between atoms: C_12  and  S_13
REMARK    5  A    between atoms: S_13  and  C_14
REMARK    6  A    between atoms: C_14  and  C_16
REMARK    7  A    between atoms: C_14  and  C_17
REMARK    8  A    between atoms: N_19  and  N_20
REMARK    9  A    between atoms: C_21  and  C_23
REMARK   10  A    between atoms: C_26  and  C_29
REMARK   11  A    between atoms: C_29  and  C_30
REMARK   12  A    between atoms: C_29  and  C_31
REMARK   13  A    between atoms: C_29  and  C_32
REMARK                            x       y       z     vdW  Elec       q    Type
REMARK                         _______ _______ _______ _____ _____    ______ ____
ROOT
ATOM      1  C   UNL     1       8.299  -5.724  -1.707  0.00  0.00    +0.242 C 
ATOM      2  O   UNL     1       8.243  -5.259  -2.826  0.00  0.00    -0.273 OA
ATOM      3  N   UNL     1       9.030  -6.832  -1.474  0.00  0.00    -0.233 N 
ATOM      4  H   UNL     1       9.076  -7.204  -0.580  0.00  0.00    +0.173 HD
ENDROOT
BRANCH   3   5
ATOM      5  N   UNL     1       9.725  -7.447  -2.524  0.00  0.00    -0.230 N 
ATOM      6  C   UNL     1      10.456  -8.555  -2.291  0.00  0.00    +0.260 C 
ATOM      7  O   UNL     1      10.513  -9.021  -1.170  0.00  0.00    -0.269 OA
ATOM      8  H   UNL     1       9.680  -7.074  -3.419  0.00  0.00    +0.173 HD
BRANCH   6   9
ATOM      9  C   UNL     1      11.189  -9.203  -3.400  0.00  0.00    +0.038 A 
ATOM     10  C   UNL     1      11.131  -8.667  -4.687  0.00  0.00    +0.013 A 
ATOM     11  C   UNL     1      11.818  -9.276  -5.716  0.00  0.00    +0.005 A 
ATOM     12  C   UNL     1      12.563 -10.417  -5.475  0.00  0.00    -0.042 A 
ATOM     13  C   UNL     1      12.625 -10.954  -4.201  0.00  0.00    +0.005 A 
ATOM     14  C   UNL     1      11.947 -10.351  -3.162  0.00  0.00    +0.013 A 
BRANCH  12  15
ATOM     15  C   UNL     1      13.310 -11.078  -6.604  0.00  0.00    -0.013 C 
ATOM     16  C   UNL     1      14.321 -10.091  -7.193  0.00  0.00    +0.015 C 
ATOM     17  C   UNL     1      14.048 -12.310  -6.076  0.00  0.00    +0.015 C 
ATOM     18  C   UNL     1      12.321 -11.503  -7.691  0.00  0.00    +0.015 C 
ENDBRANCH  12  15
ENDBRANCH   6   9
ENDBRANCH   3   5
BRANCH   1  19
ATOM     19  C   UNL     1       7.552  -5.063  -0.578  0.00  0.00    +0.131 C 
ATOM     20  C   UNL     1       8.490  -4.110   0.166  0.00  0.00    +0.029 C 
BRANCH  19  21
ATOM     21  S   UNL     1       6.148  -4.130  -1.246  0.00  0.00    -0.141 S 
BRANCH  21  22
ATOM     22  C   UNL     1       5.277  -3.531   0.228  0.00  0.00    +0.143 C 
BRANCH  22  29
ATOM     23  C   UNL     1      -0.019   1.526   0.010  0.00  0.00    +0.024 C 
ATOM     24  C   UNL     1       0.002  -0.004   0.002  0.00  0.00    +0.076 C 
ATOM     25  C   UNL     1       0.769  -0.528  -1.190  0.00  0.00    -0.045 C 
ATOM     26  C   UNL     1       1.868  -1.261  -0.953  0.00  0.00    +0.071 C 
ATOM     27  C   UNL     1       2.243  -1.498   0.457  0.00  0.00    +0.111 C 
ATOM     28  N   UNL     1       3.306  -2.207   0.754  0.00  0.00    -0.227 NA
ATOM     29  C   UNL     1       4.072  -2.729  -0.191  0.00  0.00    +0.133 C 
ATOM     30  N   UNL     1       3.837  -2.585  -1.473  0.00  0.00    -0.161 NA
ATOM     31  C   UNL     1       2.796  -1.891  -1.945  0.00  0.00    +0.271 C 
ATOM     32  O   UNL     1       2.607  -1.777  -3.144  0.00  0.00    -0.268 OA
ATOM     33  S   UNL     1       0.997  -0.657   1.404  0.00  0.00    -0.098 S 
ATOM     34  C   UNL     1       0.315  -0.239  -2.598  0.00  0.00    +0.041 C 
ENDBRANCH  22  29
ENDBRANCH  21  22
ENDBRANCH  19  21
ENDBRANCH   1  19
TORSDOF 7
