REMARK  Name = ZINC64711221
REMARK  10 active torsions:
REMARK  status: ('A' for Active; 'I' for Inactive)
REMARK    1  A    between atoms: C_1  and  C_2
REMARK    2  A    between atoms: C_3  and  S_8
REMARK    3  A    between atoms: C_4  and  C_7
REMARK    4  A    between atoms: S_8  and  N_11
REMARK    5  A    between atoms: N_11  and  C_12
REMARK    6  A    between atoms: C_12  and  C_13
REMARK    7  A    between atoms: C_13  and  C_15
REMARK    8  A    between atoms: C_13  and  C_23
REMARK    9  A    between atoms: C_18  and  O_21
REMARK   10  A    between atoms: O_21  and  C_22
REMARK                            x       y       z     vdW  Elec       q    Type
REMARK                         _______ _______ _______ _____ _____    ______ ____
ROOT
ATOM      1  C   UNL     1       3.700  -0.905  -4.169  0.00  0.00    +0.063 C 
ENDROOT
BRANCH   1   2
ATOM      2  C   UNL     1       3.318  -0.586  -5.591  0.00  0.00    -0.033 C 
ATOM      3  C   UNL     1       3.526   0.578  -6.248  0.00  0.00    -0.000 A 
ATOM      4  C   UNL     1       4.144   1.848  -5.849  0.00  0.00    +0.010 A 
ATOM      5  C   UNL     1       4.208   2.857  -6.746  0.00  0.00    +0.001 A 
ATOM      6  C   UNL     1       3.698   2.722  -8.045  0.00  0.00    +0.002 A 
ATOM      7  C   UNL     1       3.116   1.586  -8.485  0.00  0.00    +0.026 A 
ATOM      8  C   UNL     1       2.995   0.460  -7.625  0.00  0.00    +0.043 A 
ATOM      9  N   UNL     1       2.480  -0.731  -7.812  0.00  0.00    -0.380 N 
ATOM     10  C   UNL     1       2.631  -1.506  -6.576  0.00  0.00    +0.145 C 
ATOM     11  H   UNL     1       2.071  -1.048  -8.633  0.00  0.00    +0.160 HD
ENDBRANCH   1   2
BRANCH   1  12
ATOM     12  C   UNL     1       4.654  -2.071  -4.154  0.00  0.00    -0.039 A 
ATOM     13  C   UNL     1       4.264  -3.289  -4.681  0.00  0.00    +0.008 A 
ATOM     14  C   UNL     1       5.137  -4.359  -4.669  0.00  0.00    +0.046 A 
ATOM     15  C   UNL     1       6.405  -4.213  -4.127  0.00  0.00    +0.120 A 
ATOM     16  C   UNL     1       6.794  -2.990  -3.598  0.00  0.00    +0.046 A 
ATOM     17  C   UNL     1       5.920  -1.921  -3.618  0.00  0.00    +0.008 A 
BRANCH  15  18
ATOM     18  O   UNL     1       7.265  -5.265  -4.112  0.00  0.00    -0.495 OA
ATOM     19  C   UNL     1       8.555  -5.041  -3.538  0.00  0.00    +0.277 C 
ENDBRANCH  15  18
ENDBRANCH   1  12
BRANCH   1  20
ATOM     20  C   UNL     1       2.444  -1.263  -3.371  0.00  0.00    +0.118 C 
BRANCH  20  21
ATOM     21  N   UNL     1       1.570  -0.091  -3.285  0.00  0.00    -0.189 NA
ATOM     22  H   UNL     1       1.915   0.789  -3.504  0.00  0.00    +0.148 HD
BRANCH  21  23
ATOM     23  S   UNL     1      -0.008  -0.267  -2.813  0.00  0.00    +0.064 S 
ATOM     24  O   UNL     1      -0.547  -1.328  -3.589  0.00  0.00    -0.153 OA
ATOM     25  O   UNL     1      -0.577   1.035  -2.802  0.00  0.00    -0.153 OA
BRANCH  23  28
ATOM     26  C   UNL     1      -0.018   1.503   0.010  0.00  0.00    +0.071 C 
ATOM     27  C   UNL     1       0.002  -0.004   0.002  0.00  0.00    +0.107 A 
ATOM     28  C   UNL     1       0.008  -0.824  -1.141  0.00  0.00    +0.169 A 
ATOM     29  C   UNL     1       0.027  -2.108  -0.735  0.00  0.00    +0.161 A 
ATOM     30  O   UNL     1       0.034  -2.119   0.606  0.00  0.00    -0.358 OA
ATOM     31  N   UNL     1       0.023  -0.775   1.052  0.00  0.00    -0.081 NA
ATOM     32  C   UNL     1       0.039  -3.320  -1.631  0.00  0.00    +0.091 C 
ENDBRANCH  23  28
ENDBRANCH  21  23
ENDBRANCH  20  21
ENDBRANCH   1  20
TORSDOF 7
