REMARK  Name = ZINC04980565
REMARK  11 active torsions:
REMARK  status: ('A' for Active; 'I' for Inactive)
REMARK    1  A    between atoms: C_1  and  C_2
REMARK    2  A    between atoms: C_2  and  C_3
REMARK    3  A    between atoms: C_2  and  C_4
REMARK    4  A    between atoms: C_2  and  C_28
REMARK    5  A    between atoms: C_4  and  N_5
REMARK    6  A    between atoms: N_5  and  C_6
REMARK    7  A    between atoms: C_8  and  C_22
REMARK    8  A    between atoms: C_13  and  C_15
REMARK    9  A    between atoms: C_28  and  N_59
REMARK   10  A    between atoms: C_29  and  N_59
REMARK   11  A    between atoms: C_30  and  N_59
REMARK                            x       y       z     vdW  Elec       q    Type
REMARK                         _______ _______ _______ _____ _____    ______ ____
ROOT
ATOM      1  C   UNL     1      -1.571   4.603   0.290  0.00  0.00    +0.125 A 
ATOM      2  C   UNL     1      -1.932   5.904   0.496  0.00  0.00    +0.072 A 
ATOM      3  C   UNL     1      -0.935   6.894   0.545  0.00  0.00    +0.077 A 
ATOM      4  N   UNL     1       0.337   6.565   0.390  0.00  0.00    -0.228 NA
ATOM      5  C   UNL     1       0.698   5.292   0.183  0.00  0.00    +0.159 A 
ATOM      6  N   UNL     1      -0.245   4.296   0.128  0.00  0.00    -0.200 N 
ATOM      7  N   UNL     1       0.421   3.086  -0.097  0.00  0.00    -0.163 NA
ATOM      8  C   UNL     1       1.718   3.322  -0.177  0.00  0.00    +0.095 A 
ATOM      9  C   UNL     1       1.935   4.692  -0.007  0.00  0.00    +0.078 A 
ENDROOT
BRANCH   8  10
ATOM     10  C   UNL     1       2.770   2.301  -0.408  0.00  0.00    +0.005 A 
ATOM     11  C   UNL     1       2.422   0.960  -0.562  0.00  0.00    +0.010 A 
ATOM     12  C   UNL     1       3.404   0.014  -0.777  0.00  0.00    +0.003 A 
ATOM     13  C   UNL     1       4.732   0.394  -0.841  0.00  0.00    +0.038 A 
ATOM     14  C   UNL     1       5.085   1.724  -0.688  0.00  0.00    +0.124 A 
ATOM     15  C   UNL     1       4.108   2.680  -0.477  0.00  0.00    +0.048 A 
ATOM     16  F   UNL     1       6.384   2.090  -0.751  0.00  0.00    -0.205 F 
ENDBRANCH   8  10
BRANCH   3  17
ATOM     17  C   UNL     1      -1.310   8.310   0.772  0.00  0.00    +0.001 A 
ATOM     18  C   UNL     1      -2.650   8.663   0.931  0.00  0.00    +0.010 A 
ATOM     19  C   UNL     1      -2.992   9.982   1.147  0.00  0.00    +0.001 A 
ATOM     20  C   UNL     1      -2.010  10.955   1.195  0.00  0.00    +0.000 A 
ATOM     21  C   UNL     1      -0.680  10.612   1.033  0.00  0.00    +0.001 A 
ATOM     22  C   UNL     1      -0.325   9.296   0.822  0.00  0.00    +0.010 A 
ENDBRANCH   3  17
BRANCH   1  23
ATOM     23  N   UNL     1      -2.529   3.611   0.243  0.00  0.00    -0.328 N 
ATOM     24  H   UNL     1      -2.266   2.690   0.094  0.00  0.00    +0.147 HD
BRANCH  23  25
ATOM     25  C   UNL     1      -3.943   3.950   0.418  0.00  0.00    +0.107 C 
BRANCH  25  27
ATOM     26  C   UNL     1      -4.584   2.033  -1.050  0.00  0.00    +0.010 C 
ATOM     27  C   UNL     1      -4.788   2.678   0.322  0.00  0.00    -0.034 C 
ATOM     28  C   UNL     1      -4.359   1.697   1.415  0.00  0.00    +0.010 C 
BRANCH  27  29
ATOM     29  C   UNL     1      -6.265   3.031   0.504  0.00  0.00    -0.072 C 
BRANCH  29  32
ATOM     30  C   UNL     1      -7.152   3.118  -1.747  0.00  0.00    -0.097 C 
ATOM     31  C   UNL     1      -7.747   4.833  -0.145  0.00  0.00    -0.097 C 
ATOM     32  N   UNL     1      -6.676   3.922  -0.602  0.00  0.00    +0.376 N 
ATOM     33  H   UNL     1      -5.867   4.480  -0.899  0.00  0.00    -0.083 HD
ENDBRANCH  29  32
ENDBRANCH  27  29
ENDBRANCH  25  27
ENDBRANCH  23  25
ENDBRANCH   1  23
TORSDOF 7
