REMARK  Name = ZINC20286957
REMARK  15 active torsions:
REMARK  status: ('A' for Active; 'I' for Inactive)
REMARK    1  A    between atoms: C_1  and  C_2
REMARK    2  A    between atoms: C_2  and  C_3
REMARK    3  A    between atoms: C_3  and  C_4
REMARK    4  A    between atoms: N_6  and  C_28
REMARK    5  A    between atoms: C_10  and  C_11
REMARK    6  A    between atoms: C_10  and  N_12
REMARK    7  A    between atoms: N_12  and  N_13
REMARK    8  A    between atoms: C_14  and  C_16
REMARK    9  A    between atoms: C_18  and  O_26
REMARK   10  A    between atoms: C_19  and  O_24
REMARK   11  A    between atoms: C_20  and  O_22
REMARK   12  A    between atoms: O_22  and  C_23
REMARK   13  A    between atoms: O_24  and  C_25
REMARK   14  A    between atoms: O_26  and  C_27
REMARK   15  A    between atoms: C_31  and  N_34
REMARK                            x       y       z     vdW  Elec       q    Type
REMARK                         _______ _______ _______ _____ _____    ______ ____
ROOT
ATOM      1  C   UNL     1      -1.390  -2.027   0.301  0.00  0.00    +0.074 C 
ATOM      2  N   UNL     1      -0.329  -2.767   0.402  0.00  0.00    -0.176 NA
ATOM      3  N   UNL     1      -0.661  -4.118   0.501  0.00  0.00    -0.156 N 
ATOM      4  C   UNL     1      -2.000  -4.270   0.463  0.00  0.00    +0.274 C 
ATOM      5  O   UNL     1      -2.621  -5.318   0.526  0.00  0.00    -0.268 OA
ATOM      6  C   UNL     1      -2.559  -2.919   0.336  0.00  0.00    +0.080 C 
ATOM      7  C   UNL     1      -3.894  -2.562   0.263  0.00  0.00    +0.033 C 
ATOM      8  C   UNL     1      -4.956  -3.628   0.178  0.00  0.00    +0.063 C 
ENDROOT
BRANCH   3   9
ATOM      9  C   UNL     1       0.263  -5.164   0.621  0.00  0.00    +0.060 A 
ATOM     10  C   UNL     1      -0.181  -6.478   0.706  0.00  0.00    +0.028 A 
ATOM     11  C   UNL     1       0.732  -7.507   0.824  0.00  0.00    +0.034 A 
ATOM     12  C   UNL     1       2.087  -7.231   0.859  0.00  0.00    +0.126 A 
ATOM     13  C   UNL     1       2.531  -5.925   0.775  0.00  0.00    +0.034 A 
ATOM     14  C   UNL     1       1.624  -4.891   0.650  0.00  0.00    +0.028 A 
BRANCH  12  15
ATOM     15  N   UNL     1       3.062  -8.337   0.986  0.00  0.00    +0.056 N 
ATOM     16  O   UNL     1       2.675  -9.480   1.060  0.00  0.00    -0.126 OA
ATOM     17  O   UNL     1       4.247  -8.097   1.017  0.00  0.00    -0.126 OA
ENDBRANCH  12  15
ENDBRANCH   3   9
BRANCH   7  18
ATOM     18  N   UNL     1      -4.246  -1.260   0.267  0.00  0.00    -0.268 N 
ATOM     19  H   UNL     1      -3.561  -0.573   0.243  0.00  0.00    +0.170 HD
BRANCH  18  20
ATOM     20  N   UNL     1      -5.599  -0.899   0.307  0.00  0.00    -0.233 N 
ATOM     21  C   UNL     1      -5.955   0.397   0.205  0.00  0.00    +0.260 C 
ATOM     22  O   UNL     1      -5.110   1.243  -0.014  0.00  0.00    -0.269 OA
ATOM     23  H   UNL     1      -6.280  -1.583   0.407  0.00  0.00    +0.173 HD
BRANCH  21  24
ATOM     24  C   UNL     1      -7.369   0.788   0.361  0.00  0.00    +0.045 A 
ATOM     25  C   UNL     1      -8.323  -0.165   0.727  0.00  0.00    +0.062 A 
ATOM     26  C   UNL     1      -9.647   0.204   0.872  0.00  0.00    +0.166 A 
ATOM     27  C   UNL     1     -10.031   1.525   0.653  0.00  0.00    +0.204 A 
ATOM     28  C   UNL     1      -9.082   2.477   0.289  0.00  0.00    +0.166 A 
ATOM     29  C   UNL     1      -7.756   2.114   0.148  0.00  0.00    +0.062 A 
BRANCH  28  30
ATOM     30  O   UNL     1      -9.460   3.766   0.076  0.00  0.00    -0.491 OA
ATOM     31  C   UNL     1      -8.435   4.689  -0.295  0.00  0.00    +0.277 C 
ENDBRANCH  28  30
BRANCH  27  32
ATOM     32  O   UNL     1     -11.333   1.885   0.795  0.00  0.00    -0.488 OA
ATOM     33  C   UNL     1     -11.748   2.321   2.092  0.00  0.00    +0.277 C 
ENDBRANCH  27  32
BRANCH  26  34
ATOM     34  O   UNL     1     -10.576  -0.723   1.228  0.00  0.00    -0.491 OA
ATOM     35  C   UNL     1     -10.098  -2.032   1.542  0.00  0.00    +0.277 C 
ENDBRANCH  26  34
ENDBRANCH  21  24
ENDBRANCH  18  20
ENDBRANCH   7  18
BRANCH   1  36
ATOM     36  C   UNL     1      -1.419  -0.525   0.177  0.00  0.00    +0.057 C 
BRANCH  36  38
ATOM     37  C   UNL     1      -0.011   1.535   0.060  0.00  0.00    +0.004 C 
ATOM     38  C   UNL     1       0.011   0.005   0.062  0.00  0.00    +0.003 C 
ENDBRANCH  36  38
ENDBRANCH   1  36
TORSDOF 10
