REMARK  Name = ZINC32691111
REMARK  8 active torsions:
REMARK  status: ('A' for Active; 'I' for Inactive)
REMARK    1  A    between atoms: C_1  and  C_2
REMARK    2  A    between atoms: C_6  and  C_8
REMARK    3  A    between atoms: C_11  and  S_19
REMARK    4  A    between atoms: N_12  and  C_13
REMARK    5  A    between atoms: S_19  and  C_20
REMARK    6  A    between atoms: C_20  and  C_21
REMARK    7  A    between atoms: C_27  and  S_29
REMARK    8  A    between atoms: S_29  and  C_30
REMARK                            x       y       z     vdW  Elec       q    Type
REMARK                         _______ _______ _______ _____ _____    ______ ____
ROOT
ATOM      1  C   UNL     1       6.014   2.840  -0.041  0.00  0.00    +0.165 A 
ATOM      2  N   UNL     1       5.123   3.722   0.349  0.00  0.00    -0.128 NA
ATOM      3  N   UNL     1       3.940   3.235   0.223  0.00  0.00    -0.122 NA
ATOM      4  C   UNL     1       4.004   2.009  -0.247  0.00  0.00    +0.193 A 
ATOM      5  N   UNL     1       5.325   1.716  -0.434  0.00  0.00    -0.299 N 
ENDROOT
BRANCH   1  11
ATOM      6  C   UNL     1       9.993   5.811  -0.530  0.00  0.00    +0.044 C 
ATOM      7  C   UNL     1       9.399   4.447  -0.289  0.00  0.00    -0.050 A 
ATOM      8  C   UNL     1      10.229   3.360  -0.078  0.00  0.00    +0.003 A 
ATOM      9  C   UNL     1       9.692   2.104   0.144  0.00  0.00    +0.001 A 
ATOM     10  C   UNL     1       8.324   1.930   0.162  0.00  0.00    +0.011 A 
ATOM     11  C   UNL     1       7.481   3.021  -0.054  0.00  0.00    +0.020 A 
ATOM     12  C   UNL     1       8.030   4.285  -0.278  0.00  0.00    +0.015 A 
ENDBRANCH   1  11
BRANCH   5  13
ATOM     13  C   UNL     1       5.890   0.466  -0.946  0.00  0.00    +0.091 C 
ATOM     14  C   UNL     1       5.256   0.136  -2.299  0.00  0.00    +0.025 C 
ATOM     15  C   UNL     1       5.846  -1.170  -2.835  0.00  0.00    +0.002 C 
ATOM     16  C   UNL     1       5.558  -2.303  -1.847  0.00  0.00    +0.000 C 
ATOM     17  C   UNL     1       6.192  -1.973  -0.494  0.00  0.00    +0.002 C 
ATOM     18  C   UNL     1       5.601  -0.667   0.041  0.00  0.00    +0.025 C 
ENDBRANCH   5  13
BRANCH   4  19
ATOM     19  S   UNL     1       2.640   0.945  -0.580  0.00  0.00    -0.077 S 
BRANCH  19  20
ATOM     20  C   UNL     1       1.272   2.023  -0.088  0.00  0.00    +0.173 C 
BRANCH  20  21
ATOM     21  C   UNL     1      -0.035   1.302  -0.292  0.00  0.00    +0.229 C 
ATOM     22  O   UNL     1      -0.041   0.170  -0.727  0.00  0.00    -0.275 OA
ATOM     23  N   UNL     1      -1.197   1.917   0.004  0.00  0.00    -0.263 N 
ATOM     24  C   UNL     1      -2.406   1.252  -0.190  0.00  0.00    +0.189 A 
ATOM     25  N   UNL     1      -2.642   0.035  -0.652  0.00  0.00    -0.125 NA
ATOM     26  N   UNL     1      -3.812  -0.422  -0.764  0.00  0.00    -0.133 NA
ATOM     27  C   UNL     1      -4.878   0.293  -0.434  0.00  0.00    +0.160 A 
ATOM     28  S   UNL     1      -4.083   1.803   0.108  0.00  0.00    -0.024 S 
ATOM     29  H   UNL     1      -1.192   2.943   0.399  0.00  0.00    +0.157 HD
BRANCH  27  30
ATOM     30  S   UNL     1      -6.589  -0.123  -0.507  0.00  0.00    -0.094 S 
BRANCH  30  31
ATOM     31  C   UNL     1      -6.601  -1.816  -1.159  0.00  0.00    +0.053 C 
ATOM     32  C   UNL     1      -6.057  -1.816  -2.589  0.00  0.00    +0.014 C 
ATOM     33  C   UNL     1      -6.067  -3.243  -3.139  0.00  0.00    +0.001 C 
ATOM     34  C   UNL     1      -7.500  -3.780  -3.138  0.00  0.00    +0.000 C 
ATOM     35  C   UNL     1      -8.044  -3.780  -1.708  0.00  0.00    +0.001 C 
ATOM     36  C   UNL     1      -8.034  -2.353  -1.158  0.00  0.00    +0.014 C 
ENDBRANCH  30  31
ENDBRANCH  27  30
ENDBRANCH  20  21
ENDBRANCH  19  20
ENDBRANCH   4  19
TORSDOF 7
