REMARK  Name = ZINC39939200
REMARK  11 active torsions:
REMARK  status: ('A' for Active; 'I' for Inactive)
REMARK    1  A    between atoms: C_1  and  C_2
REMARK    2  A    between atoms: C_7  and  C_9
REMARK    3  A    between atoms: C_7  and  C_10
REMARK    4  A    between atoms: N_11  and  C_13
REMARK    5  A    between atoms: C_13  and  N_14
REMARK    6  A    between atoms: N_22  and  N_23
REMARK    7  A    between atoms: C_24  and  C_26
REMARK    8  A    between atoms: C_29  and  C_32
REMARK    9  A    between atoms: C_32  and  C_33
REMARK   10  A    between atoms: C_32  and  C_34
REMARK   11  A    between atoms: C_32  and  C_35
REMARK                            x       y       z     vdW  Elec       q    Type
REMARK                         _______ _______ _______ _____ _____    ______ ____
ROOT
ATOM      1  N   UNL     1      -3.509  -2.721  -0.667  0.00  0.00    -0.282 N 
ATOM      2  C   UNL     1      -4.219  -2.077   0.341  0.00  0.00    +0.044 A 
ATOM      3  C   UNL     1      -3.817  -1.557   1.567  0.00  0.00    +0.024 A 
ATOM      4  C   UNL     1      -4.739  -0.956   2.400  0.00  0.00    +0.002 A 
ATOM      5  C   UNL     1      -6.070  -0.864   2.030  0.00  0.00    +0.001 A 
ATOM      6  C   UNL     1      -6.487  -1.375   0.817  0.00  0.00    +0.012 A 
ATOM      7  C   UNL     1      -5.566  -1.982  -0.029  0.00  0.00    +0.028 A 
ATOM      8  C   UNL     1      -5.679  -2.615  -1.364  0.00  0.00    +0.153 C 
ATOM      9  N   UNL     1      -6.759  -2.752  -2.094  0.00  0.00    -0.174 NA
ATOM     10  C   UNL     1      -4.309  -3.055  -1.694  0.00  0.00    +0.270 C 
ATOM     11  O   UNL     1      -3.965  -3.623  -2.714  0.00  0.00    -0.268 OA
ENDROOT
BRANCH   9  12
ATOM     12  N   UNL     1      -6.685  -3.382  -3.343  0.00  0.00    -0.202 N 
ATOM     13  C   UNL     1      -7.796  -3.523  -4.094  0.00  0.00    +0.263 C 
ATOM     14  O   UNL     1      -8.861  -3.102  -3.688  0.00  0.00    -0.268 OA
ATOM     15  H   UNL     1      -5.835  -3.718  -3.667  0.00  0.00    +0.178 HD
BRANCH  13  16
ATOM     16  C   UNL     1      -7.718  -4.188  -5.411  0.00  0.00    +0.038 A 
ATOM     17  C   UNL     1      -6.496  -4.677  -5.878  0.00  0.00    +0.013 A 
ATOM     18  C   UNL     1      -6.430  -5.297  -7.109  0.00  0.00    +0.005 A 
ATOM     19  C   UNL     1      -7.571  -5.434  -7.880  0.00  0.00    -0.042 A 
ATOM     20  C   UNL     1      -8.785  -4.950  -7.423  0.00  0.00    +0.005 A 
ATOM     21  C   UNL     1      -8.866  -4.335  -6.192  0.00  0.00    +0.013 A 
BRANCH  19  22
ATOM     22  C   UNL     1      -7.492  -6.111  -9.224  0.00  0.00    -0.013 C 
ATOM     23  C   UNL     1      -6.991  -7.546  -9.043  0.00  0.00    +0.015 C 
ATOM     24  C   UNL     1      -8.880  -6.133  -9.867  0.00  0.00    +0.015 C 
ATOM     25  C   UNL     1      -6.523  -5.343 -10.126  0.00  0.00    +0.015 C 
ENDBRANCH  19  22
ENDBRANCH  13  16
ENDBRANCH   9  12
BRANCH   1  26
ATOM     26  C   UNL     1      -2.071  -2.993  -0.618  0.00  0.00    +0.039 C 
BRANCH  26  36
ATOM     27  C   UNL     1      -0.142   1.523  -0.839  0.00  0.00    +0.009 C 
ATOM     28  C   UNL     1      -0.069   0.015  -0.559  0.00  0.00    -0.048 C 
ATOM     29  C   UNL     1       0.677  -0.759  -1.681  0.00  0.00    -0.011 C 
ATOM     30  C   UNL     1       0.094  -2.180  -1.438  0.00  0.00    -0.065 C 
ATOM     31  C   UNL     1       0.729  -2.731  -0.176  0.00  0.00    -0.009 C 
ATOM     32  C   UNL     1       0.851  -1.790   1.002  0.00  0.00    -0.036 C 
ATOM     33  C   UNL     1       0.657  -0.309   0.747  0.00  0.00    +0.011 C 
ATOM     34  C   UNL     1      -0.109  -2.240   2.119  0.00  0.00    +0.011 C 
ATOM     35  C   UNL     1       2.282  -1.966   1.577  0.00  0.00    +0.011 C 
ATOM     36  N   UNL     1      -1.348  -1.910  -1.273  0.00  0.00    +0.393 N 
ATOM     37  C   UNL     1      -1.466  -0.645  -0.523  0.00  0.00    -0.070 C 
ATOM     38  H   UNL     1      -1.754  -1.763  -2.200  0.00  0.00    -0.079 HD
ENDBRANCH  26  36
ENDBRANCH   1  26
TORSDOF 5
