REMARK  Name = ZINC56519528
REMARK  6 active torsions:
REMARK  status: ('A' for Active; 'I' for Inactive)
REMARK    1  A    between atoms: C_1  and  C_2
REMARK    2  A    between atoms: C_5  and  C_26
REMARK    3  A    between atoms: C_6  and  N_8
REMARK    4  A    between atoms: N_11  and  C_12
REMARK    5  A    between atoms: C_12  and  C_13
REMARK    6  A    between atoms: C_13  and  C_19
REMARK                            x       y       z     vdW  Elec       q    Type
REMARK                         _______ _______ _______ _____ _____    ______ ____
ROOT
ATOM      1  N   UNL     1       0.046  -2.802   2.393  0.00  0.00    -0.269 N 
ATOM      2  C   UNL     1       0.147  -2.138   3.562  0.00  0.00    +0.304 C 
ATOM      3  O   UNL     1       0.134  -0.922   3.573  0.00  0.00    -0.253 OA
ATOM      4  N   UNL     1       0.263  -2.821   4.717  0.00  0.00    -0.298 N 
ATOM      5  H   UNL     1      -0.026  -3.769   2.390  0.00  0.00    +0.156 HD
ATOM      6  H   UNL     1       0.273  -3.791   4.708  0.00  0.00    +0.150 HD
ENDROOT
BRANCH   1  12
ATOM      7  C   UNL     1       1.274   1.215  -0.163  0.00  0.00    +0.044 C 
ATOM      8  C   UNL     1       0.633  -0.147  -0.082  0.00  0.00    -0.049 A 
ATOM      9  C   UNL     1       0.042  -0.700  -1.204  0.00  0.00    +0.004 A 
ATOM     10  C   UNL     1      -0.547  -1.948  -1.134  0.00  0.00    +0.005 A 
ATOM     11  C   UNL     1      -0.547  -2.648   0.057  0.00  0.00    -0.029 A 
ATOM     12  C   UNL     1       0.045  -2.095   1.185  0.00  0.00    +0.038 A 
ATOM     13  C   UNL     1       0.641  -0.843   1.110  0.00  0.00    +0.027 A 
ATOM     14  C   UNL     1      -1.190  -4.009   0.132  0.00  0.00    +0.045 C 
ENDBRANCH   1  12
BRANCH   4  15
ATOM     15  C   UNL     1       0.373  -2.099   5.987  0.00  0.00    +0.117 C 
BRANCH  15  16
ATOM     16  C   UNL     1       0.618  -3.097   7.121  0.00  0.00    +0.015 C 
ATOM     17  C   UNL     1       0.864  -2.337   8.428  0.00  0.00    +0.041 C 
ATOM     18  C   UNL     1       2.133  -1.492   8.287  0.00  0.00    +0.160 C 
ATOM     19  O   UNL     1       3.234  -2.341   7.956  0.00  0.00    -0.380 OA
ATOM     20  C   UNL     1       3.080  -3.041   6.720  0.00  0.00    +0.160 C 
ATOM     21  C   UNL     1       1.850  -3.948   6.798  0.00  0.00    +0.041 C 
BRANCH  16  22
ATOM     22  C   UNL     1      -0.586  -3.991   7.275  0.00  0.00    -0.039 A 
ATOM     23  C   UNL     1      -0.437  -5.364   7.225  0.00  0.00    +0.007 A 
ATOM     24  C   UNL     1      -1.540  -6.185   7.366  0.00  0.00    +0.038 A 
ATOM     25  C   UNL     1      -2.795  -5.631   7.558  0.00  0.00    +0.123 A 
ATOM     26  C   UNL     1      -2.942  -4.255   7.608  0.00  0.00    +0.038 A 
ATOM     27  C   UNL     1      -1.837  -3.437   7.472  0.00  0.00    +0.007 A 
ATOM     28  F   UNL     1      -3.874  -6.432   7.695  0.00  0.00    -0.205 F 
ENDBRANCH  16  22
ENDBRANCH  15  16
ENDBRANCH   4  15
TORSDOF 4
