REMARK  Name = ZINC18168426
REMARK  2 active torsions:
REMARK  status: ('A' for Active; 'I' for Inactive)
REMARK    1  A    between atoms: C_4  and  O_18
REMARK    2  A    between atoms: C_9  and  O_17
REMARK                            x       y       z     vdW  Elec       q    Type
REMARK                         _______ _______ _______ _____ _____    ______ ____
ROOT
ATOM      1  C   UNL     1      -0.019   1.525   0.010  0.00  0.00    +0.003 C 
ATOM      2  C   UNL     1       1.419   2.050  -0.001  0.00  0.00    +0.005 C 
ATOM      3  C   UNL     1       2.123   1.565  -1.269  0.00  0.00    +0.067 C 
ATOM      4  C   UNL     1       2.136   0.039  -1.303  0.00  0.00    +0.194 C 
ATOM      5  C   UNL     1       0.706  -0.503  -1.262  0.00  0.00    +0.181 C 
ATOM      6  C   UNL     1       0.002  -0.004   0.002  0.00  0.00    +0.037 C 
ATOM      7  O   UNL     1       0.753  -1.937  -1.226  0.00  0.00    -0.338 OA
ATOM      8  C   UNL     1       1.486  -2.441  -0.108  0.00  0.00    +0.194 C 
ATOM      9  C   UNL     1       1.524  -3.969  -0.137  0.00  0.00    +0.067 C 
ATOM     10  C   UNL     1       2.299  -4.474   1.083  0.00  0.00    +0.005 C 
ATOM     11  C   UNL     1       3.724  -3.920   1.058  0.00  0.00    +0.003 C 
ATOM     12  C   UNL     1       3.684  -2.389   1.067  0.00  0.00    +0.037 C 
ATOM     13  C   UNL     1       2.917  -1.901  -0.161  0.00  0.00    +0.181 C 
ATOM     14  O   UNL     1       2.877  -0.473  -0.192  0.00  0.00    -0.338 OA
ENDROOT
BRANCH   8  15
ATOM     15  O   UNL     1       0.861  -2.010   1.103  0.00  0.00    -0.363 OA
ATOM     16  H   UNL     1      -0.054  -2.309   1.202  0.00  0.00    +0.213 HD
ENDBRANCH   8  15
BRANCH   4  17
ATOM     17  O   UNL     1       2.748  -0.398  -2.518  0.00  0.00    -0.363 OA
ATOM     18  H   UNL     1       3.662  -0.101  -2.627  0.00  0.00    +0.213 HD
ENDBRANCH   4  17
TORSDOF 2
