REMARK  Name = ZINC46550043
REMARK  2 active torsions:
REMARK  status: ('A' for Active; 'I' for Inactive)
REMARK    1  A    between atoms: C_6  and  N_7
REMARK    2  A    between atoms: C_8  and  C_10
REMARK                            x       y       z     vdW  Elec       q    Type
REMARK                         _______ _______ _______ _____ _____    ______ ____
ROOT
ATOM      1  N   UNL     1      -1.201  -0.720   0.008  0.00  0.00    -0.280 N 
ATOM      2  C   UNL     1      -1.296  -1.883  -0.667  0.00  0.00    +0.265 C 
ATOM      3  O   UNL     1      -0.313  -2.356  -1.206  0.00  0.00    -0.268 OA
ATOM      4  H   UNL     1      -1.967  -0.377   0.494  0.00  0.00    +0.155 HD
ENDROOT
BRANCH   1  10
ATOM      5  C   UNL     1      -0.010   1.380   0.013  0.00  0.00    +0.027 A 
ATOM      6  C   UNL     1       1.179   2.086   0.012  0.00  0.00    +0.051 A 
ATOM      7  C   UNL     1       2.386   1.410   0.007  0.00  0.00    +0.167 A 
ATOM      8  C   UNL     1       2.404   0.015   0.004  0.00  0.00    +0.169 A 
ATOM      9  C   UNL     1       1.215  -0.691   0.004  0.00  0.00    +0.073 A 
ATOM     10  C   UNL     1       0.004  -0.008   0.009  0.00  0.00    +0.037 A 
ATOM     11  O   UNL     1       3.710  -0.399   0.002  0.00  0.00    -0.447 OA
ATOM     12  C   UNL     1       4.429   0.738  -0.499  0.00  0.00    +0.254 C 
ATOM     13  O   UNL     1       3.683   1.856   0.004  0.00  0.00    -0.448 OA
ATOM     14  C   UNL     1       5.872   0.755   0.017  0.00  0.00    +0.093 C 
ATOM     15  C   UNL     1       6.696   0.176  -1.163  0.00  0.00    +0.008 C 
ATOM     16  C   UNL     1       5.979   0.761  -2.406  0.00  0.00    +0.008 C 
ATOM     17  C   UNL     1       4.481   0.739  -2.026  0.00  0.00    +0.093 C 
ENDBRANCH   1  10
BRANCH   2  18
ATOM     18  C   UNL     1      -2.588  -2.580  -0.752  0.00  0.00    +0.103 A 
ATOM     19  C   UNL     1      -2.808  -3.756  -1.396  0.00  0.00    +0.041 A 
ATOM     20  C   UNL     1      -4.177  -4.083  -1.242  0.00  0.00    +0.003 A 
ATOM     21  C   UNL     1      -4.965  -5.156  -1.680  0.00  0.00    +0.048 A 
ATOM     22  C   UNL     1      -6.293  -5.196  -1.365  0.00  0.00    +0.124 A 
ATOM     23  C   UNL     1      -6.873  -4.179  -0.613  0.00  0.00    +0.040 A 
ATOM     24  C   UNL     1      -6.118  -3.115  -0.172  0.00  0.00    +0.029 A 
ATOM     25  C   UNL     1      -4.762  -3.053  -0.480  0.00  0.00    +0.047 A 
ATOM     26  N   UNL     1      -3.771  -2.146  -0.185  0.00  0.00    -0.351 N 
ATOM     27  H   UNL     1      -3.884  -1.334   0.333  0.00  0.00    +0.166 HD
ATOM     28  F   UNL     1      -7.051  -6.231  -1.789  0.00  0.00    -0.205 F 
ENDBRANCH   2  18
TORSDOF 2
