REMARK  Name = ZINC21251128
REMARK  10 active torsions:
REMARK  status: ('A' for Active; 'I' for Inactive)
REMARK    1  A    between atoms: C_1  and  C_2
REMARK    2  A    between atoms: C_2  and  C_4
REMARK    3  A    between atoms: C_2  and  N_7
REMARK    4  A    between atoms: C_4  and  O_5
REMARK    5  A    between atoms: O_5  and  C_6
REMARK    6  A    between atoms: C_17  and  S_18
REMARK    7  A    between atoms: S_18  and  C_19
REMARK    8  A    between atoms: C_19  and  C_21
REMARK    9  A    between atoms: C_19  and  C_22
REMARK   10  A    between atoms: N_27  and  C_28
REMARK                            x       y       z     vdW  Elec       q    Type
REMARK                         _______ _______ _______ _____ _____    ______ ____
ROOT
ATOM      1  C   UNL     1       1.779  -5.039  -0.848  0.00  0.00    +0.137 C 
ATOM      2  C   UNL     1       2.215  -4.386  -2.161  0.00  0.00    +0.029 C 
ENDROOT
BRANCH   1   3
ATOM      3  C   UNL     1       1.977  -6.530  -0.938  0.00  0.00    +0.233 C 
ATOM      4  O   UNL     1       1.054  -7.245  -1.264  0.00  0.00    -0.274 OA
ATOM      5  N   UNL     1       3.180  -7.069  -0.656  0.00  0.00    -0.239 N 
ATOM      6  C   UNL     1       3.357  -8.402  -0.736  0.00  0.00    +0.306 C 
ATOM      7  O   UNL     1       2.431  -9.119  -1.063  0.00  0.00    -0.252 OA
ATOM      8  N   UNL     1       4.560  -8.941  -0.455  0.00  0.00    -0.294 N 
ATOM      9  H   UNL     1       4.018  -6.420  -0.361  0.00  0.00    +0.159 HD
ATOM     10  H   UNL     1       5.397  -8.292  -0.159  0.00  0.00    +0.151 HD
BRANCH   8  11
ATOM     11  C   UNL     1       4.752 -10.391  -0.542  0.00  0.00    +0.037 C 
ATOM     12  C   UNL     1       3.797 -11.091   0.427  0.00  0.00    +0.029 C 
ATOM     13  C   UNL     1       3.998 -12.605   0.336  0.00  0.00    -0.008 C 
ATOM     14  C   UNL     1       5.442 -12.951   0.703  0.00  0.00    +0.007 C 
ATOM     15  C   UNL     1       6.397 -12.251  -0.266  0.00  0.00    -0.008 C 
ATOM     16  C   UNL     1       6.196 -10.737  -0.175  0.00  0.00    +0.029 C 
ATOM     17  C   UNL     1       6.108 -12.718  -1.694  0.00  0.00    +0.007 C 
ATOM     18  C   UNL     1       4.663 -12.372  -2.061  0.00  0.00    -0.008 C 
ATOM     19  C   UNL     1       3.709 -13.072  -1.092  0.00  0.00    +0.007 C 
ATOM     20  C   UNL     1       4.463 -10.858  -1.970  0.00  0.00    +0.029 C 
ENDBRANCH   8  11
ENDBRANCH   1   3
BRANCH   1  21
ATOM     21  S   UNL     1       0.031  -4.679  -0.547  0.00  0.00    -0.075 S 
BRANCH  21  32
ATOM     22  N   UNL     1      -1.048  -2.253  -0.084  0.00  0.00    -0.282 N 
ATOM     23  C   UNL     1      -1.034  -0.910   0.082  0.00  0.00    +0.263 A 
ATOM     24  O   UNL     1      -2.057  -0.291   0.309  0.00  0.00    -0.267 OA
ATOM     25  C   UNL     1       0.263  -0.227  -0.022  0.00  0.00    +0.065 A 
ATOM     26  C   UNL     1       0.384   1.153   0.134  0.00  0.00    +0.015 A 
ATOM     27  C   UNL     1       1.615   1.738   0.027  0.00  0.00    +0.001 A 
ATOM     28  C   UNL     1       2.744   0.973  -0.234  0.00  0.00    +0.002 A 
ATOM     29  C   UNL     1       2.655  -0.381  -0.392  0.00  0.00    +0.028 A 
ATOM     30  C   UNL     1       1.410  -1.009  -0.288  0.00  0.00    +0.079 A 
ATOM     31  N   UNL     1       1.277  -2.342  -0.436  0.00  0.00    -0.223 NA
ATOM     32  C   UNL     1       0.110  -2.931  -0.339  0.00  0.00    +0.173 A 
BRANCH  22  34
ATOM     33  C   UNL     1      -3.007  -2.636   1.329  0.00  0.00    +0.033 C 
ATOM     34  C   UNL     1      -2.313  -2.984   0.010  0.00  0.00    +0.115 C 
BRANCH  34  35
ATOM     35  C   UNL     1      -3.217  -2.592  -1.161  0.00  0.00    +0.184 C 
BRANCH  35  36
ATOM     36  O   UNL     1      -3.595  -1.220  -1.032  0.00  0.00    -0.381 OA
ATOM     37  C   UNL     1      -4.444  -0.750  -2.081  0.00  0.00    +0.194 C 
ENDBRANCH  35  36
ENDBRANCH  34  35
ENDBRANCH  22  34
ENDBRANCH  21  32
ENDBRANCH   1  21
TORSDOF 7
