REMARK  Name = ZINC13129844
REMARK  8 active torsions:
REMARK  status: ('A' for Active; 'I' for Inactive)
REMARK    1  A    between atoms: C_4  and  S_28
REMARK    2  A    between atoms: C_5  and  N_7
REMARK    3  A    between atoms: C_8  and  C_10
REMARK    4  A    between atoms: C_10  and  O_11
REMARK    5  A    between atoms: O_11  and  C_12
REMARK    6  A    between atoms: C_12  and  C_14
REMARK    7  A    between atoms: C_14  and  N_15
REMARK    8  A    between atoms: S_28  and  C_29
REMARK                            x       y       z     vdW  Elec       q    Type
REMARK                         _______ _______ _______ _____ _____    ______ ____
ROOT
ATOM      1  N   UNL     1       1.245  -2.073  -0.033  0.00  0.00    -0.282 N 
ATOM      2  C   UNL     1       0.082  -2.747  -0.133  0.00  0.00    +0.255 C 
ATOM      3  O   UNL     1      -0.955  -2.144  -0.315  0.00  0.00    -0.272 OA
ATOM      4  H   UNL     1       2.083  -2.558   0.031  0.00  0.00    +0.155 HD
ENDROOT
BRANCH   1   9
ATOM      5  C   UNL     1       0.199   1.400   0.584  0.00  0.00    +0.002 A 
ATOM      6  C   UNL     1       1.240   2.100   0.003  0.00  0.00    +0.001 A 
ATOM      7  C   UNL     1       2.287   1.421  -0.592  0.00  0.00    +0.017 A 
ATOM      8  C   UNL     1       2.295   0.034  -0.608  0.00  0.00    +0.034 A 
ATOM      9  C   UNL     1       1.244  -0.672  -0.021  0.00  0.00    +0.047 A 
ATOM     10  C   UNL     1       0.198   0.018   0.574  0.00  0.00    +0.024 A 
BRANCH   8  11
ATOM     11  S   UNL     1       3.627  -0.834  -1.367  0.00  0.00    -0.088 S 
BRANCH  11  12
ATOM     12  C   UNL     1       4.612   0.439  -2.083  0.00  0.00    +0.013 A 
ATOM     13  C   UNL     1       5.571   1.091  -1.318  0.00  0.00    +0.016 A 
ATOM     14  C   UNL     1       6.341   2.089  -1.883  0.00  0.00    +0.021 A 
ATOM     15  C   UNL     1       6.159   2.439  -3.209  0.00  0.00    +0.041 A 
ATOM     16  C   UNL     1       5.204   1.791  -3.974  0.00  0.00    +0.021 A 
ATOM     17  C   UNL     1       4.435   0.789  -3.417  0.00  0.00    +0.016 A 
ATOM     18 CL   UNL     1       7.129   3.694  -3.915  0.00  0.00    -0.084 Cl
ENDBRANCH  11  12
ENDBRANCH   8  11
ENDBRANCH   1   9
BRANCH   2  19
ATOM     19  C   UNL     1       0.070  -4.250  -0.018  0.00  0.00    +0.328 C 
BRANCH  19  20
ATOM     20  O   UNL     1      -1.270  -4.727  -0.156  0.00  0.00    -0.454 OA
BRANCH  20  21
ATOM     21  C   UNL     1      -1.455  -6.054  -0.077  0.00  0.00    +0.326 C 
ATOM     22  O   UNL     1      -0.511  -6.786   0.103  0.00  0.00    -0.249 OA
BRANCH  21  23
ATOM     23  C   UNL     1      -2.840  -6.631  -0.213  0.00  0.00    +0.236 C 
BRANCH  23  24
ATOM     24  N   UNL     1      -2.776  -8.090  -0.092  0.00  0.00    -0.231 N 
ATOM     25  C   UNL     1      -2.592  -8.908  -1.146  0.00  0.00    +0.226 C 
ATOM     26  O   UNL     1      -2.260  -8.577  -2.264  0.00  0.00    -0.275 OA
ATOM     27  C   UNL     1      -2.882 -10.340  -0.667  0.00  0.00    +0.091 C 
ATOM     28  C   UNL     1      -4.386 -10.526  -0.877  0.00  0.00    +0.040 C 
ATOM     29  C   UNL     1      -5.027 -11.378   0.164  0.00  0.00    -0.030 C 
ATOM     30  C   UNL     1      -4.507 -11.656   1.313  0.00  0.00    -0.030 C 
ATOM     31  C   UNL     1      -3.150 -11.190   1.735  0.00  0.00    +0.040 C 
ATOM     32  C   UNL     1      -2.534 -10.171   0.821  0.00  0.00    +0.091 C 
ATOM     33  C   UNL     1      -2.890  -8.737   1.089  0.00  0.00    +0.226 C 
ATOM     34  O   UNL     1      -3.217  -8.257   2.153  0.00  0.00    -0.275 OA
ENDBRANCH  23  24
ENDBRANCH  21  23
ENDBRANCH  20  21
ENDBRANCH  19  20
ENDBRANCH   2  19
TORSDOF 8
