REMARK  Name = ZINC12881190
REMARK  3 active torsions:
REMARK  status: ('A' for Active; 'I' for Inactive)
REMARK    1  A    between atoms: C_1  and  C_2
REMARK    2  A    between atoms: C_22  and  C_29
REMARK    3  A    between atoms: C_29  and  C_31
REMARK                            x       y       z     vdW  Elec       q    Type
REMARK                         _______ _______ _______ _____ _____    ______ ____
ROOT
ATOM      1  C   UNL     1      -3.108   4.329  -0.119  0.00  0.00    +0.047 C 
ATOM      2  C   UNL     1      -1.609   4.479  -0.090  0.00  0.00    -0.011 A 
ATOM      3  C   UNL     1      -1.043   5.739  -0.069  0.00  0.00    +0.046 A 
ATOM      4  C   UNL     1       0.332   5.886  -0.043  0.00  0.00    +0.020 A 
ATOM      5  C   UNL     1       1.145   4.766  -0.037  0.00  0.00    +0.006 A 
ATOM      6  C   UNL     1       0.585   3.509  -0.058  0.00  0.00    -0.026 A 
ATOM      7  C   UNL     1      -0.797   3.348  -0.085  0.00  0.00    +0.040 A 
ATOM      8  N   UNL     1      -1.125   1.990  -0.107  0.00  0.00    -0.286 N 
ATOM      9  C   UNL     1      -0.033   1.204  -0.088  0.00  0.00    +0.212 C 
ATOM     10  O   UNL     1      -0.015  -0.009  -0.098  0.00  0.00    -0.277 OA
ATOM     11  C   UNL     1       1.165   2.120  -0.059  0.00  0.00    +0.060 C 
ATOM     12  C   UNL     1       2.064   1.891  -1.268  0.00  0.00    +0.085 C 
ATOM     13  C   UNL     1       1.532   0.813  -2.169  0.00  0.00    -0.011 A 
ATOM     14  C   UNL     1       1.228  -0.517  -1.978  0.00  0.00    +0.006 A 
ATOM     15  C   UNL     1       0.739  -1.273  -3.028  0.00  0.00    +0.000 A 
ATOM     16  C   UNL     1       0.557  -0.691  -4.269  0.00  0.00    +0.002 A 
ATOM     17  C   UNL     1       0.861   0.641  -4.465  0.00  0.00    +0.023 A 
ATOM     18  C   UNL     1       1.353   1.409  -3.413  0.00  0.00    +0.038 A 
ATOM     19  N   UNL     1       1.728   2.754  -3.363  0.00  0.00    -0.285 N 
ATOM     20  C   UNL     1       2.155   3.116  -2.138  0.00  0.00    +0.228 C 
ATOM     21  O   UNL     1       2.539   4.216  -1.801  0.00  0.00    -0.275 OA
ATOM     22  C   UNL     1       3.443   1.515  -0.700  0.00  0.00    +0.066 C 
ATOM     23  C   UNL     1       3.394   2.087   0.737  0.00  0.00    -0.055 C 
ATOM     24  C   UNL     1       1.891   0.452   1.529  0.00  0.00    -0.076 C 
ATOM     25  C   UNL     1       3.236   0.131   2.208  0.00  0.00    -0.020 C 
ATOM     26  C   UNL     1       4.222   1.186   1.669  0.00  0.00    -0.016 C 
ATOM     27 CL   UNL     1      -2.063   7.144  -0.076  0.00  0.00    -0.083 Cl
ATOM     28  H   UNL     1      -2.034   1.653  -0.132  0.00  0.00    +0.155 HD
ATOM     29  H   UNL     1       1.685   3.357  -4.121  0.00  0.00    +0.155 HD
ATOM     30  N   UNL     1       2.010   1.863   1.117  0.00  0.00    +0.395 N 
ATOM     31  H   UNL     1       1.740   2.484   1.889  0.00  0.00    -0.079 HD
ENDROOT
BRANCH  22  32
ATOM     32  C   UNL     1       3.618   0.018  -0.673  0.00  0.00    +0.166 C 
ATOM     33  O   UNL     1       3.284  -0.614   0.306  0.00  0.00    -0.292 OA
BRANCH  32  34
ATOM     34  C   UNL     1       4.195  -0.676  -1.835  0.00  0.00    +0.018 A 
ATOM     35  C   UNL     1       4.673   0.057  -2.926  0.00  0.00    +0.011 A 
ATOM     36  C   UNL     1       5.216  -0.602  -4.009  0.00  0.00    +0.001 A 
ATOM     37  C   UNL     1       5.279  -1.984  -4.023  0.00  0.00    +0.000 A 
ATOM     38  C   UNL     1       4.804  -2.717  -2.949  0.00  0.00    +0.001 A 
ATOM     39  C   UNL     1       4.263  -2.073  -1.857  0.00  0.00    +0.011 A 
ENDBRANCH  32  34
ENDBRANCH  22  32
TORSDOF 2
