REMARK  Name = ZINC39694345
REMARK  8 active torsions:
REMARK  status: ('A' for Active; 'I' for Inactive)
REMARK    1  A    between atoms: C_1  and  C_2
REMARK    2  A    between atoms: C_2  and  S_3
REMARK    3  A    between atoms: S_3  and  C_4
REMARK    4  A    between atoms: C_5  and  C_10
REMARK    5  A    between atoms: C_14  and  C_23
REMARK    6  A    between atoms: N_25  and  C_26
REMARK    7  A    between atoms: C_26  and  C_27
REMARK    8  A    between atoms: C_32  and  N_33
REMARK                            x       y       z     vdW  Elec       q    Type
REMARK                         _______ _______ _______ _____ _____    ______ ____
ROOT
ATOM      1  C   UNL     1       1.887  -2.621  -3.359  0.00  0.00    +0.249 C 
ATOM      2  O   UNL     1       1.981  -1.419  -3.519  0.00  0.00    -0.270 OA
ATOM      3  N   UNL     1       2.553  -3.463  -4.173  0.00  0.00    -0.296 N 
ATOM      4  C   UNL     1       2.506  -4.944  -4.182  0.00  0.00    +0.121 C 
ATOM      5  C   UNL     1       2.526  -5.327  -5.679  0.00  0.00    +0.100 C 
ATOM      6  C   UNL     1       3.178  -4.125  -6.383  0.00  0.00    -0.004 C 
ATOM      7  C   UNL     1       3.492  -3.117  -5.267  0.00  0.00    +0.115 C 
ATOM      8  C   UNL     1       2.207  -3.507  -7.385  0.00  0.00    -0.010 C 
ATOM      9  C   UNL     1       2.898  -2.350  -8.112  0.00  0.00    -0.082 C 
ATOM     10  N   UNL     1       4.094  -2.849  -8.802  0.00  0.00    +0.379 N 
ATOM     11  C   UNL     1       5.063  -3.356  -7.823  0.00  0.00    -0.082 C 
ATOM     12  C   UNL     1       4.463  -4.555  -7.083  0.00  0.00    -0.010 C 
ATOM     13  H   UNL     1       3.832  -3.593  -9.431  0.00  0.00    -0.086 HD
ATOM     14  H   UNL     1       4.513  -2.098  -9.330  0.00  0.00    -0.086 HD
ENDROOT
BRANCH   1  16
ATOM     15  C   UNL     1       0.026  -2.373  -1.705  0.00  0.00    +0.109 A 
ATOM     16  C   UNL     1       1.045  -3.156  -2.274  0.00  0.00    +0.069 A 
ATOM     17  C   UNL     1       1.246  -4.454  -1.791  0.00  0.00    +0.017 A 
ATOM     18  C   UNL     1       0.429  -4.910  -0.771  0.00  0.00    +0.020 A 
ATOM     19  C   UNL     1      -0.554  -4.080  -0.262  0.00  0.00    +0.112 A 
ATOM     20  N   UNL     1      -0.725  -2.858  -0.727  0.00  0.00    -0.248 NA
BRANCH  15  21
ATOM     21  S   UNL     1      -0.251  -0.734  -2.291  0.00  0.00    -0.105 S 
BRANCH  21  23
ATOM     22  C   UNL     1      -1.974   1.302  -1.686  0.00  0.00    +0.015 C 
ATOM     23  C   UNL     1      -1.627  -0.131  -1.275  0.00  0.00    +0.072 C 
ENDBRANCH  21  23
ENDBRANCH  15  21
ENDBRANCH   1  16
BRANCH   5  24
ATOM     24  C   UNL     1       1.122  -5.535  -6.186  0.00  0.00    +0.218 C 
ATOM     25  O   UNL     1       0.210  -4.873  -5.736  0.00  0.00    -0.275 OA
ATOM     26  N   UNL     1       0.879  -6.457  -7.138  0.00  0.00    -0.311 N 
ATOM     27  H   UNL     1       1.616  -6.937  -7.548  0.00  0.00    +0.149 HD
BRANCH  26  28
ATOM     28  C   UNL     1      -0.498  -6.735  -7.555  0.00  0.00    +0.141 C 
BRANCH  28  29
ATOM     29  C   UNL     1      -0.505  -7.880  -8.534  0.00  0.00    -0.009 A 
ATOM     30  C   UNL     1      -0.634  -7.633  -9.887  0.00  0.00    +0.007 A 
ATOM     31  C   UNL     1      -0.641  -8.683 -10.786  0.00  0.00    +0.000 A 
ATOM     32  C   UNL     1      -0.518  -9.985 -10.335  0.00  0.00    +0.002 A 
ATOM     33  C   UNL     1      -0.388 -10.239  -8.984  0.00  0.00    +0.023 A 
ATOM     34  C   UNL     1      -0.375  -9.186  -8.078  0.00  0.00    +0.035 A 
BRANCH  34  35
ATOM     35  N   UNL     1      -0.238  -9.440  -6.711  0.00  0.00    -0.325 N 
ATOM     36  C   UNL     1      -1.409  -9.760  -5.879  0.00  0.00    +0.133 C 
ATOM     37  C   UNL     1      -1.102 -11.033  -5.082  0.00  0.00    +0.178 C 
ATOM     38  O   UNL     1       0.140 -10.869  -4.394  0.00  0.00    -0.377 OA
ATOM     39  C   UNL     1       1.266 -10.686  -5.255  0.00  0.00    +0.178 C 
ATOM     40  C   UNL     1       1.081  -9.400  -6.062  0.00  0.00    +0.133 C 
ENDBRANCH  34  35
ENDBRANCH  28  29
ENDBRANCH  26  28
ENDBRANCH   5  24
TORSDOF 7
