REMARK  Name = ZINC59015391
REMARK  12 active torsions:
REMARK  status: ('A' for Active; 'I' for Inactive)
REMARK    1  A    between atoms: C_1  and  C_2
REMARK    2  A    between atoms: C_2  and  N_3
REMARK    3  A    between atoms: N_3  and  C_4
REMARK    4  A    between atoms: N_3  and  C_6
REMARK    5  A    between atoms: C_4  and  C_5
REMARK    6  A    between atoms: C_9  and  N_12
REMARK    7  A    between atoms: C_13  and  C_15
REMARK    8  A    between atoms: C_15  and  S_16
REMARK    9  A    between atoms: S_16  and  C_17
REMARK   10  A    between atoms: N_22  and  N_23
REMARK   11  A    between atoms: C_24  and  C_25
REMARK   12  A    between atoms: C_28  and  O_31
REMARK                            x       y       z     vdW  Elec       q    Type
REMARK                         _______ _______ _______ _____ _____    ______ ____
ROOT
ATOM      1  S   UNL     1      -3.376  -8.871   2.337  0.00  0.00    -0.075 S 
ENDROOT
BRANCH   1   2
ATOM      2  C   UNL     1      -3.224 -10.625   2.280  0.00  0.00    +0.211 A 
ATOM      3  N   UNL     1      -3.864 -11.487   3.078  0.00  0.00    -0.186 NA
ATOM      4  C   UNL     1      -3.522 -12.719   2.765  0.00  0.00    +0.232 A 
ATOM      5  N   UNL     1      -2.641 -12.659   1.743  0.00  0.00    -0.245 N 
ATOM      6  N   UNL     1      -2.469 -11.298   1.444  0.00  0.00    -0.144 NA
ATOM      7  N   UNL     1      -3.982 -13.871   3.375  0.00  0.00    -0.205 N 
ATOM      8  H   UNL     1      -3.670 -14.738   3.073  0.00  0.00    +0.177 HD
ATOM      9  H   UNL     1      -2.214 -13.409   1.300  0.00  0.00    +0.192 HD
BRANCH   7  10
ATOM     10  N   UNL     1      -4.900 -13.786   4.430  0.00  0.00    -0.188 NA
ATOM     11  C   UNL     1      -5.332 -14.867   5.003  0.00  0.00    +0.138 C 
BRANCH  11  12
ATOM     12  C   UNL     1      -6.298 -14.777   6.114  0.00  0.00    -0.005 A 
ATOM     13  C   UNL     1      -6.754 -13.530   6.547  0.00  0.00    +0.013 A 
ATOM     14  C   UNL     1      -7.657 -13.451   7.585  0.00  0.00    +0.046 A 
ATOM     15  C   UNL     1      -8.113 -14.609   8.201  0.00  0.00    +0.117 A 
ATOM     16  C   UNL     1      -7.663 -15.851   7.774  0.00  0.00    +0.046 A 
ATOM     17  C   UNL     1      -6.765 -15.940   6.732  0.00  0.00    +0.013 A 
BRANCH  15  18
ATOM     18  O   UNL     1      -9.003 -14.526   9.224  0.00  0.00    -0.507 OA
ATOM     19  H   UNL     1      -9.928 -14.546   8.943  0.00  0.00    +0.292 HD
ENDBRANCH  15  18
ENDBRANCH  11  12
ENDBRANCH   7  10
ENDBRANCH   1   2
BRANCH   1  20
ATOM     20  C   UNL     1      -2.276  -8.292   1.015  0.00  0.00    +0.173 C 
BRANCH  20  22
ATOM     21  N   UNL     1      -1.569  -6.131   0.042  0.00  0.00    -0.285 N 
ATOM     22  C   UNL     1      -2.312  -6.787   0.955  0.00  0.00    +0.227 C 
ATOM     23  O   UNL     1      -3.011  -6.165   1.728  0.00  0.00    -0.275 OA
ATOM     24  H   UNL     1      -1.067  -6.628  -0.623  0.00  0.00    +0.155 HD
BRANCH  21  28
ATOM     25  C   UNL     1      -1.421  -1.967   0.077  0.00  0.00    +0.014 A 
ATOM     26  C   UNL     1      -1.524  -2.664   1.267  0.00  0.00    +0.023 A 
ATOM     27  C   UNL     1      -1.573  -4.044   1.259  0.00  0.00    +0.025 A 
ATOM     28  C   UNL     1      -1.520  -4.732   0.054  0.00  0.00    +0.034 A 
ATOM     29  C   UNL     1      -1.417  -4.030  -1.140  0.00  0.00    +0.025 A 
ATOM     30  C   UNL     1      -1.373  -2.649  -1.125  0.00  0.00    +0.023 A 
BRANCH  25  31
ATOM     31  N   UNL     1      -1.372  -0.570   0.089  0.00  0.00    -0.394 NA
ATOM     32  H   UNL     1      -1.302  -0.228  -0.858  0.00  0.00    +0.126 HD
BRANCH  31  34
ATOM     33  C   UNL     1      -3.805  -0.420  -0.142  0.00  0.00    +0.022 C 
ATOM     34  C   UNL     1      -2.593  -0.042   0.712  0.00  0.00    +0.081 C 
ENDBRANCH  31  34
BRANCH  31  35
ATOM     35  C   UNL     1      -0.200  -0.128   0.856  0.00  0.00    +0.081 C 
ATOM     36  C   UNL     1       1.076  -0.586   0.147  0.00  0.00    +0.022 C 
ENDBRANCH  31  35
ENDBRANCH  25  31
ENDBRANCH  21  28
ENDBRANCH  20  22
ENDBRANCH   1  20
TORSDOF 10
