REMARK  Name = ZINC08869266
REMARK  9 active torsions:
REMARK  status: ('A' for Active; 'I' for Inactive)
REMARK    1  A    between atoms: C_1  and  C_2
REMARK    2  A    between atoms: C_2  and  C_3
REMARK    3  A    between atoms: C_2  and  C_4
REMARK    4  A    between atoms: C_4  and  C_5
REMARK    5  A    between atoms: C_6  and  C_25
REMARK    6  A    between atoms: C_6  and  C_29
REMARK    7  A    between atoms: N_14  and  C_17
REMARK    8  A    between atoms: C_20  and  O_23
REMARK    9  A    between atoms: O_23  and  C_24
REMARK                            x       y       z     vdW  Elec       q    Type
REMARK                         _______ _______ _______ _____ _____    ______ ____
ROOT
ATOM      1  C   UNL     1       0.068  -2.611   1.214  0.00  0.00    +0.075 C 
ATOM      2  C   UNL     1      -1.062  -0.490   0.993  0.00  0.00    +0.264 C 
ATOM      3  C   UNL     1       0.182  -0.030   0.287  0.00  0.00    +0.098 A 
ATOM      4  C   UNL     1       0.213   1.218  -0.358  0.00  0.00    +0.262 A 
ATOM      5  O   UNL     1      -0.773   1.934  -0.360  0.00  0.00    -0.267 OA
ATOM      6  N   UNL     1       1.342   1.614  -0.980  0.00  0.00    -0.274 N 
ATOM      7  H   UNL     1       1.368   2.501  -1.441  0.00  0.00    +0.173 HD
ATOM      8  C   UNL     1       2.434   0.828  -0.986  0.00  0.00    +0.335 A 
ATOM      9  O   UNL     1       3.442   1.208  -1.551  0.00  0.00    -0.246 OA
ATOM     10  N   UNL     1       2.428  -0.372  -0.376  0.00  0.00    -0.250 N 
ATOM     11  C   UNL     1       1.297  -0.814   0.265  0.00  0.00    +0.124 A 
ATOM     12  N   UNL     1       1.274  -2.042   0.885  0.00  0.00    -0.290 N 
ATOM     13  H   UNL     1       2.103  -2.502   1.089  0.00  0.00    +0.155 HD
ATOM     14  N   UNL     1      -1.090  -1.967   1.289  0.00  0.00    -0.352 N 
ATOM     15  H   UNL     1      -1.962  -2.451   1.535  0.00  0.00    +0.162 HD
ENDROOT
BRANCH  10  16
ATOM     16  C   UNL     1       3.580  -1.173  -0.395  0.00  0.00    +0.053 A 
ATOM     17  C   UNL     1       3.764  -2.099  -1.412  0.00  0.00    +0.030 A 
ATOM     18  C   UNL     1       4.900  -2.884  -1.432  0.00  0.00    +0.047 A 
ATOM     19  C   UNL     1       5.852  -2.754  -0.432  0.00  0.00    +0.120 A 
ATOM     20  C   UNL     1       5.666  -1.831   0.588  0.00  0.00    +0.047 A 
ATOM     21  C   UNL     1       4.532  -1.042   0.607  0.00  0.00    +0.030 A 
BRANCH  19  22
ATOM     22  O   UNL     1       6.968  -3.530  -0.449  0.00  0.00    -0.495 OA
ATOM     23  C   UNL     1       7.094  -4.459  -1.528  0.00  0.00    +0.277 C 
ENDBRANCH  19  22
ENDBRANCH  10  16
BRANCH   2  24
ATOM     24  C   UNL     1      -1.197   0.268   2.315  0.00  0.00    +0.426 C 
ATOM     25  F   UNL     1      -1.283   1.641   2.059  0.00  0.00    -0.167 F 
ATOM     26  F   UNL     1      -2.353  -0.156   2.979  0.00  0.00    -0.167 F 
ATOM     27  F   UNL     1      -0.079   0.013   3.116  0.00  0.00    -0.167 F 
ENDBRANCH   2  24
BRANCH   2  28
ATOM     28  C   UNL     1      -2.278  -0.188   0.116  0.00  0.00    +0.426 C 
ATOM     29  F   UNL     1      -2.004  -0.559  -1.205  0.00  0.00    -0.167 F 
ATOM     30  F   UNL     1      -3.381  -0.910   0.584  0.00  0.00    -0.167 F 
ATOM     31  F   UNL     1      -2.561   1.181   0.167  0.00  0.00    -0.167 F 
ENDBRANCH   2  28
BRANCH   1  32
ATOM     32  C   UNL     1       0.013  -4.085   1.523  0.00  0.00    +0.072 C 
BRANCH  32  34
ATOM     33  C   UNL     1      -1.505  -5.998   2.050  0.00  0.00    +0.007 C 
ATOM     34  C   UNL     1      -1.426  -4.482   1.859  0.00  0.00    -0.010 C 
ATOM     35  C   UNL     1      -1.860  -3.782   3.148  0.00  0.00    +0.007 C 
ENDBRANCH  32  34
ENDBRANCH   1  32
TORSDOF 6
