REMARK  Name = ZINC64053002
REMARK  7 active torsions:
REMARK  status: ('A' for Active; 'I' for Inactive)
REMARK    1  A    between atoms: C_1  and  C_2
REMARK    2  A    between atoms: C_6  and  S_14
REMARK    3  A    between atoms: N_7  and  C_8
REMARK    4  A    between atoms: S_14  and  C_15
REMARK    5  A    between atoms: C_15  and  C_17
REMARK    6  A    between atoms: C_15  and  C_23
REMARK    7  A    between atoms: C_23  and  C_25
REMARK                            x       y       z     vdW  Elec       q    Type
REMARK                         _______ _______ _______ _____ _____    ______ ____
ROOT
ATOM      1  C   UNL     1       4.158  -2.802   0.438  0.00  0.00    +0.155 C 
ENDROOT
BRANCH   1   2
ATOM      2  C   UNL     1       3.422  -3.853  -0.352  0.00  0.00    -0.027 A 
ATOM      3  C   UNL     1       2.853  -4.933   0.297  0.00  0.00    +0.005 A 
ATOM      4  C   UNL     1       2.178  -5.898  -0.427  0.00  0.00    +0.000 A 
ATOM      5  C   UNL     1       2.072  -5.782  -1.801  0.00  0.00    +0.000 A 
ATOM      6  C   UNL     1       2.640  -4.702  -2.450  0.00  0.00    +0.000 A 
ATOM      7  C   UNL     1       3.312  -3.735  -1.725  0.00  0.00    +0.005 A 
ENDBRANCH   1   2
BRANCH   1   8
ATOM      8  C   UNL     1       5.317  -3.437   1.163  0.00  0.00    +0.179 C 
ATOM      9  O   UNL     1       5.188  -3.798   2.315  0.00  0.00    -0.291 OA
BRANCH   8  10
ATOM     10  C   UNL     1       6.551  -3.611   0.502  0.00  0.00    +0.025 C 
ATOM     11  C   UNL     1       7.704  -4.177   1.018  0.00  0.00    +0.006 A 
ATOM     12  C   UNL     1       8.022  -4.731   2.280  0.00  0.00    +0.010 A 
ATOM     13  C   UNL     1       9.258  -5.225   2.516  0.00  0.00    +0.001 A 
ATOM     14  C   UNL     1      10.271  -5.215   1.544  0.00  0.00    +0.002 A 
ATOM     15  C   UNL     1      10.071  -4.710   0.307  0.00  0.00    +0.026 A 
ATOM     16  C   UNL     1       8.751  -4.152  -0.032  0.00  0.00    +0.043 A 
ATOM     17  N   UNL     1       8.291  -3.611  -1.124  0.00  0.00    -0.380 N 
ATOM     18  C   UNL     1       6.891  -3.225  -0.921  0.00  0.00    +0.152 C 
ATOM     19  H   UNL     1       8.794  -3.486  -1.944  0.00  0.00    +0.160 HD
ENDBRANCH   8  10
ENDBRANCH   1   8
BRANCH   1  20
ATOM     20  S   UNL     1       3.029  -2.051   1.644  0.00  0.00    -0.073 S 
BRANCH  20  25
ATOM     21  C   UNL     1      -0.019   1.526   0.010  0.00  0.00    +0.051 C 
ATOM     22  C   UNL     1       0.002  -0.004   0.002  0.00  0.00    +0.174 C 
ATOM     23  N   UNL     1       0.757  -0.504  -1.160  0.00  0.00    -0.247 N 
ATOM     24  N   UNL     1       1.835  -1.232  -0.640  0.00  0.00    -0.163 NA
ATOM     25  C   UNL     1       1.825  -1.235   0.650  0.00  0.00    +0.176 C 
ATOM     26  N   UNL     1       0.751  -0.517   1.162  0.00  0.00    -0.286 N 
ATOM     27  H   UNL     1       0.549  -0.359  -2.096  0.00  0.00    +0.170 HD
BRANCH  26  28
ATOM     28  C   UNL     1       0.425  -0.310   2.575  0.00  0.00    +0.077 C 
ATOM     29  C   UNL     1       1.586   0.409   3.266  0.00  0.00    +0.022 C 
ATOM     30  C   UNL     1       1.246   0.625   4.742  0.00  0.00    +0.002 C 
ATOM     31  C   UNL     1       1.013  -0.729   5.415  0.00  0.00    +0.000 C 
ATOM     32  C   UNL     1      -0.148  -1.448   4.725  0.00  0.00    +0.002 C 
ATOM     33  C   UNL     1       0.192  -1.664   3.248  0.00  0.00    +0.022 C 
ENDBRANCH  26  28
ENDBRANCH  20  25
ENDBRANCH   1  20
TORSDOF 6
