REMARK  Name = ZINC40019181
REMARK  20 active torsions:
REMARK  status: ('A' for Active; 'I' for Inactive)
REMARK    1  A    between atoms: C_1  and  C_2
REMARK    2  A    between atoms: C_2  and  C_3
REMARK    3  A    between atoms: C_3  and  C_4
REMARK    4  A    between atoms: C_4  and  N_5
REMARK    5  A    between atoms: N_5  and  C_6
REMARK    6  A    between atoms: N_5  and  C_10
REMARK    7  A    between atoms: C_6  and  C_7
REMARK    8  A    between atoms: C_7  and  C_8
REMARK    9  A    between atoms: C_8  and  C_9
REMARK   10  A    between atoms: C_10  and  C_11
REMARK   11  A    between atoms: C_11  and  C_12
REMARK   12  A    between atoms: C_12  and  N_13
REMARK   13  A    between atoms: C_14  and  C_30
REMARK   14  A    between atoms: C_16  and  C_21
REMARK   15  A    between atoms: C_21  and  C_23
REMARK   16  A    between atoms: C_26  and  C_29
REMARK   17  A    between atoms: C_35  and  O_36
REMARK   18  A    between atoms: O_36  and  C_37
REMARK   19  A    between atoms: C_37  and  C_38
REMARK   20  A    between atoms: C_38  and  C_39
REMARK                            x       y       z     vdW  Elec       q    Type
REMARK                         _______ _______ _______ _____ _____    ______ ____
ROOT
ATOM      1  N   UNL     1      -5.242  -5.554   1.452  0.00  0.00    -0.283 N 
ATOM      2  C   UNL     1      -6.491  -5.428   2.213  0.00  0.00    +0.148 C 
ATOM      3  C   UNL     1      -7.552  -6.135   1.402  0.00  0.00    +0.076 C 
ATOM      4  C   UNL     1      -6.942  -6.609   0.290  0.00  0.00    +0.249 C 
ATOM      5  C   UNL     1      -5.511  -6.240   0.326  0.00  0.00    +0.288 C 
ATOM      6  O   UNL     1      -4.698  -6.517  -0.533  0.00  0.00    -0.266 OA
ATOM      7  O   UNL     1      -7.548  -7.306  -0.699  0.00  0.00    -0.282 OA
ENDROOT
BRANCH   2   8
ATOM      8  C   UNL     1      -6.344  -6.086   3.561  0.00  0.00    +0.019 A 
ATOM      9  C   UNL     1      -5.432  -7.108   3.736  0.00  0.00    +0.009 A 
ATOM     10  C   UNL     1      -5.297  -7.712   4.973  0.00  0.00    +0.001 A 
ATOM     11  C   UNL     1      -6.075  -7.294   6.037  0.00  0.00    +0.004 A 
ATOM     12  C   UNL     1      -6.988  -6.272   5.867  0.00  0.00    +0.046 A 
ATOM     13  C   UNL     1      -7.121  -5.661   4.629  0.00  0.00    +0.126 A 
BRANCH  13  14
ATOM     14  O   UNL     1      -8.015  -4.652   4.461  0.00  0.00    -0.492 OA
BRANCH  14  15
ATOM     15  C   UNL     1      -8.706  -4.195   5.626  0.00  0.00    +0.229 C 
BRANCH  15  16
ATOM     16  C   UNL     1      -9.734  -3.135   5.227  0.00  0.00    +0.038 C 
ATOM     17  C   UNL     1     -10.386  -2.558   6.485  0.00  0.00    +0.007 C 
ENDBRANCH  15  16
ENDBRANCH  14  15
ENDBRANCH  13  14
ENDBRANCH   2   8
BRANCH   3  18
ATOM     18  C   UNL     1      -8.968  -6.279   1.752  0.00  0.00    +0.195 C 
ATOM     19  O   UNL     1      -9.724  -5.333   1.628  0.00  0.00    -0.287 OA
BRANCH  18  20
ATOM     20  C   UNL     1      -9.478  -7.572   2.254  0.00  0.00    +0.022 A 
ATOM     21  C   UNL     1      -8.596  -8.628   2.496  0.00  0.00    +0.012 A 
ATOM     22  C   UNL     1      -9.078  -9.832   2.965  0.00  0.00    +0.004 A 
ATOM     23  C   UNL     1     -10.432  -9.996   3.195  0.00  0.00    -0.050 A 
ATOM     24  C   UNL     1     -11.312  -8.954   2.958  0.00  0.00    +0.004 A 
ATOM     25  C   UNL     1     -10.843  -7.743   2.494  0.00  0.00    +0.012 A 
ATOM     26  C   UNL     1     -10.952 -11.314   3.708  0.00  0.00    +0.044 C 
ENDBRANCH  18  20
ENDBRANCH   3  18
BRANCH   1  27
ATOM     27  C   UNL     1      -3.935  -5.022   1.846  0.00  0.00    +0.107 C 
BRANCH  27  28
ATOM     28  C   UNL     1      -3.778  -3.601   1.301  0.00  0.00    +0.000 C 
BRANCH  28  29
ATOM     29  C   UNL     1      -2.413  -3.045   1.712  0.00  0.00    -0.077 C 
BRANCH  29  30
ATOM     30  N   UNL     1      -2.211  -1.731   1.087  0.00  0.00    +0.380 N 
ATOM     31  H   UNL     1      -2.352  -1.807   0.091  0.00  0.00    -0.082 HD
BRANCH  30  32
ATOM     32  C   UNL     1      -0.843  -1.267   1.354  0.00  0.00    -0.079 C 
BRANCH  32  33
ATOM     33  C   UNL     1       0.154  -2.187   0.647  0.00  0.00    -0.019 C 
BRANCH  33  34
ATOM     34  C   UNL     1       1.581  -1.745   0.982  0.00  0.00    -0.005 C 
ATOM     35  C   UNL     1       2.578  -2.665   0.275  0.00  0.00    +0.004 C 
ENDBRANCH  33  34
ENDBRANCH  32  33
ENDBRANCH  30  32
BRANCH  30  36
ATOM     36  C   UNL     1      -3.172  -0.770   1.646  0.00  0.00    -0.079 C 
BRANCH  36  37
ATOM     37  C   UNL     1      -3.046   0.564   0.908  0.00  0.00    -0.019 C 
BRANCH  37  39
ATOM     38  C   UNL     1      -3.921   2.899   0.752  0.00  0.00    +0.004 C 
ATOM     39  C   UNL     1      -4.047   1.565   1.490  0.00  0.00    -0.005 C 
ENDBRANCH  37  39
ENDBRANCH  36  37
ENDBRANCH  30  36
ENDBRANCH  29  30
ENDBRANCH  28  29
ENDBRANCH  27  28
ENDBRANCH   1  27
TORSDOF 16
