REMARK  Name = ZINC13284559
REMARK  10 active torsions:
REMARK  status: ('A' for Active; 'I' for Inactive)
REMARK    1  A    between atoms: C_1  and  C_2
REMARK    2  A    between atoms: C_2  and  C_3
REMARK    3  A    between atoms: C_3  and  C_4
REMARK    4  A    between atoms: C_4  and  S_5
REMARK    5  A    between atoms: S_5  and  C_6
REMARK    6  A    between atoms: C_7  and  C_27
REMARK    7  A    between atoms: C_8  and  C_18
REMARK    8  A    between atoms: C_21  and  O_26
REMARK    9  A    between atoms: C_22  and  O_24
REMARK   10  A    between atoms: O_24  and  C_25
REMARK                            x       y       z     vdW  Elec       q    Type
REMARK                         _______ _______ _______ _____ _____    ______ ____
ROOT
ATOM      1  C   UNL     1       1.579  -4.396   2.548  0.00  0.00    +0.080 C 
ATOM      2  C   UNL     1       2.147  -5.182   3.501  0.00  0.00    +0.069 C 
ATOM      3  C   UNL     1       2.118  -6.678   3.390  0.00  0.00    +0.097 C 
ATOM      4  C   UNL     1       1.066  -7.130   2.410  0.00  0.00    +0.024 C 
ATOM      5  C   UNL     1       0.541  -6.272   1.509  0.00  0.00    +0.016 C 
ATOM      6  N   UNL     1       0.950  -4.969   1.467  0.00  0.00    -0.311 N 
ATOM      7  C   UNL     1      -0.516  -6.722   0.531  0.00  0.00    +0.051 C 
ATOM      8  C   UNL     1      -0.313  -8.202   0.199  0.00  0.00    +0.014 C 
ATOM      9  C   UNL     1      -0.382  -9.005   1.503  0.00  0.00    +0.080 C 
ATOM     10  C   UNL     1       0.649  -8.472   2.460  0.00  0.00    +0.162 C 
ATOM     11  O   UNL     1       1.130  -9.215   3.292  0.00  0.00    -0.292 OA
ATOM     12  H   UNL     1       0.798  -4.444   0.666  0.00  0.00    +0.152 HD
ENDROOT
BRANCH   3  13
ATOM     13  C   UNL     1       3.466  -7.166   2.927  0.00  0.00    -0.031 A 
ATOM     14  C   UNL     1       3.974  -6.740   1.713  0.00  0.00    +0.008 A 
ATOM     15  C   UNL     1       5.210  -7.185   1.283  0.00  0.00    +0.049 A 
ATOM     16  C   UNL     1       5.944  -8.059   2.070  0.00  0.00    +0.158 A 
ATOM     17  C   UNL     1       5.433  -8.486   3.291  0.00  0.00    +0.162 A 
ATOM     18  C   UNL     1       4.195  -8.033   3.718  0.00  0.00    +0.054 A 
BRANCH  17  19
ATOM     19  O   UNL     1       6.149  -9.344   4.066  0.00  0.00    -0.491 OA
ATOM     20  C   UNL     1       5.563  -9.741   5.308  0.00  0.00    +0.277 C 
ENDBRANCH  17  19
BRANCH  16  21
ATOM     21  O   UNL     1       7.160  -8.497   1.648  0.00  0.00    -0.503 OA
ATOM     22  H   UNL     1       7.898  -7.939   1.928  0.00  0.00    +0.292 HD
ENDBRANCH  16  21
ENDBRANCH   3  13
BRANCH   2  23
ATOM     23  C   UNL     1       2.786  -4.572   4.629  0.00  0.00    +0.098 C 
ATOM     24  N   UNL     1       3.292  -4.088   5.523  0.00  0.00    -0.191 NA
ENDBRANCH   2  23
BRANCH   1  25
ATOM     25  S   UNL     1       1.640  -2.642   2.703  0.00  0.00    -0.109 S 
BRANCH  25  26
ATOM     26  C   UNL     1       0.763  -2.041   1.233  0.00  0.00    +0.075 C 
BRANCH  26  27
ATOM     27  C   UNL     1       0.742  -0.511   1.242  0.00  0.00    +0.011 C 
BRANCH  27  29
ATOM     28  C   UNL     1      -0.019   1.526   0.010  0.00  0.00    +0.004 C 
ATOM     29  C   UNL     1       0.002  -0.004   0.002  0.00  0.00    -0.003 C 
ENDBRANCH  27  29
ENDBRANCH  26  27
ENDBRANCH  25  26
ENDBRANCH   1  25
TORSDOF 8
