REMARK  Name = ZINC32690870
REMARK  3 active torsions:
REMARK  status: ('A' for Active; 'I' for Inactive)
REMARK    1  A    between atoms: C_8  and  C_10
REMARK    2  A    between atoms: C_13  and  C_16
REMARK    3  A    between atoms: C_21  and  O_22
REMARK                            x       y       z     vdW  Elec       q    Type
REMARK                         _______ _______ _______ _____ _____    ______ ____
ROOT
ATOM      1  C   UNL     1      -1.222  -0.883   0.010  0.00  0.00    +0.161 C 
ATOM      2  C   UNL     1      -1.794  -1.004   1.436  0.00  0.00    +0.089 C 
ATOM      3  C   UNL     1      -3.183  -0.416   1.322  0.00  0.00    +0.072 C 
ATOM      4  N   UNL     1      -3.390  -0.034   0.109  0.00  0.00    -0.190 NA
ATOM      5  N   UNL     1      -2.315  -0.256  -0.749  0.00  0.00    -0.258 N 
ATOM      6  H   UNL     1      -2.292  -0.033  -1.693  0.00  0.00    +0.169 HD
ENDROOT
BRANCH   1  14
ATOM      7  C   UNL     1       3.985   2.236  -0.025  0.00  0.00    +0.001 A 
ATOM      8  C   UNL     1       3.118   3.320  -0.011  0.00  0.00    +0.004 A 
ATOM      9  C   UNL     1       1.753   3.128   0.002  0.00  0.00    +0.047 A 
ATOM     10  C   UNL     1       1.237   1.838   0.000  0.00  0.00    +0.135 A 
ATOM     11  C   UNL     1       2.120   0.746  -0.014  0.00  0.00    +0.020 A 
ATOM     12  C   UNL     1       3.497   0.959  -0.026  0.00  0.00    +0.011 A 
ATOM     13  C   UNL     1       1.266  -0.449  -0.012  0.00  0.00    +0.055 A 
ATOM     14  C   UNL     1       0.002  -0.004   0.002  0.00  0.00    +0.128 A 
ATOM     15  O   UNL     1      -0.016   1.340   0.009  0.00  0.00    -0.458 OA
ENDBRANCH   1  14
BRANCH   3  16
ATOM     16  C   UNL     1      -4.150  -0.298   2.428  0.00  0.00    +0.039 A 
ATOM     17  C   UNL     1      -3.813  -0.748   3.706  0.00  0.00    +0.013 A 
ATOM     18  C   UNL     1      -4.723  -0.634   4.737  0.00  0.00    +0.001 A 
ATOM     19  C   UNL     1      -5.969  -0.076   4.509  0.00  0.00    +0.004 A 
ATOM     20  C   UNL     1      -6.314   0.373   3.248  0.00  0.00    +0.046 A 
ATOM     21  C   UNL     1      -5.411   0.271   2.204  0.00  0.00    +0.126 A 
BRANCH  21  22
ATOM     22  O   UNL     1      -5.747   0.717   0.965  0.00  0.00    -0.506 OA
ATOM     23  H   UNL     1      -6.737   1.164   0.791  0.00  0.00    +0.292 HD
ENDBRANCH  21  22
ENDBRANCH   3  16
TORSDOF 3
