REMARK  Name = ZINC48841346
REMARK  2 active torsions:
REMARK  status: ('A' for Active; 'I' for Inactive)
REMARK    1  A    between atoms: C_6  and  S_7
REMARK    2  A    between atoms: S_7  and  N_10
REMARK                            x       y       z     vdW  Elec       q    Type
REMARK                         _______ _______ _______ _____ _____    ______ ____
ROOT
ATOM      1  C   UNL     1      -0.017   1.378   0.010  0.00  0.00    +0.029 A 
ATOM      2  C   UNL     1       1.171   2.079   0.002  0.00  0.00    +0.006 A 
ATOM      3  C   UNL     1       2.387   1.408  -0.012  0.00  0.00    -0.044 A 
ATOM      4  C   UNL     1       2.406   0.031  -0.014  0.00  0.00    -0.042 A 
ATOM      5  C   UNL     1       1.209  -0.673  -0.010  0.00  0.00    +0.032 A 
ATOM      6  C   UNL     1       0.002  -0.004   0.002  0.00  0.00    +0.106 A 
ATOM      7  C   UNL     1       3.686  -0.762  -0.012  0.00  0.00    +0.035 C 
ATOM      8  C   UNL     1       4.861   0.113  -0.446  0.00  0.00    +0.005 C 
ATOM      9  C   UNL     1       4.847   1.394   0.396  0.00  0.00    +0.005 C 
ATOM     10  C   UNL     1       3.645   2.236  -0.027  0.00  0.00    +0.035 C 
ENDROOT
BRANCH   6  11
ATOM     11  S   UNL     1      -1.510  -0.909   0.009  0.00  0.00    +0.061 S 
ATOM     12  O   UNL     1      -1.215  -2.189   0.550  0.00  0.00    -0.153 OA
ATOM     13  O   UNL     1      -2.494  -0.051   0.572  0.00  0.00    -0.153 OA
BRANCH  11  14
ATOM     14  N   UNL     1      -1.942  -1.152  -1.571  0.00  0.00    -0.173 NA
ATOM     15  C   UNL     1      -2.776  -0.261  -2.405  0.00  0.00    +0.113 C 
ATOM     16  C   UNL     1      -2.885  -0.975  -3.788  0.00  0.00    +0.006 C 
ATOM     17  C   UNL     1      -1.458  -0.823  -4.403  0.00  0.00    +0.006 C 
ATOM     18  C   UNL     1      -0.559  -1.692  -3.493  0.00  0.00    +0.021 C 
ATOM     19  C   UNL     1      -1.560  -2.309  -2.431  0.00  0.00    +0.080 C 
ATOM     20  C   UNL     1      -2.856  -2.471  -3.308  0.00  0.00    +0.025 C 
ENDBRANCH  11  14
ENDBRANCH   6  11
TORSDOF 2
