REMARK  Name = ZINC15881559
REMARK  10 active torsions:
REMARK  status: ('A' for Active; 'I' for Inactive)
REMARK    1  A    between atoms: C_1  and  C_2
REMARK    2  A    between atoms: C_5  and  N_9
REMARK    3  A    between atoms: C_6  and  C_8
REMARK    4  A    between atoms: C_10  and  C_12
REMARK    5  A    between atoms: C_12  and  N_13
REMARK    6  A    between atoms: C_21  and  C_22
REMARK    7  A    between atoms: C_25  and  C_27
REMARK    8  A    between atoms: C_27  and  C_28
REMARK    9  A    between atoms: C_28  and  C_29
REMARK   10  A    between atoms: C_28  and  C_30
REMARK                            x       y       z     vdW  Elec       q    Type
REMARK                         _______ _______ _______ _____ _____    ______ ____
ROOT
ATOM      1  N   UNL     1       3.502  -2.405   0.268  0.00  0.00    -0.327 N 
ATOM      2  C   UNL     1       3.411  -3.263  -0.805  0.00  0.00    +0.050 A 
ATOM      3  C   UNL     1       3.505  -3.080  -2.181  0.00  0.00    +0.026 A 
ATOM      4  C   UNL     1       3.367  -4.159  -3.026  0.00  0.00    +0.002 A 
ATOM      5  C   UNL     1       3.133  -5.431  -2.520  0.00  0.00    +0.001 A 
ATOM      6  C   UNL     1       3.037  -5.635  -1.173  0.00  0.00    +0.010 A 
ATOM      7  C   UNL     1       3.174  -4.554  -0.296  0.00  0.00    +0.001 A 
ATOM      8  C   UNL     1       3.128  -4.420   1.158  0.00  0.00    +0.041 A 
ATOM      9  C   UNL     1       3.337  -3.108   1.442  0.00  0.00    +0.108 A 
ENDROOT
BRANCH   9  10
ATOM     10  C   UNL     1       3.377  -2.526   2.794  0.00  0.00    +0.265 A 
ATOM     11  N   UNL     1       3.573  -1.262   3.093  0.00  0.00    -0.106 NA
ATOM     12  N   UNL     1       3.543  -1.119   4.372  0.00  0.00    -0.112 NA
ATOM     13  C   UNL     1       3.329  -2.276   4.934  0.00  0.00    +0.218 A 
ATOM     14  O   UNL     1       3.213  -3.191   3.956  0.00  0.00    -0.419 OA
BRANCH  13  15
ATOM     15  C   UNL     1       3.223  -2.539   6.415  0.00  0.00    +0.100 C 
BRANCH  15  16
ATOM     16  C   UNL     1       1.765  -2.393   6.856  0.00  0.00    -0.008 C 
ATOM     17  C   UNL     1       1.638  -2.780   8.331  0.00  0.00    +0.008 C 
ATOM     18  C   UNL     1       1.319  -0.941   6.670  0.00  0.00    +0.008 C 
ENDBRANCH  15  16
ENDBRANCH  13  15
ENDBRANCH   9  10
BRANCH   1  19
ATOM     19  C   UNL     1       3.744  -0.963   0.176  0.00  0.00    +0.218 C 
BRANCH  19  21
ATOM     20  N   UNL     1       2.403   1.107  -0.015  0.00  0.00    -0.284 N 
ATOM     21  C   UNL     1       2.426  -0.238   0.079  0.00  0.00    +0.237 C 
ATOM     22  O   UNL     1       1.388  -0.864   0.086  0.00  0.00    -0.274 OA
ATOM     23  H   UNL     1       3.233   1.603  -0.086  0.00  0.00    +0.155 HD
BRANCH  20  28
ATOM     24  C   UNL     1      -2.555   3.865   0.002  0.00  0.00    +0.044 C 
ATOM     25  C   UNL     1      -1.238   3.132  -0.002  0.00  0.00    -0.050 A 
ATOM     26  C   UNL     1      -1.140   1.892  -0.607  0.00  0.00    +0.005 A 
ATOM     27  C   UNL     1       0.064   1.216  -0.608  0.00  0.00    +0.024 A 
ATOM     28  C   UNL     1       1.180   1.787  -0.010  0.00  0.00    +0.036 A 
ATOM     29  C   UNL     1       1.079   3.034   0.592  0.00  0.00    -0.029 A 
ATOM     30  C   UNL     1      -0.129   3.703   0.594  0.00  0.00    +0.008 A 
ATOM     31  C   UNL     1       2.288   3.657   1.242  0.00  0.00    +0.045 C 
ENDBRANCH  20  28
ENDBRANCH  19  21
ENDBRANCH   1  19
TORSDOF 6
