REMARK  Name = ZINC12309783
REMARK  12 active torsions:
REMARK  status: ('A' for Active; 'I' for Inactive)
REMARK    1  A    between atoms: C_1  and  C_2
REMARK    2  A    between atoms: C_2  and  C_3
REMARK    3  A    between atoms: C_3  and  C_4
REMARK    4  A    between atoms: C_4  and  C_5
REMARK    5  A    between atoms: C_11  and  N_12
REMARK    6  A    between atoms: N_12  and  O_13
REMARK    7  A    between atoms: O_13  and  C_14
REMARK    8  A    between atoms: C_14  and  C_15
REMARK    9  A    between atoms: N_17  and  C_18
REMARK   10  A    between atoms: C_21  and  C_24
REMARK   11  A    between atoms: N_30  and  C_35
REMARK   12  A    between atoms: N_33  and  C_34
REMARK                            x       y       z     vdW  Elec       q    Type
REMARK                         _______ _______ _______ _____ _____    ______ ____
ROOT
ATOM      1  C   UNL     1       1.187   6.001   0.605  0.00  0.00    -0.005 A 
ATOM      2  C   UNL     1       2.322   5.284   0.575  0.00  0.00    +0.090 A 
ATOM      3  N   UNL     1       2.360   4.013   0.066  0.00  0.00    -0.347 N 
ATOM      4  H   UNL     1       3.327   3.541  -0.161  0.00  0.00    +0.167 HD
ATOM      5  C   UNL     1       1.230   3.298  -0.176  0.00  0.00    +0.129 A 
ATOM      6  C   UNL     1      -0.006   3.939  -0.190  0.00  0.00    +0.106 A 
ATOM      7  C   UNL     1      -0.048   5.390   0.075  0.00  0.00    +0.082 A 
ATOM      8  C   UNL     1      -1.176   3.190  -0.453  0.00  0.00    +0.268 A 
ATOM      9  O   UNL     1      -2.268   3.730  -0.472  0.00  0.00    -0.267 OA
ATOM     10  N   UNL     1      -1.060   1.865  -0.686  0.00  0.00    -0.263 N 
ATOM     11  C   UNL     1       0.142   1.264  -0.659  0.00  0.00    +0.333 A 
ATOM     12  O   UNL     1       0.209   0.069  -0.867  0.00  0.00    -0.246 OA
ATOM     13  N   UNL     1       1.275   1.949  -0.415  0.00  0.00    -0.282 N 
ATOM     14  C   UNL     1       2.562   1.249  -0.403  0.00  0.00    +0.155 C 
ATOM     15  C   UNL     1      -2.259   1.071  -0.967  0.00  0.00    +0.157 C 
ENDROOT
BRANCH   7  16
ATOM     16  N   UNL     1      -1.129   6.101  -0.150  0.00  0.00    -0.264 N 
ATOM     17  H   UNL     1      -1.281   7.053   0.381  0.00  0.00    +0.194 HD
BRANCH  16  18
ATOM     18  O   UNL     1      -2.099   5.644  -1.075  0.00  0.00    -0.265 OA
BRANCH  18  19
ATOM     19  C   UNL     1      -3.221   6.516  -1.219  0.00  0.00    +0.288 C 
BRANCH  19  20
ATOM     20  C   UNL     1      -4.184   5.934  -2.222  0.00  0.00    +0.246 C 
ATOM     21  O   UNL     1      -3.933   4.876  -2.760  0.00  0.00    -0.273 OA
ATOM     22  N   UNL     1      -5.323   6.588  -2.521  0.00  0.00    -0.284 N 
ATOM     23  H   UNL     1      -5.511   7.587  -2.100  0.00  0.00    +0.155 HD
BRANCH  22  24
ATOM     24  C   UNL     1      -6.268   5.998  -3.368  0.00  0.00    +0.033 A 
ATOM     25  C   UNL     1      -7.018   6.786  -4.231  0.00  0.00    +0.024 A 
ATOM     26  C   UNL     1      -7.946   6.199  -5.069  0.00  0.00    +0.014 A 
ATOM     27  C   UNL     1      -8.136   4.830  -5.042  0.00  0.00    +0.055 A 
ATOM     28  C   UNL     1      -7.395   4.043  -4.179  0.00  0.00    +0.014 A 
ATOM     29  C   UNL     1      -6.462   4.623  -3.342  0.00  0.00    +0.024 A 
BRANCH  27  30
ATOM     30  C   UNL     1      -9.154   4.194  -5.953  0.00  0.00    +0.417 C 
ATOM     31  F   UNL     1     -10.393   4.145  -5.306  0.00  0.00    -0.166 F 
ATOM     32  F   UNL     1      -9.269   4.951  -7.124  0.00  0.00    -0.166 F 
ATOM     33  F   UNL     1      -8.745   2.895  -6.275  0.00  0.00    -0.166 F 
ENDBRANCH  27  30
ENDBRANCH  22  24
ENDBRANCH  19  20
ENDBRANCH  18  19
ENDBRANCH  16  18
ENDBRANCH   7  16
BRANCH   1  34
ATOM     34  C   UNL     1       1.175   7.400   1.165  0.00  0.00    +0.039 C 
BRANCH  34  35
ATOM     35  C   UNL     1       0.870   7.346   2.663  0.00  0.00    +0.004 C 
BRANCH  35  37
ATOM     36  C   UNL     1       0.553   8.713   4.731  0.00  0.00    +0.004 C 
ATOM     37  C   UNL     1       0.858   8.767   3.233  0.00  0.00    -0.003 C 
ENDBRANCH  35  37
ENDBRANCH  34  35
ENDBRANCH   1  34
TORSDOF 9
