REMARK  Name = ZINC35741608
REMARK  4 active torsions:
REMARK  status: ('A' for Active; 'I' for Inactive)
REMARK    1  A    between atoms: C_4  and  N_7
REMARK    2  A    between atoms: N_7  and  C_8
REMARK    3  A    between atoms: C_14  and  N_21
REMARK    4  A    between atoms: N_21  and  C_22
REMARK                            x       y       z     vdW  Elec       q    Type
REMARK                         _______ _______ _______ _____ _____    ______ ____
ROOT
ATOM      1  C   UNL     1       2.963  -2.234  -2.660  0.00  0.00    -0.058 C 
ATOM      2  C   UNL     1       3.696  -2.441  -1.357  0.00  0.00    -0.014 C 
ATOM      3  C   UNL     1       5.119  -1.948  -1.263  0.00  0.00    +0.011 C 
ATOM      4  C   UNL     1       6.039  -2.375  -2.400  0.00  0.00    +0.033 C 
ATOM      5  C   UNL     1       6.172  -3.892  -2.486  0.00  0.00    -0.058 C 
ATOM      6  C   UNL     1       4.864  -4.623  -2.683  0.00  0.00    -0.014 C 
ATOM      7  C   UNL     1       4.016  -4.184  -3.854  0.00  0.00    +0.011 C 
ATOM      8  C   UNL     1       3.717  -2.690  -3.905  0.00  0.00    +0.033 C 
ATOM      9  S   UNL     1       5.304  -1.792  -3.967  0.00  0.00    -0.157 S 
ENDROOT
BRANCH   1  10
ATOM     10  N   UNL     1       2.615  -0.806  -2.803  0.00  0.00    +0.383 N 
ATOM     11  H   UNL     1       2.139  -0.662  -3.681  0.00  0.00    -0.085 HD
ATOM     12  H   UNL     1       3.457  -0.251  -2.782  0.00  0.00    -0.085 HD
BRANCH  10  16
ATOM     13  C   UNL     1      -0.784   0.734  -0.727  0.00  0.00    -0.000 C 
ATOM     14  C   UNL     1       0.529   1.515  -0.645  0.00  0.00    -0.002 C 
ATOM     15  C   UNL     1       1.445   1.096  -1.796  0.00  0.00    -0.016 C 
ATOM     16  C   UNL     1       1.736  -0.403  -1.697  0.00  0.00    -0.071 C 
ATOM     17  C   UNL     1       0.423  -1.184  -1.779  0.00  0.00    -0.016 C 
ATOM     18  C   UNL     1      -0.493  -0.765  -0.627  0.00  0.00    -0.002 C 
ENDBRANCH  10  16
ENDBRANCH   1  10
BRANCH   5  19
ATOM     19  N   UNL     1       6.842  -4.401  -1.276  0.00  0.00    +0.383 N 
ATOM     20  H   UNL     1       6.350  -4.075  -0.457  0.00  0.00    -0.085 HD
ATOM     21  H   UNL     1       6.841  -5.410  -1.289  0.00  0.00    -0.085 HD
BRANCH  19  22
ATOM     22  C   UNL     1       8.227  -3.913  -1.241  0.00  0.00    -0.071 C 
ATOM     23  C   UNL     1       9.014  -4.526  -2.401  0.00  0.00    -0.016 C 
ATOM     24  C   UNL     1      10.456  -4.018  -2.365  0.00  0.00    -0.002 C 
ATOM     25  C   UNL     1      11.106  -4.421  -1.040  0.00  0.00    -0.000 C 
ATOM     26  C   UNL     1      10.320  -3.808   0.121  0.00  0.00    -0.002 C 
ATOM     27  C   UNL     1       8.877  -4.317   0.085  0.00  0.00    -0.016 C 
ENDBRANCH  19  22
ENDBRANCH   5  19
TORSDOF 4
