REMARK  Name = ZINC08492886
REMARK  9 active torsions:
REMARK  status: ('A' for Active; 'I' for Inactive)
REMARK    1  A    between atoms: C_1  and  C_2
REMARK    2  A    between atoms: C_2  and  C_3
REMARK    3  A    between atoms: C_8  and  N_9
REMARK    4  A    between atoms: C_10  and  C_12
REMARK    5  A    between atoms: C_12  and  N_13
REMARK    6  A    between atoms: N_13  and  C_14
REMARK    7  A    between atoms: N_13  and  C_15
REMARK    8  A    between atoms: C_15  and  C_16
REMARK    9  A    between atoms: N_21  and  C_22
REMARK                            x       y       z     vdW  Elec       q    Type
REMARK                         _______ _______ _______ _____ _____    ______ ____
ROOT
ATOM      1  C   UNL     1      -1.546  -0.789  -7.223  0.00  0.00    +0.019 C 
ENDROOT
BRANCH   1   2
ATOM      2  C   UNL     1      -2.421  -1.237  -8.365  0.00  0.00    +0.204 C 
ATOM      3  O   UNL     1      -3.476  -1.790  -8.140  0.00  0.00    -0.277 OA
ATOM      4  N   UNL     1      -2.031  -1.022  -9.637  0.00  0.00    -0.241 N 
ATOM      5  C   UNL     1      -2.813  -1.422 -10.659  0.00  0.00    +0.310 C 
ATOM      6  O   UNL     1      -3.871  -1.977 -10.433  0.00  0.00    -0.252 OA
ATOM      7  N   UNL     1      -2.422  -1.208 -11.931  0.00  0.00    -0.269 N 
ATOM      8  H   UNL     1      -1.186  -0.580  -9.817  0.00  0.00    +0.159 HD
ATOM      9  H   UNL     1      -1.546  -0.833 -12.113  0.00  0.00    +0.156 HD
BRANCH   7  10
ATOM     10  C   UNL     1      -3.282  -1.525 -12.991  0.00  0.00    +0.038 A 
ATOM     11  C   UNL     1      -2.762  -1.990 -14.191  0.00  0.00    +0.027 A 
ATOM     12  C   UNL     1      -3.608  -2.303 -15.238  0.00  0.00    +0.051 A 
ATOM     13  C   UNL     1      -4.978  -2.155 -15.092  0.00  0.00    +0.166 A 
ATOM     14  C   UNL     1      -5.503  -1.690 -13.889  0.00  0.00    +0.168 A 
ATOM     15  C   UNL     1      -4.654  -1.381 -12.839  0.00  0.00    +0.073 A 
ATOM     16  O   UNL     1      -6.862  -1.634 -13.998  0.00  0.00    -0.453 OA
ATOM     17  C   UNL     1      -7.137  -1.679 -15.411  0.00  0.00    +0.466 C 
ATOM     18  O   UNL     1      -6.010  -2.390 -15.956  0.00  0.00    -0.453 OA
ENDBRANCH   7  10
ENDBRANCH   1   2
BRANCH   1  19
ATOM     19  N   UNL     1      -2.190  -1.136  -5.948  0.00  0.00    +0.389 N 
ATOM     20  C   UNL     1      -3.436  -0.372  -5.806  0.00  0.00    -0.095 C 
ATOM     21  H   UNL     1      -2.397  -2.124  -5.934  0.00  0.00    -0.081 HD
BRANCH  19  22
ATOM     22  C   UNL     1      -1.285  -0.809  -4.838  0.00  0.00    +0.019 C 
BRANCH  22  24
ATOM     23  N   UNL     1      -1.236  -1.082  -2.380  0.00  0.00    -0.287 N 
ATOM     24  C   UNL     1      -1.893  -1.277  -3.541  0.00  0.00    +0.201 C 
ATOM     25  O   UNL     1      -2.973  -1.828  -3.541  0.00  0.00    -0.278 OA
ATOM     26  H   UNL     1      -0.404  -0.583  -2.371  0.00  0.00    +0.155 HD
BRANCH  23  32
ATOM     27  C   UNL     1      -0.894  -2.027  -0.184  0.00  0.00    -0.026 A 
ATOM     28  C   UNL     1      -1.408  -2.533   0.994  0.00  0.00    +0.005 A 
ATOM     29  C   UNL     1      -2.776  -2.619   1.172  0.00  0.00    +0.000 A 
ATOM     30  C   UNL     1      -3.635  -2.200   0.172  0.00  0.00    +0.002 A 
ATOM     31  C   UNL     1      -3.127  -1.693  -1.008  0.00  0.00    +0.023 A 
ATOM     32  C   UNL     1      -1.753  -1.600  -1.188  0.00  0.00    +0.036 A 
BRANCH  27  34
ATOM     33  C   UNL     1       1.075  -0.533   0.012  0.00  0.00    +0.009 C 
ATOM     34  C   UNL     1       0.598  -1.933  -0.377  0.00  0.00    +0.033 C 
ENDBRANCH  27  34
ENDBRANCH  23  32
ENDBRANCH  22  24
ENDBRANCH  19  22
ENDBRANCH   1  19
TORSDOF 7
