REMARK  Name = ZINC35760443
REMARK  12 active torsions:
REMARK  status: ('A' for Active; 'I' for Inactive)
REMARK    1  A    between atoms: C_4  and  O_7
REMARK    2  A    between atoms: O_7  and  C_8
REMARK    3  A    between atoms: C_8  and  C_9
REMARK    4  A    between atoms: C_9  and  C_11
REMARK    5  A    between atoms: C_9  and  O_39
REMARK    6  A    between atoms: C_11  and  N_12
REMARK    7  A    between atoms: N_12  and  C_13
REMARK    8  A    between atoms: N_12  and  C_32
REMARK    9  A    between atoms: C_13  and  C_14
REMARK   10  A    between atoms: C_15  and  C_25
REMARK   11  A    between atoms: C_18  and  N_19
REMARK   12  A    between atoms: C_32  and  C_33
REMARK                            x       y       z     vdW  Elec       q    Type
REMARK                         _______ _______ _______ _____ _____    ______ ____
ROOT
ATOM      1  N   UNL     1       6.667  -4.024  -0.835  0.00  0.00    +0.386 N 
ATOM      2  H   UNL     1       7.301  -3.633  -1.516  0.00  0.00    -0.081 HD
ENDROOT
BRANCH   1   3
ATOM      3  C   UNL     1       5.363  -3.356  -0.938  0.00  0.00    -0.043 C 
BRANCH   3   4
ATOM      4  C   UNL     1       5.558  -1.841  -0.848  0.00  0.00    +0.135 C 
BRANCH   4   5
ATOM      5  O   UNL     1       5.984  -1.494   0.471  0.00  0.00    -0.390 OA
ATOM      6  H   UNL     1       5.358  -1.743   1.165  0.00  0.00    +0.210 HD
ENDBRANCH   4   5
BRANCH   4   7
ATOM      7  C   UNL     1       4.235  -1.138  -1.159  0.00  0.00    +0.258 C 
BRANCH   7   8
ATOM      8  O   UNL     1       4.443   0.276  -1.189  0.00  0.00    -0.489 OA
BRANCH   8  12
ATOM      9  C   UNL     1       1.157   2.635  -1.996  0.00  0.00    +0.000 A 
ATOM     10  C   UNL     1       2.389   3.222  -1.769  0.00  0.00    +0.004 A 
ATOM     11  C   UNL     1       3.491   2.434  -1.499  0.00  0.00    +0.045 A 
ATOM     12  C   UNL     1       3.361   1.053  -1.454  0.00  0.00    +0.121 A 
ATOM     13  C   UNL     1       2.123   0.468  -1.681  0.00  0.00    +0.045 A 
ATOM     14  C   UNL     1       1.025   1.260  -1.952  0.00  0.00    +0.004 A 
ENDBRANCH   8  12
ENDBRANCH   7   8
ENDBRANCH   4   7
ENDBRANCH   3   4
ENDBRANCH   1   3
BRANCH   1  15
ATOM     15  C   UNL     1       6.502  -5.462  -1.089  0.00  0.00    -0.035 C 
BRANCH  15  16
ATOM     16  C   UNL     1       6.048  -5.672  -2.510  0.00  0.00    +0.025 A 
ATOM     17  C   UNL     1       4.715  -5.848  -2.938  0.00  0.00    +0.117 A 
ATOM     18  N   UNL     1       4.725  -6.000  -4.242  0.00  0.00    -0.076 NA
ATOM     19  O   UNL     1       6.069  -5.924  -4.681  0.00  0.00    -0.339 OA
ATOM     20  C   UNL     1       6.848  -5.719  -3.605  0.00  0.00    +0.222 A 
BRANCH  17  21
ATOM     21  C   UNL     1       3.513  -5.861  -2.066  0.00  0.00    +0.004 A 
ATOM     22  C   UNL     1       3.538  -6.542  -0.851  0.00  0.00    +0.013 A 
ATOM     23  C   UNL     1       2.420  -6.551  -0.044  0.00  0.00    +0.039 A 
ATOM     24  C   UNL     1       1.272  -5.884  -0.441  0.00  0.00    +0.123 A 
ATOM     25  C   UNL     1       1.242  -5.205  -1.649  0.00  0.00    +0.039 A 
ATOM     26  C   UNL     1       2.359  -5.186  -2.459  0.00  0.00    +0.013 A 
ATOM     27  F   UNL     1       0.178  -5.895   0.352  0.00  0.00    -0.205 F 
ENDBRANCH  17  21
BRANCH  20  28
ATOM     28  N   UNL     1       8.224  -5.583  -3.612  0.00  0.00    -0.295 N 
ATOM     29  C   UNL     1       9.102  -6.761  -3.526  0.00  0.00    +0.136 C 
ATOM     30  C   UNL     1      10.134  -6.678  -4.656  0.00  0.00    +0.179 C 
ATOM     31  O   UNL     1      10.778  -5.402  -4.614  0.00  0.00    -0.377 OA
ATOM     32  C   UNL     1       9.898  -4.296  -4.829  0.00  0.00    +0.179 C 
ATOM     33  C   UNL     1       8.854  -4.257  -3.713  0.00  0.00    +0.136 C 
ENDBRANCH  20  28
ENDBRANCH  15  16
ENDBRANCH   1  15
BRANCH   1  34
ATOM     34  C   UNL     1       7.214  -3.825   0.514  0.00  0.00    -0.046 C 
BRANCH  34  35
ATOM     35  C   UNL     1       8.595  -4.479   0.606  0.00  0.00    +0.102 C 
ATOM     36  C   UNL     1       9.162  -4.305   2.031  0.00  0.00    +0.032 C 
ATOM     37  C   UNL     1      10.665  -4.025   1.756  0.00  0.00    +0.030 C 
ATOM     38  C   UNL     1      10.577  -3.231   0.429  0.00  0.00    +0.160 C 
ATOM     39  O   UNL     1       9.498  -3.838  -0.302  0.00  0.00    -0.378 OA
ENDBRANCH  34  35
ENDBRANCH   1  34
TORSDOF 12
