REMARK  Name = ZINC00886369
REMARK  9 active torsions:
REMARK  status: ('A' for Active; 'I' for Inactive)
REMARK    1  A    between atoms: C_1  and  C_2
REMARK    2  A    between atoms: C_5  and  C_7
REMARK    3  A    between atoms: N_10  and  C_12
REMARK    4  A    between atoms: C_12  and  C_13
REMARK    5  A    between atoms: N_15  and  C_16
REMARK    6  A    between atoms: N_15  and  C_22
REMARK    7  A    between atoms: C_22  and  C_24
REMARK    8  A    between atoms: C_22  and  C_31
REMARK    9  A    between atoms: N_33  and  C_34
REMARK                            x       y       z     vdW  Elec       q    Type
REMARK                         _______ _______ _______ _____ _____    ______ ____
ROOT
ATOM      1  C   UNL     1       1.210  -3.644   0.350  0.00  0.00    +0.240 C 
ATOM      2  O   UNL     1       1.026  -4.765   0.773  0.00  0.00    -0.273 OA
ATOM      3  N   UNL     1       0.785  -2.578   1.057  0.00  0.00    -0.281 N 
ENDROOT
BRANCH   3   4
ATOM      4  C   UNL     1       0.909  -1.230   0.497  0.00  0.00    +0.077 C 
ATOM      5  C   UNL     1       2.385  -0.830   0.456  0.00  0.00    +0.022 C 
ATOM      6  C   UNL     1       2.515   0.578  -0.129  0.00  0.00    +0.002 C 
ATOM      7  C   UNL     1       1.743   1.567   0.746  0.00  0.00    +0.000 C 
ATOM      8  C   UNL     1       0.267   1.167   0.787  0.00  0.00    +0.002 C 
ATOM      9  C   UNL     1       0.137  -0.241   1.372  0.00  0.00    +0.022 C 
ENDBRANCH   3   4
BRANCH   1  10
ATOM     10  C   UNL     1       1.914  -3.442  -0.967  0.00  0.00    +0.264 C 
BRANCH  10  14
ATOM     11  C   UNL     1       2.924  -6.578  -2.233  0.00  0.00    +0.239 A 
ATOM     12  N   UNL     1       1.736  -6.414  -2.835  0.00  0.00    -0.105 NA
ATOM     13  N   UNL     1       1.261  -5.281  -2.442  0.00  0.00    -0.045 NA
ATOM     14  N   UNL     1       2.096  -4.737  -1.627  0.00  0.00    -0.154 N 
ATOM     15  N   UNL     1       3.120  -5.506  -1.488  0.00  0.00    -0.127 NA
BRANCH  11  20
ATOM     16  C   UNL     1       6.905  -9.584  -1.667  0.00  0.00    +0.086 C 
ATOM     17  C   UNL     1       5.576  -9.050  -2.136  0.00  0.00    +0.103 A 
ATOM     18  C   UNL     1       4.740  -9.667  -2.994  0.00  0.00    +0.045 A 
ATOM     19  C   UNL     1       3.618  -8.829  -3.152  0.00  0.00    +0.053 A 
ATOM     20  C   UNL     1       3.837  -7.732  -2.380  0.00  0.00    +0.175 A 
ATOM     21  O   UNL     1       5.027  -7.882  -1.766  0.00  0.00    -0.457 OA
ENDBRANCH  11  20
ENDBRANCH  10  14
ENDBRANCH   1  10
BRANCH   3  22
ATOM     22  C   UNL     1       0.197  -2.768   2.386  0.00  0.00    +0.192 C 
BRANCH  22  23
ATOM     23  C   UNL     1      -1.185  -2.169   2.414  0.00  0.00    -0.018 A 
ATOM     24  C   UNL     1      -1.565  -1.360   3.469  0.00  0.00    +0.009 A 
ATOM     25  C   UNL     1      -2.831  -0.805   3.494  0.00  0.00    +0.038 A 
ATOM     26  C   UNL     1      -3.722  -1.069   2.467  0.00  0.00    +0.123 A 
ATOM     27  C   UNL     1      -3.341  -1.883   1.414  0.00  0.00    +0.038 A 
ATOM     28  C   UNL     1      -2.073  -2.432   1.389  0.00  0.00    +0.009 A 
ATOM     29  F   UNL     1      -4.961  -0.532   2.493  0.00  0.00    -0.205 F 
ENDBRANCH  22  23
BRANCH  22  30
ATOM     30  C   UNL     1       1.061  -2.090   3.418  0.00  0.00    +0.238 C 
ATOM     31  O   UNL     1       2.001  -1.408   3.069  0.00  0.00    -0.273 OA
ATOM     32  N   UNL     1       0.788  -2.240   4.729  0.00  0.00    -0.311 N 
ATOM     33  H   UNL     1       0.036  -2.786   5.008  0.00  0.00    +0.149 HD
BRANCH  32  34
ATOM     34  C   UNL     1       1.627  -1.581   5.733  0.00  0.00    +0.073 C 
ATOM     35  C   UNL     1       2.844  -2.457   6.035  0.00  0.00    +0.022 C 
ATOM     36  C   UNL     1       3.720  -1.768   7.083  0.00  0.00    +0.002 C 
ATOM     37  C   UNL     1       2.912  -1.558   8.365  0.00  0.00    +0.000 C 
ATOM     38  C   UNL     1       1.695  -0.681   8.063  0.00  0.00    +0.002 C 
ATOM     39  C   UNL     1       0.819  -1.370   7.015  0.00  0.00    +0.022 C 
ENDBRANCH  32  34
ENDBRANCH  22  30
ENDBRANCH   3  22
TORSDOF 8
