REMARK  Name = ZINC03431954
REMARK  7 active torsions:
REMARK  status: ('A' for Active; 'I' for Inactive)
REMARK    1  A    between atoms: C_1  and  C_2
REMARK    2  A    between atoms: C_2  and  C_3
REMARK    3  A    between atoms: C_3  and  C_20
REMARK    4  A    between atoms: N_6  and  N_10
REMARK    5  A    between atoms: C_11  and  C_12
REMARK    6  A    between atoms: C_15  and  S_18
REMARK    7  A    between atoms: S_18  and  C_19
REMARK                            x       y       z     vdW  Elec       q    Type
REMARK                         _______ _______ _______ _____ _____    ______ ____
ROOT
ATOM      1  C   UNL     1       1.438   1.773  -0.004  0.00  0.00    +0.111 C 
ATOM      2  C   UNL     1      -0.016   1.343   0.003  0.00  0.00    +0.266 C 
ATOM      3  O   UNL     1      -0.992   2.063   0.003  0.00  0.00    -0.271 OA
ATOM      4  N   UNL     1       0.002  -0.004   0.003  0.00  0.00    -0.109 N 
ATOM      5  C   UNL     1       1.252  -0.481  -0.003  0.00  0.00    +0.330 C 
ATOM      6  O   UNL     1       1.524  -1.665  -0.004  0.00  0.00    -0.250 OA
ATOM      7  N   UNL     1       2.175   0.498  -0.007  0.00  0.00    -0.284 N 
ATOM      8  C   UNL     1       1.754   2.581  -1.264  0.00  0.00    +0.041 C 
ATOM      9  H   UNL     1       3.139   0.386  -0.011  0.00  0.00    +0.151 HD
ENDROOT
BRANCH   1  11
ATOM     10  C   UNL     1       3.237   3.001   1.219  0.00  0.00    +0.006 C 
ATOM     11  C   UNL     1       1.766   2.582   1.253  0.00  0.00    +0.032 C 
ENDBRANCH   1  11
BRANCH   4  12
ATOM     12  N   UNL     1      -1.146  -0.807   0.009  0.00  0.00    -0.176 NA
ATOM     13  C   UNL     1      -2.319  -0.261   0.122  0.00  0.00    +0.139 C 
BRANCH  13  14
ATOM     14  C   UNL     1      -3.518  -1.110   0.241  0.00  0.00    -0.005 A 
ATOM     15  C   UNL     1      -3.394  -2.502   0.226  0.00  0.00    +0.010 A 
ATOM     16  C   UNL     1      -4.516  -3.292   0.342  0.00  0.00    +0.015 A 
ATOM     17  C   UNL     1      -5.773  -2.706   0.463  0.00  0.00    +0.008 A 
ATOM     18  C   UNL     1      -5.899  -1.320   0.473  0.00  0.00    +0.015 A 
ATOM     19  C   UNL     1      -4.781  -0.524   0.362  0.00  0.00    +0.010 A 
BRANCH  17  20
ATOM     20  S   UNL     1      -7.206  -3.720   0.605  0.00  0.00    -0.129 S 
ATOM     21  C   UNL     1      -6.555  -5.412   0.545  0.00  0.00    +0.090 C 
ENDBRANCH  17  20
ENDBRANCH  13  14
ENDBRANCH   4  12
TORSDOF 4
