REMARK  Name = ZINC38826631
REMARK  8 active torsions:
REMARK  status: ('A' for Active; 'I' for Inactive)
REMARK    1  A    between atoms: C_4  and  C_7
REMARK    2  A    between atoms: C_7  and  S_8
REMARK    3  A    between atoms: S_8  and  C_9
REMARK    4  A    between atoms: C_13  and  S_15
REMARK    5  A    between atoms: S_15  and  C_16
REMARK    6  A    between atoms: C_16  and  C_17
REMARK    7  A    between atoms: N_19  and  N_20
REMARK    8  A    between atoms: C_21  and  C_22
REMARK                            x       y       z     vdW  Elec       q    Type
REMARK                         _______ _______ _______ _____ _____    ______ ____
ROOT
ATOM      1  C   UNL     1       8.300  -2.678  -3.241  0.00  0.00    +0.173 C 
ENDROOT
BRANCH   1   2
ATOM      2  C   UNL     1       8.731  -3.325  -4.533  0.00  0.00    +0.242 C 
ATOM      3  O   UNL     1       8.298  -4.416  -4.838  0.00  0.00    -0.273 OA
ATOM      4  N   UNL     1       9.597  -2.691  -5.348  0.00  0.00    -0.206 N 
ATOM      5  H   UNL     1       9.943  -1.819  -5.103  0.00  0.00    +0.177 HD
BRANCH   4   6
ATOM      6  N   UNL     1       9.997  -3.292  -6.548  0.00  0.00    -0.188 NA
ATOM      7  C   UNL     1      10.839  -2.676  -7.340  0.00  0.00    +0.136 C 
BRANCH   7   8
ATOM      8  C   UNL     1      11.240  -3.278  -8.541  0.00  0.00    +0.000 C 
ATOM      9  C   UNL     1      12.125  -2.765  -9.486  0.00  0.00    +0.004 A 
ATOM     10  C   UNL     1      12.860  -1.560  -9.550  0.00  0.00    +0.010 A 
ATOM     11  C   UNL     1      13.664  -1.318 -10.616  0.00  0.00    +0.001 A 
ATOM     12  C   UNL     1      13.787  -2.235 -11.664  0.00  0.00    +0.002 A 
ATOM     13  C   UNL     1      13.113  -3.409 -11.670  0.00  0.00    +0.026 A 
ATOM     14  C   UNL     1      12.251  -3.734 -10.588  0.00  0.00    +0.043 A 
ATOM     15  N   UNL     1      11.499  -4.790 -10.361  0.00  0.00    -0.380 N 
ATOM     16  C   UNL     1      10.806  -4.624  -9.079  0.00  0.00    +0.150 C 
ATOM     17  H   UNL     1      11.419  -5.560 -10.946  0.00  0.00    +0.160 HD
ENDBRANCH   7   8
ENDBRANCH   4   6
ENDBRANCH   1   2
BRANCH   1  18
ATOM     18  S   UNL     1       7.140  -3.771  -2.375  0.00  0.00    -0.088 S 
BRANCH  18  22
ATOM     19  C   UNL     1       5.831  -1.891   1.472  0.00  0.00    +0.211 C 
ATOM     20  N   UNL     1       6.784  -1.116   0.645  0.00  0.00    -0.244 N 
ATOM     21  N   UNL     1       7.167  -1.721  -0.531  0.00  0.00    -0.172 NA
ATOM     22  C   UNL     1       6.736  -2.886  -0.907  0.00  0.00    +0.151 C 
ATOM     23  S   UNL     1       5.637  -3.384   0.412  0.00  0.00    -0.063 S 
ATOM     24  H   UNL     1       7.114  -0.245   0.913  0.00  0.00    +0.170 HD
BRANCH  19  25
ATOM     25  S   UNL     1       4.257  -1.011   1.666  0.00  0.00    -0.122 S 
BRANCH  25  26
ATOM     26  C   UNL     1       3.711  -0.707  -0.038  0.00  0.00    +0.107 C 
BRANCH  26  30
ATOM     27  C   UNL     1      -0.017   1.378   0.010  0.00  0.00    +0.000 A 
ATOM     28  C   UNL     1       1.171   2.086   0.002  0.00  0.00    +0.000 A 
ATOM     29  C   UNL     1       2.377   1.411  -0.013  0.00  0.00    +0.004 A 
ATOM     30  C   UNL     1       2.396   0.029  -0.020  0.00  0.00    -0.037 A 
ATOM     31  C   UNL     1       1.208  -0.679  -0.012  0.00  0.00    +0.004 A 
ATOM     32  C   UNL     1       0.002  -0.004   0.002  0.00  0.00    +0.000 A 
ENDBRANCH  26  30
ENDBRANCH  25  26
ENDBRANCH  19  25
ENDBRANCH  18  22
ENDBRANCH   1  18
TORSDOF 8
