REMARK  Name = ZINC25442291
REMARK  7 active torsions:
REMARK  status: ('A' for Active; 'I' for Inactive)
REMARK    1  A    between atoms: C_1  and  C_2
REMARK    2  A    between atoms: C_5  and  C_8
REMARK    3  A    between atoms: C_8  and  C_9
REMARK    4  A    between atoms: C_9  and  C_10
REMARK    5  A    between atoms: C_16  and  C_18
REMARK    6  A    between atoms: C_18  and  C_20
REMARK    7  A    between atoms: C_18  and  N_21
REMARK                            x       y       z     vdW  Elec       q    Type
REMARK                         _______ _______ _______ _____ _____    ______ ____
ROOT
ATOM      1  C   UNL     1      -7.170   0.338   0.272  0.00  0.00    -0.008 C 
ATOM      2  C   UNL     1      -6.930   1.830   0.517  0.00  0.00    +0.022 C 
ATOM      3  C   UNL     1      -5.718   2.003   1.439  0.00  0.00    +0.108 C 
ATOM      4  N   UNL     1      -4.572   1.296   0.851  0.00  0.00    -0.300 N 
ATOM      5  C   UNL     1      -4.726  -0.119   0.488  0.00  0.00    +0.108 C 
ATOM      6  C   UNL     1      -5.947  -0.270  -0.418  0.00  0.00    +0.022 C 
ATOM      7  C   UNL     1      -3.404   1.935   0.645  0.00  0.00    +0.236 C 
ATOM      8  O   UNL     1      -2.496   1.369   0.073  0.00  0.00    -0.274 OA
ENDROOT
BRANCH   7   9
ATOM      9  C   UNL     1      -3.224   3.352   1.125  0.00  0.00    +0.157 C 
ATOM     10  C   UNL     1      -2.980   3.352   2.636  0.00  0.00    +0.038 C 
BRANCH   9  11
ATOM     11  N   UNL     1      -2.077   3.957   0.445  0.00  0.00    -0.289 N 
ATOM     12  C   UNL     1      -2.006   5.295   0.304  0.00  0.00    +0.298 C 
ATOM     13  O   UNL     1      -2.894   6.001   0.741  0.00  0.00    -0.253 OA
ATOM     14  N   UNL     1      -0.947   5.852  -0.317  0.00  0.00    -0.313 N 
ATOM     15  H   UNL     1      -1.273   3.318   0.050  0.00  0.00    +0.151 HD
ATOM     16  H   UNL     1      -0.889   6.944  -0.433  0.00  0.00    +0.146 HD
ATOM     17  H   UNL     1      -0.141   5.214  -0.709  0.00  0.00    +0.146 HD
ENDBRANCH   9  11
ENDBRANCH   7   9
BRANCH   1  18
ATOM     18  C   UNL     1      -8.400   0.160  -0.621  0.00  0.00    +0.008 C 
BRANCH  18  19
ATOM     19  C   UNL     1      -8.714  -1.330  -0.764  0.00  0.00    +0.035 C 
BRANCH  19  24
ATOM     20  C   UNL     1     -13.360  -2.003  -4.135  0.00  0.00    +0.044 C 
ATOM     21  C   UNL     1     -12.148  -1.828  -3.256  0.00  0.00    -0.050 A 
ATOM     22  C   UNL     1     -10.885  -1.804  -3.817  0.00  0.00    +0.003 A 
ATOM     23  C   UNL     1      -9.774  -1.643  -3.010  0.00  0.00    +0.004 A 
ATOM     24  C   UNL     1      -9.926  -1.506  -1.643  0.00  0.00    -0.047 A 
ATOM     25  C   UNL     1     -11.188  -1.536  -1.081  0.00  0.00    +0.004 A 
ATOM     26  C   UNL     1     -12.300  -1.692  -1.888  0.00  0.00    +0.003 A 
ENDBRANCH  19  24
ENDBRANCH  18  19
ENDBRANCH   1  18
TORSDOF 5
