REMARK  Name = ZINC63207735
REMARK  8 active torsions:
REMARK  status: ('A' for Active; 'I' for Inactive)
REMARK    1  A    between atoms: C_1  and  C_2
REMARK    2  A    between atoms: C_2  and  C_3
REMARK    3  A    between atoms: C_3  and  C_4
REMARK    4  A    between atoms: N_6  and  C_7
REMARK    5  A    between atoms: C_11  and  N_14
REMARK    6  A    between atoms: C_12  and  C_13
REMARK    7  A    between atoms: C_15  and  C_17
REMARK    8  A    between atoms: C_23  and  C_24
REMARK                            x       y       z     vdW  Elec       q    Type
REMARK                         _______ _______ _______ _____ _____    ______ ____
ROOT
ATOM      1  N   UNL     1      -4.928  -6.798  -0.447  0.00  0.00    -0.277 N 
ATOM      2  C   UNL     1      -4.899  -8.145  -0.436  0.00  0.00    +0.303 C 
ATOM      3  O   UNL     1      -3.836  -8.729  -0.425  0.00  0.00    -0.265 OA
ATOM      4  H   UNL     1      -5.776  -6.331  -0.524  0.00  0.00    +0.155 HD
ENDROOT
BRANCH   1   9
ATOM      5  C   UNL     1      -2.532  -4.147   0.430  0.00  0.00    +0.038 A 
ATOM      6  C   UNL     1      -1.373  -4.640  -0.157  0.00  0.00    +0.024 A 
ATOM      7  C   UNL     1      -1.399  -5.843  -0.835  0.00  0.00    +0.004 A 
ATOM      8  C   UNL     1      -2.576  -6.560  -0.933  0.00  0.00    +0.024 A 
ATOM      9  C   UNL     1      -3.738  -6.072  -0.348  0.00  0.00    +0.038 A 
ATOM     10  C   UNL     1      -3.714  -4.867   0.340  0.00  0.00    -0.008 A 
ATOM     11  C   UNL     1      -4.971  -4.338   0.981  0.00  0.00    +0.047 C 
BRANCH   5  14
ATOM     12  C   UNL     1      -1.351  -2.477   1.645  0.00  0.00    +0.217 C 
ATOM     13  O   UNL     1      -0.358  -3.174   1.618  0.00  0.00    -0.275 OA
ATOM     14  N   UNL     1      -2.506  -2.928   1.117  0.00  0.00    -0.285 N 
ATOM     15  H   UNL     1      -3.318  -2.407   1.212  0.00  0.00    +0.155 HD
BRANCH  12  16
ATOM     16  C   UNL     1      -1.292  -1.107   2.269  0.00  0.00    +0.096 C 
BRANCH  16  18
ATOM     17  C   UNL     1       0.183   0.548   3.422  0.00  0.00    +0.004 C 
ATOM     18  C   UNL     1       0.123  -0.843   2.788  0.00  0.00    +0.006 C 
ENDBRANCH  16  18
ENDBRANCH  12  16
ENDBRANCH   5  14
ENDBRANCH   1   9
BRANCH   2  19
ATOM     19  C   UNL     1      -6.177  -8.919  -0.437  0.00  0.00    +0.302 C 
ATOM     20  O   UNL     1      -7.240  -8.335  -0.448  0.00  0.00    -0.265 OA
ATOM     21  N   UNL     1      -6.148 -10.267  -0.426  0.00  0.00    -0.290 N 
ATOM     22  C   UNL     1      -4.937 -11.099  -0.308  0.00  0.00    +0.108 C 
ATOM     23  C   UNL     1      -5.324 -12.455  -0.950  0.00  0.00    +0.021 C 
ATOM     24  C   UNL     1      -6.801 -12.603  -0.498  0.00  0.00    +0.024 C 
ATOM     25  C   UNL     1      -7.319 -11.150  -0.523  0.00  0.00    +0.080 C 
BRANCH  25  26
ATOM     26  C   UNL     1      -8.253 -10.907   0.665  0.00  0.00    +0.010 C 
ATOM     27  C   UNL     1      -9.417 -11.899   0.609  0.00  0.00    +0.005 C 
ATOM     28  C   UNL     1     -10.351 -11.656   1.797  0.00  0.00    +0.000 C 
ATOM     29  C   UNL     1      -9.577 -11.851   3.102  0.00  0.00    +0.000 C 
ATOM     30  C   UNL     1      -8.413 -10.859   3.158  0.00  0.00    +0.000 C 
ATOM     31  C   UNL     1      -7.479 -11.102   1.970  0.00  0.00    +0.005 C 
ENDBRANCH  25  26
ENDBRANCH   2  19
TORSDOF 6
