REMARK  Name = ZINC65227792
REMARK  8 active torsions:
REMARK  status: ('A' for Active; 'I' for Inactive)
REMARK    1  A    between atoms: C_1  and  C_2
REMARK    2  A    between atoms: C_2  and  C_3
REMARK    3  A    between atoms: C_5  and  C_8
REMARK    4  A    between atoms: C_13  and  N_14
REMARK    5  A    between atoms: C_18  and  C_21
REMARK    6  A    between atoms: N_23  and  C_24
REMARK    7  A    between atoms: C_24  and  C_26
REMARK    8  A    between atoms: C_24  and  C_27
REMARK                            x       y       z     vdW  Elec       q    Type
REMARK                         _______ _______ _______ _____ _____    ______ ____
ROOT
ATOM      1  N   UNL     1       2.588  -1.951  -5.103  0.00  0.00    -0.315 N 
ATOM      2  C   UNL     1       1.322  -1.410  -4.591  0.00  0.00    +0.106 C 
ATOM      3  C   UNL     1       0.242  -2.491  -4.705  0.00  0.00    +0.020 C 
ATOM      4  C   UNL     1       0.174  -2.987  -6.151  0.00  0.00    +0.016 C 
ATOM      5  C   UNL     1       1.518  -3.605  -6.544  0.00  0.00    +0.092 C 
ATOM      6  C   UNL     1       2.614  -2.532  -6.453  0.00  0.00    +0.119 C 
ENDROOT
BRANCH   1  12
ATOM      7  C   UNL     1       4.544  -0.762  -4.340  0.00  0.00    +0.060 A 
ATOM      8  C   UNL     1       5.693  -0.739  -3.550  0.00  0.00    +0.016 A 
ATOM      9  C   UNL     1       5.994  -1.858  -2.790  0.00  0.00    +0.018 A 
ATOM     10  C   UNL     1       5.154  -2.956  -2.836  0.00  0.00    +0.084 A 
ATOM     11  N   UNL     1       4.072  -2.956  -3.591  0.00  0.00    -0.349 N 
ATOM     12  C   UNL     1       3.739  -1.910  -4.330  0.00  0.00    +0.110 A 
ATOM     13  H   UNL     1       3.504  -3.742  -3.601  0.00  0.00    +0.167 HD
BRANCH   7  16
ATOM     14  C   UNL     1       4.234   2.404  -6.022  0.00  0.00    +0.227 A 
ATOM     15  N   UNL     1       4.810   1.596  -5.179  0.00  0.00    -0.191 NA
ATOM     16  C   UNL     1       4.176   0.409  -5.171  0.00  0.00    +0.205 A 
ATOM     17  N   UNL     1       3.181   0.461  -6.022  0.00  0.00    -0.056 NA
ATOM     18  O   UNL     1       3.201   1.764  -6.586  0.00  0.00    -0.338 OA
BRANCH  14  20
ATOM     19  C   UNL     1       5.663   3.832  -7.460  0.00  0.00    +0.014 C 
ATOM     20  C   UNL     1       4.654   3.822  -6.310  0.00  0.00    +0.095 C 
ENDBRANCH  14  20
ENDBRANCH   7  16
ENDBRANCH   1  12
BRANCH   5  21
ATOM     21  C   UNL     1       1.440  -4.124  -7.957  0.00  0.00    +0.218 C 
ATOM     22  O   UNL     1       2.187  -3.686  -8.806  0.00  0.00    -0.275 OA
ATOM     23  N   UNL     1       0.540  -5.074  -8.277  0.00  0.00    -0.308 N 
ATOM     24  H   UNL     1      -0.058  -5.424  -7.598  0.00  0.00    +0.149 HD
BRANCH  23  25
ATOM     25  C   UNL     1       0.464  -5.579  -9.650  0.00  0.00    +0.100 C 
ATOM     26  C   UNL     1       1.492  -6.695  -9.841  0.00  0.00    +0.033 C 
BRANCH  25  27
ATOM     27  C   UNL     1      -0.919  -6.119  -9.911  0.00  0.00    -0.027 A 
ATOM     28  C   UNL     1      -1.576  -6.837  -8.930  0.00  0.00    +0.008 A 
ATOM     29  C   UNL     1      -2.844  -7.333  -9.168  0.00  0.00    +0.038 A 
ATOM     30  C   UNL     1      -3.456  -7.109 -10.390  0.00  0.00    +0.123 A 
ATOM     31  C   UNL     1      -2.797  -6.389 -11.371  0.00  0.00    +0.038 A 
ATOM     32  C   UNL     1      -1.531  -5.890 -11.129  0.00  0.00    +0.008 A 
ATOM     33  F   UNL     1      -4.695  -7.593 -10.624  0.00  0.00    -0.205 F 
ENDBRANCH  25  27
ENDBRANCH  23  25
ENDBRANCH   5  21
TORSDOF 6
