REMARK  Name = ZINC59000646
REMARK  9 active torsions:
REMARK  status: ('A' for Active; 'I' for Inactive)
REMARK    1  A    between atoms: C_1  and  C_2
REMARK    2  A    between atoms: C_5  and  C_8
REMARK    3  A    between atoms: N_15  and  C_18
REMARK    4  A    between atoms: C_18  and  C_19
REMARK    5  A    between atoms: C_19  and  C_20
REMARK    6  A    between atoms: N_22  and  C_23
REMARK    7  A    between atoms: C_23  and  C_25
REMARK    8  A    between atoms: C_23  and  C_26
REMARK    9  A    between atoms: C_26  and  N_27
REMARK                            x       y       z     vdW  Elec       q    Type
REMARK                         _______ _______ _______ _____ _____    ______ ____
ROOT
ATOM      1  C   UNL     1       0.060  -4.255  -0.021  0.00  0.00    +0.004 A 
ATOM      2  C   UNL     1      -0.825  -4.953  -0.774  0.00  0.00    +0.056 A 
ATOM      3  S   UNL     1      -0.397  -6.651  -0.444  0.00  0.00    -0.076 S 
ATOM      4  C   UNL     1       0.945  -6.388   0.686  0.00  0.00    +0.116 A 
ATOM      5  C   UNL     1       1.035  -4.989   0.776  0.00  0.00    +0.080 A 
ATOM      6  C   UNL     1       2.062  -4.488   1.637  0.00  0.00    +0.263 A 
ATOM      7  O   UNL     1       2.215  -3.288   1.785  0.00  0.00    -0.267 OA
ATOM      8  N   UNL     1       2.856  -5.362   2.283  0.00  0.00    -0.298 N 
ATOM      9  C   UNL     1       2.700  -6.702   2.131  0.00  0.00    +0.203 A 
ATOM     10  N   UNL     1       1.765  -7.190   1.360  0.00  0.00    -0.230 NA
ENDROOT
BRANCH   1  15
ATOM     11  C   UNL     1      -0.018   1.503   0.010  0.00  0.00    +0.044 C 
ATOM     12  C   UNL     1       0.002  -0.004   0.002  0.00  0.00    -0.050 A 
ATOM     13  C   UNL     1       0.006  -0.686  -1.201  0.00  0.00    +0.004 A 
ATOM     14  C   UNL     1       0.024  -2.066  -1.215  0.00  0.00    +0.009 A 
ATOM     15  C   UNL     1       0.040  -2.772  -0.013  0.00  0.00    -0.017 A 
ATOM     16  C   UNL     1       0.037  -2.079   1.196  0.00  0.00    +0.009 A 
ATOM     17  C   UNL     1       0.023  -0.699   1.198  0.00  0.00    +0.004 A 
ENDBRANCH   1  15
BRANCH   8  18
ATOM     18  C   UNL     1       3.910  -4.858   3.167  0.00  0.00    +0.135 C 
BRANCH  18  19
ATOM     19  C   UNL     1       3.356  -4.700   4.584  0.00  0.00    +0.117 C 
BRANCH  19  20
ATOM     20  C   UNL     1       4.440  -4.182   5.493  0.00  0.00    +0.215 C 
ATOM     21  O   UNL     1       5.547  -3.960   5.051  0.00  0.00    -0.276 OA
ATOM     22  N   UNL     1       4.179  -3.965   6.797  0.00  0.00    -0.311 N 
ATOM     23  H   UNL     1       3.293  -4.142   7.151  0.00  0.00    +0.149 HD
BRANCH  22  24
ATOM     24  C   UNL     1       5.233  -3.460   7.681  0.00  0.00    +0.090 C 
ATOM     25  C   UNL     1       5.289  -1.934   7.589  0.00  0.00    +0.029 C 
BRANCH  24  26
ATOM     26  C   UNL     1       4.931  -3.873   9.123  0.00  0.00    +0.144 C 
BRANCH  26  27
ATOM     27  N   UNL     1       4.995  -5.333   9.236  0.00  0.00    -0.337 N 
ATOM     28  C   UNL     1       3.960  -6.208   9.049  0.00  0.00    +0.104 A 
ATOM     29  C   UNL     1       4.454  -7.445   9.249  0.00  0.00    +0.101 A 
ATOM     30  N   UNL     1       5.756  -7.327   9.550  0.00  0.00    -0.352 N 
ATOM     31  C   UNL     1       6.088  -6.065   9.539  0.00  0.00    +0.173 A 
ATOM     32  H   UNL     1       6.357  -8.065   9.741  0.00  0.00    +0.166 HD
ENDBRANCH  26  27
ENDBRANCH  24  26
ENDBRANCH  22  24
ENDBRANCH  19  20
ENDBRANCH  18  19
ENDBRANCH   8  18
TORSDOF 7
