REMARK  Name = ZINC33937043
REMARK  12 active torsions:
REMARK  status: ('A' for Active; 'I' for Inactive)
REMARK    1  A    between atoms: C_1  and  C_2
REMARK    2  A    between atoms: C_2  and  C_3
REMARK    3  A    between atoms: C_3  and  C_5
REMARK    4  A    between atoms: C_3  and  N_17
REMARK    5  A    between atoms: N_9  and  C_10
REMARK    6  A    between atoms: C_10  and  C_11
REMARK    7  A    between atoms: N_17  and  C_18
REMARK    8  A    between atoms: N_17  and  C_25
REMARK    9  A    between atoms: C_18  and  C_19
REMARK   10  A    between atoms: C_25  and  C_26
REMARK   11  A    between atoms: C_29  and  C_39
REMARK   12  A    between atoms: C_31  and  C_38
REMARK                            x       y       z     vdW  Elec       q    Type
REMARK                         _______ _______ _______ _____ _____    ______ ____
ROOT
ATOM      1  N   UNL     1       3.573   0.269  -1.058  0.00  0.00    +0.392 N 
ATOM      2  H   UNL     1       4.177   0.622  -0.331  0.00  0.00    -0.080 HD
ENDROOT
BRANCH   1   3
ATOM      3  C   UNL     1       3.525  -1.198  -0.986  0.00  0.00    +0.003 C 
BRANCH   3   4
ATOM      4  C   UNL     1       4.929  -1.747  -0.989  0.00  0.00    +0.138 A 
ATOM      5  N   UNL     1       5.942  -1.308  -0.282  0.00  0.00    -0.115 NA
ATOM      6  N   UNL     1       6.967  -2.037  -0.561  0.00  0.00    -0.023 NA
ATOM      7  N   UNL     1       6.634  -2.929  -1.428  0.00  0.00    -0.044 NA
ATOM      8  N   UNL     1       5.384  -2.786  -1.712  0.00  0.00    -0.228 N 
BRANCH   8   9
ATOM      9  C   UNL     1       4.606  -3.600  -2.650  0.00  0.00    +0.178 C 
BRANCH   9  10
ATOM     10  C   UNL     1       4.686  -2.984  -4.048  0.00  0.00    +0.140 C 
ATOM     11  C   UNL     1       3.945  -3.880  -5.073  0.00  0.00    +0.035 C 
ATOM     12  C   UNL     1       3.588  -2.839  -6.169  0.00  0.00    +0.031 C 
ATOM     13  C   UNL     1       3.331  -1.563  -5.339  0.00  0.00    +0.160 C 
ATOM     14  O   UNL     1       3.995  -1.725  -4.078  0.00  0.00    -0.375 OA
ENDBRANCH   9  10
ENDBRANCH   8   9
ENDBRANCH   3   4
BRANCH   3  16
ATOM     15  C   UNL     1       1.458  -2.241  -0.048  0.00  0.00    +0.002 C 
ATOM     16  C   UNL     1       2.814  -1.623   0.300  0.00  0.00    -0.011 C 
ENDBRANCH   3  16
ENDBRANCH   1   3
BRANCH   1  17
ATOM     17  C   UNL     1       4.093   0.678  -2.369  0.00  0.00    -0.042 C 
BRANCH  17  18
ATOM     18  C   UNL     1       4.507   2.126  -2.316  0.00  0.00    -0.064 A 
ATOM     19  C   UNL     1       3.636   3.110  -2.745  0.00  0.00    +0.002 A 
ATOM     20  C   UNL     1       4.016   4.439  -2.695  0.00  0.00    +0.000 A 
ATOM     21  C   UNL     1       5.266   4.783  -2.217  0.00  0.00    +0.000 A 
ATOM     22  C   UNL     1       6.137   3.799  -1.787  0.00  0.00    +0.000 A 
ATOM     23  C   UNL     1       5.755   2.471  -1.832  0.00  0.00    +0.002 A 
ENDBRANCH  17  18
ENDBRANCH   1  17
BRANCH   1  24
ATOM     24  C   UNL     1       2.220   0.812  -0.876  0.00  0.00    -0.036 C 
BRANCH  24  25
ATOM     25  C   UNL     1       1.999   1.133   0.579  0.00  0.00    +0.001 A 
ATOM     26  C   UNL     1       3.030   1.583   1.336  0.00  0.00    +0.017 A 
ATOM     27  C   UNL     1       2.782   1.886   2.747  0.00  0.00    +0.002 A 
ATOM     28  C   UNL     1       3.806   2.353   3.577  0.00  0.00    -0.041 A 
ATOM     29  C   UNL     1       3.542   2.628   4.889  0.00  0.00    +0.007 A 
ATOM     30  C   UNL     1       2.266   2.447   5.406  0.00  0.00    -0.048 A 
ATOM     31  C   UNL     1       1.242   1.987   4.606  0.00  0.00    +0.029 A 
ATOM     32  C   UNL     1       1.487   1.702   3.267  0.00  0.00    +0.050 A 
ATOM     33  N   UNL     1       0.481   1.242   2.444  0.00  0.00    -0.322 N 
ATOM     34  H   UNL     1      -0.411   1.115   2.804  0.00  0.00    +0.169 HD
ATOM     35  C   UNL     1       0.717   0.971   1.148  0.00  0.00    +0.251 A 
ATOM     36  O   UNL     1      -0.197   0.570   0.449  0.00  0.00    -0.268 OA
ATOM     37  C   UNL     1       1.998   2.756   6.856  0.00  0.00    +0.044 C 
ATOM     38  C   UNL     1       5.195   2.553   3.027  0.00  0.00    +0.044 C 
ENDBRANCH  24  25
ENDBRANCH   1  24
TORSDOF 9
