REMARK  Name = ZINC29202957
REMARK  12 active torsions:
REMARK  status: ('A' for Active; 'I' for Inactive)
REMARK    1  A    between atoms: C_1  and  C_2
REMARK    2  A    between atoms: C_2  and  C_3
REMARK    3  A    between atoms: C_8  and  N_9
REMARK    4  A    between atoms: C_10  and  C_12
REMARK    5  A    between atoms: C_12  and  N_13
REMARK    6  A    between atoms: C_14  and  C_16
REMARK    7  A    between atoms: C_16  and  N_17
REMARK    8  A    between atoms: N_17  and  C_18
REMARK    9  A    between atoms: C_18  and  C_20
REMARK   10  A    between atoms: C_18  and  C_25
REMARK   11  A    between atoms: C_25  and  C_26
REMARK   12  A    between atoms: C_25  and  C_27
REMARK                            x       y       z     vdW  Elec       q    Type
REMARK                         _______ _______ _______ _____ _____    ______ ____
ROOT
ATOM      1  N   UNL     1       3.901   6.940   2.576  0.00  0.00    -0.308 N 
ATOM      2  C   UNL     1       3.787   5.718   2.021  0.00  0.00    +0.196 C 
ATOM      3  O   UNL     1       4.666   4.896   2.177  0.00  0.00    -0.278 OA
ATOM      4  H   UNL     1       3.104   7.685   2.434  0.00  0.00    +0.149 HD
ENDROOT
BRANCH   1   5
ATOM      5  C   UNL     1       5.087   7.277   3.368  0.00  0.00    +0.200 C 
BRANCH   5   7
ATOM      6  N   UNL     1       5.949   9.223   4.628  0.00  0.00    -0.284 N 
ATOM      7  C   UNL     1       4.968   8.693   3.872  0.00  0.00    +0.234 C 
ATOM      8  O   UNL     1       3.990   9.355   3.596  0.00  0.00    -0.274 OA
ATOM      9  H   UNL     1       6.864   8.645   4.827  0.00  0.00    +0.155 HD
BRANCH   6  15
ATOM     10  C   UNL     1       6.493  10.866   6.313  0.00  0.00    -0.026 A 
ATOM     11  C   UNL     1       6.348  12.136   6.837  0.00  0.00    +0.005 A 
ATOM     12  C   UNL     1       5.519  13.051   6.215  0.00  0.00    +0.000 A 
ATOM     13  C   UNL     1       4.833  12.699   5.067  0.00  0.00    +0.002 A 
ATOM     14  C   UNL     1       4.977  11.432   4.536  0.00  0.00    +0.023 A 
ATOM     15  C   UNL     1       5.805  10.509   5.161  0.00  0.00    +0.037 A 
BRANCH  10  17
ATOM     16  C   UNL     1       8.778   9.903   6.333  0.00  0.00    +0.009 C 
ATOM     17  C   UNL     1       7.397   9.869   6.991  0.00  0.00    +0.033 C 
ENDBRANCH  10  17
ENDBRANCH   6  15
ENDBRANCH   5   7
ENDBRANCH   1   5
BRANCH   2  18
ATOM     18  C   UNL     1       2.568   5.371   1.206  0.00  0.00    +0.016 C 
BRANCH  18  19
ATOM     19  N   UNL     1       2.683   3.991   0.715  0.00  0.00    +0.390 N 
ATOM     20  H   UNL     1       3.530   3.920   0.016  0.00  0.00    -0.084 HD
ATOM     21  H   UNL     1       2.851   3.312   1.564  0.00  0.00    -0.084 HD
BRANCH  19  22
ATOM     22  C   UNL     1       1.459   3.577   0.016  0.00  0.00    -0.031 C 
BRANCH  22  23
ATOM     23  C   UNL     1       1.274   2.089   0.166  0.00  0.00    -0.024 A 
ATOM     24  C   UNL     1       0.134   1.388   0.381  0.00  0.00    +0.009 A 
ATOM     25  C   UNL     1       0.204   0.011   0.486  0.00  0.00    +0.008 A 
ATOM     26  C   UNL     1       1.410  -0.597   0.371  0.00  0.00    +0.045 A 
ATOM     27  S   UNL     1       2.500   0.792   0.105  0.00  0.00    -0.103 S 
ENDBRANCH  22  23
BRANCH  22  28
ATOM     28  C   UNL     1       1.575   3.930  -1.468  0.00  0.00    -0.027 C 
ATOM     29  C   UNL     1       2.768   3.189  -2.077  0.00  0.00    +0.006 C 
ATOM     30  C   UNL     1       0.293   3.514  -2.193  0.00  0.00    +0.006 C 
ENDBRANCH  22  28
ENDBRANCH  19  22
ENDBRANCH  18  19
ENDBRANCH   2  18
TORSDOF 9
