REMARK  Name = ZINC14549980
REMARK  5 active torsions:
REMARK  status: ('A' for Active; 'I' for Inactive)
REMARK    1  A    between atoms: C_1  and  C_2
REMARK    2  A    between atoms: C_2  and  C_3
REMARK    3  A    between atoms: C_2  and  C_4
REMARK    4  A    between atoms: N_6  and  C_7
REMARK    5  A    between atoms: C_20  and  C_23
REMARK                            x       y       z     vdW  Elec       q    Type
REMARK                         _______ _______ _______ _____ _____    ______ ____
ROOT
ATOM      1  C   UNL     1      -1.230   3.135   0.022  0.00  0.00    +0.034 A 
ATOM      2  C   UNL     1      -1.216   1.760  -0.165  0.00  0.00    +0.025 A 
ATOM      3  C   UNL     1      -0.013   1.084  -0.179  0.00  0.00    +0.025 A 
ATOM      4  C   UNL     1       1.179   1.781  -0.013  0.00  0.00    +0.031 A 
ATOM      5  C   UNL     1       1.173   3.151   0.172  0.00  0.00    -0.018 A 
ATOM      6  C   UNL     1      -0.040   3.826   0.188  0.00  0.00    +0.029 A 
ATOM      7  C   UNL     1       2.437   3.964   0.352  0.00  0.00    +0.049 C 
ATOM      8  C   UNL     1       2.331   4.643   1.719  0.00  0.00    -0.023 C 
ATOM      9  C   UNL     1       2.961   3.946   2.632  0.00  0.00    -0.030 C 
ATOM     10  C   UNL     1       3.574   2.700   2.019  0.00  0.00    +0.033 C 
ATOM     11  C   UNL     1       3.678   3.068   0.520  0.00  0.00    +0.029 C 
ATOM     12  C   UNL     1       3.611   1.828  -0.352  0.00  0.00    +0.105 C 
ATOM     13  N   UNL     1       2.390   1.075  -0.042  0.00  0.00    -0.336 N 
ATOM     14  H   UNL     1       2.420   0.123   0.138  0.00  0.00    +0.147 HD
ENDROOT
BRANCH  12  15
ATOM     15  C   UNL     1       3.595   2.235  -1.803  0.00  0.00    -0.027 A 
ATOM     16  C   UNL     1       2.417   2.660  -2.388  0.00  0.00    +0.008 A 
ATOM     17  C   UNL     1       2.402   3.038  -3.717  0.00  0.00    +0.038 A 
ATOM     18  C   UNL     1       3.566   2.981  -4.466  0.00  0.00    +0.123 A 
ATOM     19  C   UNL     1       4.744   2.549  -3.880  0.00  0.00    +0.038 A 
ATOM     20  C   UNL     1       4.757   2.176  -2.549  0.00  0.00    +0.008 A 
ATOM     21  F   UNL     1       3.552   3.345  -5.767  0.00  0.00    -0.205 F 
ENDBRANCH  12  15
BRANCH   1  24
ATOM     22  C   UNL     1      -3.552   3.236   0.538  0.00  0.00    +0.220 C 
ATOM     23  O   UNL     1      -3.472   2.144   1.060  0.00  0.00    -0.275 OA
ATOM     24  N   UNL     1      -2.448   3.827   0.039  0.00  0.00    -0.285 N 
ATOM     25  H   UNL     1      -2.498   4.731  -0.309  0.00  0.00    +0.155 HD
BRANCH  22  27
ATOM     26  C   UNL     1      -5.964   3.053   1.085  0.00  0.00    +0.017 C 
ATOM     27  C   UNL     1      -4.886   3.932   0.449  0.00  0.00    +0.069 C 
ATOM     28  C   UNL     1      -4.814   5.268   1.190  0.00  0.00    +0.017 C 
ENDBRANCH  22  27
ENDBRANCH   1  24
TORSDOF 3
