REMARK  Name = ZINC07323792
REMARK  11 active torsions:
REMARK  status: ('A' for Active; 'I' for Inactive)
REMARK    1  A    between atoms: C_1  and  C_2
REMARK    2  A    between atoms: C_2  and  C_3
REMARK    3  A    between atoms: C_3  and  C_5
REMARK    4  A    between atoms: C_3  and  N_6
REMARK    5  A    between atoms: C_7  and  C_9
REMARK    6  A    between atoms: C_14  and  N_15
REMARK    7  A    between atoms: N_15  and  S_16
REMARK    8  A    between atoms: S_16  and  C_19
REMARK    9  A    between atoms: C_21  and  N_27
REMARK   10  A    between atoms: C_23  and  C_26
REMARK   11  A    between atoms: C_24  and  C_25
REMARK                            x       y       z     vdW  Elec       q    Type
REMARK                         _______ _______ _______ _____ _____    ______ ____
ROOT
ATOM      1  N   UNL     1      -3.368  -0.969   3.645  0.00  0.00    -0.216 N 
ATOM      2  H   UNL     1      -2.808  -0.183   3.750  0.00  0.00    +0.174 HD
ENDROOT
BRANCH   1   8
ATOM      3  C   UNL     1      -2.844  -1.261   1.300  0.00  0.00    +0.059 A 
ATOM      4  C   UNL     1      -3.226  -1.697   0.028  0.00  0.00    +0.015 A 
ATOM      5  C   UNL     1      -4.475  -2.246  -0.163  0.00  0.00    +0.001 A 
ATOM      6  C   UNL     1      -5.357  -2.369   0.899  0.00  0.00    +0.002 A 
ATOM      7  C   UNL     1      -4.994  -1.944   2.160  0.00  0.00    +0.025 A 
ATOM      8  C   UNL     1      -3.737  -1.392   2.375  0.00  0.00    +0.060 A 
BRANCH   3  10
ATOM      9  N   UNL     1      -0.653  -0.553   0.478  0.00  0.00    -0.309 N 
ATOM     10  C   UNL     1      -1.509  -0.672   1.512  0.00  0.00    +0.246 C 
ATOM     11  O   UNL     1      -1.181  -0.294   2.620  0.00  0.00    -0.270 OA
ATOM     12  H   UNL     1      -0.915  -0.855  -0.406  0.00  0.00    +0.149 HD
BRANCH   9  13
ATOM     13  C   UNL     1       0.673   0.032   0.689  0.00  0.00    +0.070 C 
ATOM     14  C   UNL     1       0.579   1.556   0.596  0.00  0.00    +0.028 C 
BRANCH  13  16
ATOM     15  C   UNL     1       1.826  -1.995  -0.210  0.00  0.00    +0.005 C 
ATOM     16  C   UNL     1       1.635  -0.486  -0.382  0.00  0.00    +0.018 C 
ENDBRANCH  13  16
ENDBRANCH   9  13
ENDBRANCH   3  10
ENDBRANCH   1   8
BRANCH   1  17
ATOM     17  S   UNL     1      -3.882  -1.804   4.979  0.00  0.00    +0.073 S 
ATOM     18  O   UNL     1      -3.230  -1.222   6.099  0.00  0.00    -0.150 OA
ATOM     19  O   UNL     1      -5.297  -1.893   4.881  0.00  0.00    -0.150 OA
BRANCH  17  20
ATOM     20  C   UNL     1      -3.264  -3.448   4.834  0.00  0.00    +0.114 A 
ATOM     21  C   UNL     1      -4.141  -4.505   4.673  0.00  0.00    +0.061 A 
ATOM     22  C   UNL     1      -3.656  -5.794   4.559  0.00  0.00    +0.128 A 
ATOM     23  C   UNL     1      -2.294  -6.027   4.607  0.00  0.00    +0.036 A 
ATOM     24  C   UNL     1      -1.417  -4.970   4.768  0.00  0.00    -0.044 A 
ATOM     25  C   UNL     1      -1.902  -3.680   4.876  0.00  0.00    -0.021 A 
ATOM     26  C   UNL     1      -0.946  -2.528   5.045  0.00  0.00    +0.046 C 
ATOM     27  C   UNL     1       0.067  -5.224   4.820  0.00  0.00    +0.044 C 
BRANCH  22  28
ATOM     28  N   UNL     1      -4.595  -6.925   4.387  0.00  0.00    +0.056 N 
ATOM     29  O   UNL     1      -5.795  -6.720   4.346  0.00  0.00    -0.126 OA
ATOM     30  O   UNL     1      -4.167  -8.061   4.287  0.00  0.00    -0.126 OA
ENDBRANCH  22  28
ENDBRANCH  17  20
ENDBRANCH   1  17
TORSDOF 7
