REMARK  Name = ZINC15443632
REMARK  11 active torsions:
REMARK  status: ('A' for Active; 'I' for Inactive)
REMARK    1  A    between atoms: C_1  and  C_2
REMARK    2  A    between atoms: C_2  and  C_3
REMARK    3  A    between atoms: C_3  and  N_65
REMARK    4  A    between atoms: C_4  and  C_5
REMARK    5  A    between atoms: C_4  and  N_65
REMARK    6  A    between atoms: N_7  and  C_8
REMARK    7  A    between atoms: C_13  and  C_14
REMARK    8  A    between atoms: C_15  and  C_16
REMARK    9  A    between atoms: C_15  and  N_65
REMARK   10  A    between atoms: N_18  and  N_19
REMARK   11  A    between atoms: C_25  and  C_28
REMARK                            x       y       z     vdW  Elec       q    Type
REMARK                         _______ _______ _______ _____ _____    ______ ____
ROOT
ATOM      1  C   UNL     1       0.018   1.516  -0.038  0.00  0.00    +0.021 C 
ENDROOT
BRANCH   1   2
ATOM      2  C   UNL     1       0.057   0.010  -0.079  0.00  0.00    +0.213 C 
ATOM      3  O   UNL     1       1.119  -0.567  -0.182  0.00  0.00    -0.276 OA
ATOM      4  N   UNL     1      -1.089  -0.696  -0.001  0.00  0.00    -0.225 N 
ATOM      5  H   UNL     1      -1.938  -0.235   0.081  0.00  0.00    +0.173 HD
BRANCH   4   6
ATOM      6  N   UNL     1      -1.053  -2.096  -0.039  0.00  0.00    -0.137 N 
ATOM      7  C   UNL     1      -1.232  -2.889   1.038  0.00  0.00    +0.263 C 
ATOM      8  O   UNL     1      -1.446  -2.539   2.178  0.00  0.00    -0.271 OA
ATOM      9  C   UNL     1      -1.109  -4.304   0.522  0.00  0.00    +0.114 C 
ATOM     10  C   UNL     1      -2.410  -5.066   0.748  0.00  0.00    +0.035 C 
ATOM     11  C   UNL     1      -2.276  -6.487   0.194  0.00  0.00    +0.006 C 
ATOM     12  C   UNL     1      -1.118  -7.200   0.897  0.00  0.00    -0.014 C 
ATOM     13  C   UNL     1       0.183  -6.437   0.640  0.00  0.00    +0.006 C 
ATOM     14  C   UNL     1       0.058  -5.016   1.196  0.00  0.00    +0.035 C 
ATOM     15  C   UNL     1      -0.991  -8.624   0.353  0.00  0.00    +0.007 C 
ATOM     16  N   UNL     1      -0.853  -4.139  -0.915  0.00  0.00    -0.284 N 
ATOM     17  C   UNL     1      -0.842  -2.813  -1.150  0.00  0.00    +0.326 C 
ATOM     18  O   UNL     1      -0.659  -2.323  -2.247  0.00  0.00    -0.251 OA
ATOM     19  H   UNL     1      -0.721  -4.846  -1.566  0.00  0.00    +0.151 HD
ENDBRANCH   4   6
ENDBRANCH   1   2
BRANCH   1  20
ATOM     20  N   UNL     1       1.405   2.025  -0.002  0.00  0.00    +0.391 N 
ATOM     21  H   UNL     1       1.955   1.449   0.647  0.00  0.00    -0.080 HD
BRANCH  20  22
ATOM     22  C   UNL     1       1.418   3.425   0.470  0.00  0.00    -0.078 C 
BRANCH  22  24
ATOM     23  C   UNL     1       1.128   4.877   2.483  0.00  0.00    +0.002 C 
ATOM     24  C   UNL     1       1.223   3.433   1.988  0.00  0.00    -0.022 C 
ENDBRANCH  22  24
ENDBRANCH  20  22
BRANCH  20  25
ATOM     25  C   UNL     1       2.010   1.940  -1.348  0.00  0.00    +0.020 C 
BRANCH  25  26
ATOM     26  C   UNL     1       3.480   2.253  -1.242  0.00  0.00    +0.201 C 
ATOM     27  O   UNL     1       3.964   2.533  -0.165  0.00  0.00    -0.278 OA
ATOM     28  N   UNL     1       4.257   2.223  -2.342  0.00  0.00    -0.287 N 
ATOM     29  H   UNL     1       3.889   1.921  -3.188  0.00  0.00    +0.155 HD
BRANCH  28  30
ATOM     30  C   UNL     1       5.594   2.627  -2.266  0.00  0.00    +0.036 A 
ATOM     31  C   UNL     1       5.998   3.512  -1.275  0.00  0.00    +0.023 A 
ATOM     32  C   UNL     1       7.320   3.905  -1.199  0.00  0.00    +0.002 A 
ATOM     33  C   UNL     1       8.239   3.427  -2.116  0.00  0.00    +0.000 A 
ATOM     34  C   UNL     1       7.838   2.551  -3.108  0.00  0.00    +0.005 A 
ATOM     35  C   UNL     1       6.519   2.150  -3.186  0.00  0.00    -0.029 A 
ATOM     36  C   UNL     1       6.083   1.195  -4.267  0.00  0.00    +0.045 C 
ENDBRANCH  28  30
ENDBRANCH  25  26
ENDBRANCH  20  25
ENDBRANCH   1  20
TORSDOF 8
