REMARK  Name = ZINC08871635
REMARK  11 active torsions:
REMARK  status: ('A' for Active; 'I' for Inactive)
REMARK    1  A    between atoms: C_1  and  C_2
REMARK    2  A    between atoms: C_2  and  C_3
REMARK    3  A    between atoms: C_6  and  C_9
REMARK    4  A    between atoms: N_13  and  C_17
REMARK    5  A    between atoms: C_17  and  C_18
REMARK    6  A    between atoms: C_18  and  C_19
REMARK    7  A    between atoms: C_19  and  C_20
REMARK    8  A    between atoms: N_22  and  N_23
REMARK    9  A    between atoms: N_23  and  S_24
REMARK   10  A    between atoms: S_24  and  C_27
REMARK   11  A    between atoms: C_30  and  C_33
REMARK                            x       y       z     vdW  Elec       q    Type
REMARK                         _______ _______ _______ _____ _____    ______ ____
ROOT
ATOM      1  C   UNL     1       5.355  -3.572  -5.085  0.00  0.00    +0.029 C 
ENDROOT
BRANCH   1   2
ATOM      2  C   UNL     1       6.263  -3.290  -6.284  0.00  0.00    +0.115 C 
BRANCH   2   7
ATOM      3  C   UNL     1       6.317  -7.363  -9.116  0.00  0.00    +0.028 C 
ATOM      4  C   UNL     1       6.760  -6.482  -8.185  0.00  0.00    +0.077 C 
ATOM      5  C   UNL     1       6.152  -5.217  -7.719  0.00  0.00    +0.258 C 
ATOM      6  O   UNL     1       5.098  -4.810  -8.170  0.00  0.00    -0.269 OA
ATOM      7  N   UNL     1       6.813  -4.551  -6.787  0.00  0.00    -0.255 N 
ATOM      8  C   UNL     1       7.983  -5.004  -6.294  0.00  0.00    +0.121 C 
ATOM      9  S   UNL     1       8.981  -4.288  -5.101  0.00  0.00    -0.027 S 
ATOM     10  S   UNL     1       8.240  -6.531  -7.183  0.00  0.00    -0.061 S 
BRANCH   3  14
ATOM     11  C   UNL     1       8.794 -10.581 -10.338  0.00  0.00    -0.048 A 
ATOM     12  C   UNL     1       7.475 -10.530 -10.756  0.00  0.00    +0.004 A 
ATOM     13  C   UNL     1       6.663  -9.487 -10.364  0.00  0.00    +0.008 A 
ATOM     14  C   UNL     1       7.176  -8.479  -9.540  0.00  0.00    -0.024 A 
ATOM     15  C   UNL     1       8.511  -8.535  -9.125  0.00  0.00    +0.008 A 
ATOM     16  C   UNL     1       9.308  -9.588  -9.522  0.00  0.00    +0.004 A 
BRANCH  11  18
ATOM     17  C   UNL     1      10.371 -11.362 -12.085  0.00  0.00    +0.009 C 
ATOM     18  C   UNL     1       9.674 -11.725 -10.772  0.00  0.00    +0.032 C 
ENDBRANCH  11  18
ENDBRANCH   3  14
ENDBRANCH   2   7
ENDBRANCH   1   2
BRANCH   1  19
ATOM     19  C   UNL     1       4.782  -2.255  -4.559  0.00  0.00    +0.098 C 
BRANCH  19  20
ATOM     20  C   UNL     1       3.887  -2.532  -3.379  0.00  0.00    +0.228 C 
ATOM     21  O   UNL     1       3.724  -3.671  -2.995  0.00  0.00    -0.274 OA
ATOM     22  N   UNL     1       3.268  -1.514  -2.748  0.00  0.00    -0.232 N 
ATOM     23  H   UNL     1       3.398  -0.603  -3.055  0.00  0.00    +0.171 HD
BRANCH  22  24
ATOM     24  N   UNL     1       2.436  -1.772  -1.651  0.00  0.00    -0.108 NA
ATOM     25  H   UNL     1       1.700  -2.399  -1.736  0.00  0.00    +0.172 HD
BRANCH  24  26
ATOM     26  S   UNL     1       2.709  -1.008  -0.207  0.00  0.00    +0.074 S 
ATOM     27  O   UNL     1       4.066  -1.258   0.134  0.00  0.00    -0.152 OA
ATOM     28  O   UNL     1       1.632  -1.361   0.649  0.00  0.00    -0.152 OA
BRANCH  26  29
ATOM     29  C   UNL     1       2.574   0.724  -0.501  0.00  0.00    +0.107 A 
ATOM     30  C   UNL     1       1.350   1.353  -0.368  0.00  0.00    +0.029 A 
ATOM     31  C   UNL     1       1.244   2.712  -0.598  0.00  0.00    +0.005 A 
ATOM     32  C   UNL     1       2.361   3.442  -0.961  0.00  0.00    -0.050 A 
ATOM     33  C   UNL     1       3.584   2.812  -1.093  0.00  0.00    +0.005 A 
ATOM     34  C   UNL     1       3.691   1.453  -0.863  0.00  0.00    +0.029 A 
ATOM     35  C   UNL     1       2.245   4.923  -1.212  0.00  0.00    +0.044 C 
ENDBRANCH  26  29
ENDBRANCH  24  26
ENDBRANCH  22  24
ENDBRANCH  19  20
ENDBRANCH   1  19
TORSDOF 9
