REMARK  Name = ZINC12293226
REMARK  8 active torsions:
REMARK  status: ('A' for Active; 'I' for Inactive)
REMARK    1  A    between atoms: C_1  and  C_2
REMARK    2  A    between atoms: C_7  and  C_8
REMARK    3  A    between atoms: C_15  and  C_16
REMARK    4  A    between atoms: C_15  and  N_63
REMARK    5  A    between atoms: C_16  and  C_18
REMARK    6  A    between atoms: C_16  and  O_28
REMARK    7  A    between atoms: N_20  and  C_27
REMARK    8  A    between atoms: C_30  and  O_32
REMARK                            x       y       z     vdW  Elec       q    Type
REMARK                         _______ _______ _______ _____ _____    ______ ____
ROOT
ATOM      1  C   UNL     1       1.018  13.138   6.811  0.00  0.00    +0.044 C 
ATOM      2  C   UNL     1       1.304  12.300   5.592  0.00  0.00    -0.047 A 
ATOM      3  C   UNL     1       2.525  12.402   4.954  0.00  0.00    +0.013 A 
ATOM      4  C   UNL     1       2.794  11.634   3.833  0.00  0.00    +0.023 A 
ATOM      5  C   UNL     1       1.835  10.762   3.350  0.00  0.00    +0.127 A 
ATOM      6  C   UNL     1       0.607  10.661   3.995  0.00  0.00    +0.049 A 
ATOM      7  C   UNL     1       0.344  11.428   5.113  0.00  0.00    -0.044 A 
ATOM      8  C   UNL     1      -0.988  11.315   5.809  0.00  0.00    +0.044 C 
ATOM      9  O   UNL     1       2.054   9.994   2.251  0.00  0.00    -0.485 OA
ATOM     10  C   UNL     1       3.400   9.827   1.808  0.00  0.00    +0.110 C 
ATOM     11  C   UNL     1       4.160   8.929   2.786  0.00  0.00    +0.029 C 
ATOM     12  C   UNL     1       3.523   7.537   2.795  0.00  0.00    -0.075 C 
ATOM     13  C   UNL     1       2.797   7.791   0.497  0.00  0.00    -0.075 C 
ATOM     14  C   UNL     1       3.413   9.190   0.418  0.00  0.00    +0.029 C 
ATOM     15  C   UNL     1       4.072  11.203   1.748  0.00  0.00    +0.084 C 
ATOM     16  C   UNL     1       4.140  11.769   3.168  0.00  0.00    +0.152 C 
ATOM     17  N   UNL     1       3.593   6.969   1.432  0.00  0.00    +0.382 N 
ATOM     18  H   UNL     1       4.572   6.966   1.123  0.00  0.00    -0.082 HD
ENDROOT
BRANCH  16  19
ATOM     19  O   UNL     1       4.507  13.149   3.112  0.00  0.00    -0.387 OA
ATOM     20  H   UNL     1       4.573  13.574   3.978  0.00  0.00    +0.210 HD
ENDBRANCH  16  19
BRANCH  17  21
ATOM     21  C   UNL     1       3.088   5.580   1.439  0.00  0.00    -0.042 C 
BRANCH  21  22
ATOM     22  C   UNL     1       3.055   5.055   0.002  0.00  0.00    +0.130 C 
BRANCH  22  23
ATOM     23  C   UNL     1       2.596   3.620   0.002  0.00  0.00    +0.004 A 
ATOM     24  C   UNL     1       3.380   2.530   0.004  0.00  0.00    +0.092 A 
ATOM     25  N   UNL     1       2.608   1.400   0.004  0.00  0.00    -0.349 N 
ATOM     26  C   UNL     1       1.275   1.744   0.001  0.00  0.00    +0.049 A 
ATOM     27  C   UNL     1       1.208   3.149  -0.001  0.00  0.00    +0.005 A 
ATOM     28  C   UNL     1      -0.033   3.788  -0.004  0.00  0.00    +0.010 A 
ATOM     29  C   UNL     1      -1.179   3.043  -0.006  0.00  0.00    +0.001 A 
ATOM     30  C   UNL     1      -1.119   1.656  -0.010  0.00  0.00    +0.002 A 
ATOM     31  C   UNL     1       0.096   1.006  -0.001  0.00  0.00    +0.026 A 
ATOM     32  C   UNL     1       3.124   0.029   0.007  0.00  0.00    +0.149 C 
ENDBRANCH  22  23
BRANCH  22  33
ATOM     33  O   UNL     1       4.364   5.136  -0.565  0.00  0.00    -0.389 OA
ATOM     34  H   UNL     1       5.032   4.623  -0.089  0.00  0.00    +0.210 HD
ENDBRANCH  22  33
ENDBRANCH  21  22
ENDBRANCH  17  21
TORSDOF 5
