REMARK  Name = ZINC39328012
REMARK  14 active torsions:
REMARK  status: ('A' for Active; 'I' for Inactive)
REMARK    1  A    between atoms: C_1  and  C_2
REMARK    2  A    between atoms: C_2  and  C_3
REMARK    3  A    between atoms: C_2  and  C_4
REMARK    4  A    between atoms: C_7  and  C_10
REMARK    5  A    between atoms: C_12  and  C_37
REMARK    6  A    between atoms: C_13  and  N_36
REMARK    7  A    between atoms: C_15  and  C_21
REMARK    8  A    between atoms: C_16  and  C_17
REMARK    9  A    between atoms: C_17  and  O_19
REMARK   10  A    between atoms: O_19  and  C_20
REMARK   11  A    between atoms: C_21  and  S_22
REMARK   12  A    between atoms: S_22  and  C_23
REMARK   13  A    between atoms: C_24  and  C_34
REMARK   14  A    between atoms: N_31  and  C_33
REMARK                            x       y       z     vdW  Elec       q    Type
REMARK                         _______ _______ _______ _____ _____    ______ ____
ROOT
ATOM      1  C   UNL     1       2.721  -1.816  -4.656  0.00  0.00    +0.105 C 
ATOM      2  C   UNL     1       2.651  -3.318  -4.598  0.00  0.00    +0.098 C 
ATOM      3  C   UNL     1       3.767  -4.056  -4.386  0.00  0.00    +0.198 C 
ATOM      4  O   UNL     1       4.972  -3.479  -4.220  0.00  0.00    -0.444 OA
ATOM      5  C   UNL     1       5.167  -2.213  -4.623  0.00  0.00    +0.128 C 
ATOM      6  C   UNL     1       4.147  -1.377  -4.846  0.00  0.00    +0.088 C 
ENDROOT
BRANCH   1  10
ATOM      7  C   UNL     1       1.207  -0.186  -1.010  0.00  0.00    -0.045 A 
ATOM      8  C   UNL     1       0.602   0.129  -2.212  0.00  0.00    +0.004 A 
ATOM      9  C   UNL     1       1.091  -0.398  -3.392  0.00  0.00    +0.005 A 
ATOM     10  C   UNL     1       2.187  -1.240  -3.370  0.00  0.00    -0.034 A 
ATOM     11  C   UNL     1       2.794  -1.555  -2.168  0.00  0.00    +0.005 A 
ATOM     12  C   UNL     1       2.306  -1.024  -0.988  0.00  0.00    +0.004 A 
BRANCH   7  14
ATOM     13  C   UNL     1       0.733   1.917   0.216  0.00  0.00    +0.012 C 
ATOM     14  C   UNL     1       0.673   0.389   0.277  0.00  0.00    +0.013 C 
ATOM     15  C   UNL     1      -0.777  -0.057   0.472  0.00  0.00    +0.012 C 
ENDBRANCH   7  14
ENDBRANCH   1  10
BRANCH   3  16
ATOM     16  N   UNL     1       3.667  -5.425  -4.338  0.00  0.00    -0.328 N 
ATOM     17  H   UNL     1       2.805  -5.852  -4.455  0.00  0.00    +0.145 HD
ATOM     18  H   UNL     1       4.460  -5.964  -4.186  0.00  0.00    +0.145 HD
ENDBRANCH   3  16
BRANCH   6  19
ATOM     19  C   UNL     1       4.417  -0.053  -5.269  0.00  0.00    +0.339 C 
ATOM     20  O   UNL     1       4.300   0.247  -6.443  0.00  0.00    -0.245 OA
BRANCH  19  21
ATOM     21  O   UNL     1       4.804   0.877  -4.371  0.00  0.00    -0.465 OA
ATOM     22  C   UNL     1       5.059   2.192  -4.868  0.00  0.00    +0.280 C 
ENDBRANCH  19  21
ENDBRANCH   6  19
BRANCH   2  23
ATOM     23  C   UNL     1       1.390  -3.974  -4.769  0.00  0.00    +0.101 C 
ATOM     24  N   UNL     1       0.390  -4.495  -4.904  0.00  0.00    -0.191 NA
ENDBRANCH   2  23
BRANCH   5  25
ATOM     25  C   UNL     1       6.576  -1.720  -4.829  0.00  0.00    +0.150 C 
BRANCH  25  26
ATOM     26  S   UNL     1       7.352  -1.416  -3.218  0.00  0.00    -0.097 S 
BRANCH  26  27
ATOM     27  C   UNL     1       8.971  -0.853  -3.624  0.00  0.00    +0.115 A 
ATOM     28  C   UNL     1       9.875  -0.521  -2.598  0.00  0.00    +0.084 A 
ATOM     29  C   UNL     1      11.151  -0.074  -2.953  0.00  0.00    +0.028 A 
ATOM     30  C   UNL     1      11.475   0.020  -4.299  0.00  0.00    -0.011 A 
ATOM     31  C   UNL     1      10.538  -0.328  -5.250  0.00  0.00    +0.048 A 
ATOM     32  N   UNL     1       9.334  -0.750  -4.890  0.00  0.00    -0.244 NA
ATOM     33  C   UNL     1      10.851  -0.253  -6.725  0.00  0.00    +0.071 C 
ATOM     34  C   UNL     1      12.083   0.623  -6.954  0.00  0.00    +0.090 C 
ATOM     35  N   UNL     1      13.159   0.159  -6.063  0.00  0.00    -0.301 NA
ATOM     36  C   UNL     1      12.850   0.507  -4.672  0.00  0.00    +0.121 C 
ATOM     37  C   UNL     1      14.456   0.716  -6.470  0.00  0.00    +0.105 C 
BRANCH  28  38
ATOM     38  C   UNL     1       9.496  -0.636  -1.222  0.00  0.00    +0.102 C 
ATOM     39  N   UNL     1       9.196  -0.728  -0.131  0.00  0.00    -0.191 NA
ENDBRANCH  28  38
ENDBRANCH  26  27
ENDBRANCH  25  26
ENDBRANCH   5  25
TORSDOF 10
