REMARK  Name = ZINC54928563
REMARK  7 active torsions:
REMARK  status: ('A' for Active; 'I' for Inactive)
REMARK    1  A    between atoms: C_1  and  C_2
REMARK    2  A    between atoms: C_2  and  C_3
REMARK    3  A    between atoms: C_2  and  C_4
REMARK    4  A    between atoms: C_4  and  C_5
REMARK    5  A    between atoms: C_5  and  C_7
REMARK    6  A    between atoms: C_5  and  N_20
REMARK    7  A    between atoms: C_7  and  C_8
REMARK                            x       y       z     vdW  Elec       q    Type
REMARK                         _______ _______ _______ _____ _____    ______ ____
ROOT
ATOM      1  C   UNL     1      -0.561  -0.809   4.875  0.00  0.00    -0.044 A 
ATOM      2  C   UNL     1      -0.499   0.316   5.678  0.00  0.00    +0.053 A 
ATOM      3  C   UNL     1      -1.400   0.467   6.719  0.00  0.00    +0.163 A 
ATOM      4  C   UNL     1      -2.359  -0.508   6.955  0.00  0.00    +0.176 A 
ATOM      5  C   UNL     1      -2.418  -1.633   6.149  0.00  0.00    +0.063 A 
ATOM      6  C   UNL     1      -1.519  -1.777   5.106  0.00  0.00    +0.022 A 
ATOM      7 BR   UNL     1      -3.723  -2.963   6.469  0.00  0.00    -0.046 Br
ATOM      8  O   UNL     1      -3.242  -0.350   7.983  0.00  0.00    -0.487 OA
ATOM      9  C   UNL     1      -2.689  -0.426   9.299  0.00  0.00    +0.232 C 
ATOM     10  C   UNL     1      -2.123   0.919   9.725  0.00  0.00    +0.082 C 
ATOM     11  C   UNL     1      -0.942   1.348   8.869  0.00  0.00    +0.232 C 
ATOM     12  O   UNL     1      -1.350   1.572   7.518  0.00  0.00    -0.488 OA
ENDROOT
BRANCH   1  13
ATOM     13  C   UNL     1       0.417  -0.976   3.740  0.00  0.00    +0.019 C 
BRANCH  13  14
ATOM     14  C   UNL     1      -0.161  -0.344   2.472  0.00  0.00    -0.071 C 
BRANCH  14  15
ATOM     15  N   UNL     1      -0.290   1.107   2.663  0.00  0.00    +0.380 N 
ATOM     16  H   UNL     1      -0.913   1.290   3.435  0.00  0.00    -0.090 HD
ATOM     17  H   UNL     1       0.616   1.503   2.861  0.00  0.00    -0.090 HD
ATOM     18  H   UNL     1      -0.664   1.525   1.824  0.00  0.00    -0.090 HD
ENDBRANCH  14  15
BRANCH  14  19
ATOM     19  C   UNL     1       0.774  -0.621   1.293  0.00  0.00    -0.013 C 
BRANCH  19  21
ATOM     20  C   UNL     1       1.123  -0.259  -1.155  0.00  0.00    +0.007 C 
ATOM     21  C   UNL     1       0.133  -0.106   0.002  0.00  0.00    -0.019 C 
ATOM     22  C   UNL     1      -1.131  -0.914  -0.298  0.00  0.00    +0.007 C 
ENDBRANCH  19  21
ENDBRANCH  14  19
ENDBRANCH  13  14
ENDBRANCH   1  13
TORSDOF 5
