REMARK  Name = ZINC35564702
REMARK  6 active torsions:
REMARK  status: ('A' for Active; 'I' for Inactive)
REMARK    1  A    between atoms: C_1  and  C_2
REMARK    2  A    between atoms: N_5  and  C_8
REMARK    3  A    between atoms: C_8  and  C_9
REMARK    4  A    between atoms: C_23  and  C_25
REMARK    5  A    between atoms: C_25  and  C_26
REMARK    6  A    between atoms: C_26  and  C_27
REMARK                            x       y       z     vdW  Elec       q    Type
REMARK                         _______ _______ _______ _____ _____    ______ ____
ROOT
ATOM      1  C   UNL     1      -0.146  -4.367   2.736  0.00  0.00    +0.034 A 
ATOM      2  C   UNL     1      -0.917  -4.996   3.670  0.00  0.00    +0.091 A 
ATOM      3  C   UNL     1      -0.324  -5.400   4.879  0.00  0.00    +0.253 A 
ATOM      4  O   UNL     1      -0.984  -5.965   5.737  0.00  0.00    -0.268 OA
ATOM      5  N   UNL     1       0.989  -5.152   5.073  0.00  0.00    -0.295 N 
ATOM      6  H   UNL     1       1.418  -5.423   5.900  0.00  0.00    +0.172 HD
ATOM      7  C   UNL     1       1.707  -4.522   4.105  0.00  0.00    +0.198 A 
ATOM      8  N   UNL     1       1.145  -4.150   2.972  0.00  0.00    -0.223 NA
ATOM      9  N   UNL     1       3.038  -4.274   4.309  0.00  0.00    -0.298 N 
ATOM     10  C   UNL     1       3.665  -4.574   5.604  0.00  0.00    +0.127 C 
ATOM     11  C   UNL     1       4.864  -5.499   5.365  0.00  0.00    +0.126 C 
ATOM     12  N   UNL     1       5.691  -4.929   4.293  0.00  0.00    -0.298 N 
ATOM     13  C   UNL     1       5.065  -4.629   2.998  0.00  0.00    +0.126 C 
ATOM     14  C   UNL     1       3.867  -3.708   3.235  0.00  0.00    +0.127 C 
ATOM     15  C   UNL     1       7.002  -4.684   4.494  0.00  0.00    +0.216 C 
ATOM     16  O   UNL     1       7.508  -4.936   5.567  0.00  0.00    -0.276 OA
ENDROOT
BRANCH   1  17
ATOM     17  C   UNL     1      -0.757  -3.924   1.431  0.00  0.00    -0.022 C 
BRANCH  17  22
ATOM     18  C   UNL     1      -0.039   1.571   0.087  0.00  0.00    +0.007 C 
ATOM     19  C   UNL     1      -0.015   0.042   0.060  0.00  0.00    -0.018 C 
ATOM     20  C   UNL     1      -1.450  -0.493   0.078  0.00  0.00    -0.016 C 
ATOM     21  C   UNL     1      -1.419  -2.022   0.131  0.00  0.00    -0.078 C 
ATOM     22  N   UNL     1      -0.717  -2.458   1.345  0.00  0.00    +0.383 N 
ATOM     23  C   UNL     1       0.680  -2.010   1.301  0.00  0.00    -0.078 C 
ATOM     24  C   UNL     1       0.729  -0.481   1.293  0.00  0.00    -0.016 C 
ATOM     25  H   UNL     1      -1.171  -2.063   2.155  0.00  0.00    -0.081 HD
ENDBRANCH  17  22
ENDBRANCH   1  17
BRANCH  15  26
ATOM     26  C   UNL     1       7.838  -4.099   3.385  0.00  0.00    +0.096 C 
BRANCH  26  27
ATOM     27  C   UNL     1       9.278  -3.923   3.871  0.00  0.00    +0.013 C 
BRANCH  27  28
ATOM     28  C   UNL     1      10.127  -3.328   2.745  0.00  0.00    -0.011 C 
ATOM     29  C   UNL     1      10.277  -4.352   1.601  0.00  0.00    +0.003 C 
ATOM     30  C   UNL     1      11.727  -4.146   1.097  0.00  0.00    +0.000 C 
ATOM     31  C   UNL     1      12.511  -3.881   2.406  0.00  0.00    +0.000 C 
ATOM     32  C   UNL     1      11.546  -3.029   3.258  0.00  0.00    +0.003 C 
ENDBRANCH  27  28
ENDBRANCH  26  27
ENDBRANCH  15  26
TORSDOF 5
