REMARK  Name = ZINC03076452
REMARK  10 active torsions:
REMARK  status: ('A' for Active; 'I' for Inactive)
REMARK    1  A    between atoms: C_1  and  C_2
REMARK    2  A    between atoms: C_2  and  C_3
REMARK    3  A    between atoms: C_2  and  C_4
REMARK    4  A    between atoms: C_2  and  N_18
REMARK    5  A    between atoms: C_4  and  N_53
REMARK    6  A    between atoms: C_5  and  C_6
REMARK    7  A    between atoms: C_5  and  C_12
REMARK    8  A    between atoms: C_5  and  N_53
REMARK    9  A    between atoms: N_18  and  S_19
REMARK   10  A    between atoms: S_19  and  C_22
REMARK                            x       y       z     vdW  Elec       q    Type
REMARK                         _______ _______ _______ _____ _____    ______ ____
ROOT
ATOM      1  C   UNL     1      -0.096   0.614   0.008  0.00  0.00    -0.058 C 
ENDROOT
BRANCH   1   3
ATOM      2  C   UNL     1       1.325   2.663   0.162  0.00  0.00    +0.027 C 
ATOM      3  C   UNL     1       1.318   1.170  -0.170  0.00  0.00    +0.019 C 
ATOM      4  C   UNL     1       2.276   0.434   0.769  0.00  0.00    +0.027 C 
BRANCH   3   5
ATOM      5  N   UNL     1       1.748   0.976  -1.557  0.00  0.00    -0.186 NA
ATOM      6  H   UNL     1       1.121   0.641  -2.217  0.00  0.00    +0.149 HD
BRANCH   5   7
ATOM      7  S   UNL     1       3.305   1.327  -1.998  0.00  0.00    +0.059 S 
ATOM      8  O   UNL     1       3.400   1.072  -3.393  0.00  0.00    -0.153 OA
ATOM      9  O   UNL     1       3.611   2.594  -1.433  0.00  0.00    -0.153 OA
BRANCH   7  10
ATOM     10  C   UNL     1       4.350   0.154  -1.200  0.00  0.00    +0.105 A 
ATOM     11  C   UNL     1       5.015   0.499  -0.038  0.00  0.00    +0.030 A 
ATOM     12  C   UNL     1       5.830  -0.423   0.592  0.00  0.00    +0.022 A 
ATOM     13  C   UNL     1       5.990  -1.687   0.053  0.00  0.00    +0.041 A 
ATOM     14  C   UNL     1       5.329  -2.029  -1.113  0.00  0.00    +0.022 A 
ATOM     15  C   UNL     1       4.509  -1.109  -1.739  0.00  0.00    +0.030 A 
ATOM     16 CL   UNL     1       7.019  -2.842   0.839  0.00  0.00    -0.084 Cl
ENDBRANCH   7  10
ENDBRANCH   5   7
ENDBRANCH   3   5
ENDBRANCH   1   3
BRANCH   1  17
ATOM     17  N   UNL     1      -0.095  -0.825  -0.314  0.00  0.00    +0.387 N 
ATOM     18  H   UNL     1       0.553  -1.312   0.316  0.00  0.00    -0.084 HD
ATOM     19  H   UNL     1       0.211  -0.955  -1.286  0.00  0.00    -0.084 HD
BRANCH  17  20
ATOM     20  C   UNL     1      -1.448  -1.388  -0.151  0.00  0.00    -0.010 C 
BRANCH  20  21
ATOM     21  C   UNL     1      -1.584  -2.610  -1.023  0.00  0.00    -0.057 A 
ATOM     22  C   UNL     1      -0.528  -3.494  -1.144  0.00  0.00    +0.002 A 
ATOM     23  C   UNL     1      -0.655  -4.617  -1.940  0.00  0.00    +0.000 A 
ATOM     24  C   UNL     1      -1.834  -4.850  -2.624  0.00  0.00    +0.000 A 
ATOM     25  C   UNL     1      -2.888  -3.963  -2.507  0.00  0.00    +0.000 A 
ATOM     26  C   UNL     1      -2.763  -2.843  -1.707  0.00  0.00    +0.002 A 
ENDBRANCH  20  21
BRANCH  20  27
ATOM     27  C   UNL     1      -1.663  -1.774   1.290  0.00  0.00    -0.057 A 
ATOM     28  C   UNL     1      -0.639  -2.364   2.007  0.00  0.00    +0.002 A 
ATOM     29  C   UNL     1      -0.834  -2.713   3.330  0.00  0.00    +0.000 A 
ATOM     30  C   UNL     1      -2.056  -2.481   3.933  0.00  0.00    +0.000 A 
ATOM     31  C   UNL     1      -3.082  -1.896   3.215  0.00  0.00    +0.000 A 
ATOM     32  C   UNL     1      -2.885  -1.542   1.893  0.00  0.00    +0.002 A 
ENDBRANCH  20  27
ENDBRANCH  17  20
ENDBRANCH   1  17
TORSDOF 8
