REMARK  Name = ZINC66556578
REMARK  6 active torsions:
REMARK  status: ('A' for Active; 'I' for Inactive)
REMARK    1  A    between atoms: C_1  and  C_2
REMARK    2  A    between atoms: C_6  and  C_7
REMARK    3  A    between atoms: N_9  and  N_10
REMARK    4  A    between atoms: C_11  and  C_13
REMARK    5  A    between atoms: C_13  and  C_15
REMARK    6  A    between atoms: C_13  and  C_16
REMARK                            x       y       z     vdW  Elec       q    Type
REMARK                         _______ _______ _______ _____ _____    ______ ____
ROOT
ATOM      1  N   UNL     1       0.059  -0.732   4.900  0.00  0.00    -0.234 N 
ATOM      2  C   UNL     1       0.081  -1.625   5.909  0.00  0.00    +0.236 C 
ATOM      3  O   UNL     1       0.094  -2.813   5.667  0.00  0.00    -0.274 OA
ATOM      4  H   UNL     1       0.048   0.219   5.094  0.00  0.00    +0.173 HD
ENDROOT
BRANCH   1   7
ATOM      5  C   UNL     1       0.031  -0.283   2.562  0.00  0.00    +0.267 C 
ATOM      6  O   UNL     1       0.017   0.910   2.805  0.00  0.00    -0.268 OA
ATOM      7  N   UNL     1       0.052  -1.176   3.571  0.00  0.00    -0.230 N 
ATOM      8  H   UNL     1       0.063  -2.126   3.378  0.00  0.00    +0.173 HD
BRANCH   5  14
ATOM      9  C   UNL     1      -0.018   1.503   0.010  0.00  0.00    +0.045 C 
ATOM     10  C   UNL     1       0.002  -0.004   0.002  0.00  0.00    -0.031 A 
ATOM     11  C   UNL     1       0.007  -0.729  -1.166  0.00  0.00    +0.011 A 
ATOM     12  C   UNL     1       0.025  -2.083  -1.101  0.00  0.00    +0.046 A 
ATOM     13  S   UNL     1       0.037  -2.416   0.545  0.00  0.00    -0.092 S 
ATOM     14  C   UNL     1       0.023  -0.748   1.172  0.00  0.00    +0.078 A 
ENDBRANCH   5  14
ENDBRANCH   1   7
BRANCH   2  15
ATOM     15  C   UNL     1       0.088  -1.147   7.338  0.00  0.00    +0.106 C 
ATOM     16  C   UNL     1       1.329  -0.285   7.581  0.00  0.00    +0.022 C 
BRANCH  15  17
ATOM     17  C   UNL     1       0.113  -2.335   8.265  0.00  0.00    +0.001 A 
ATOM     18  C   UNL     1       1.165  -3.232   8.212  0.00  0.00    +0.046 A 
ATOM     19  C   UNL     1       1.187  -4.322   9.063  0.00  0.00    +0.020 A 
ATOM     20  C   UNL     1       0.158  -4.516   9.966  0.00  0.00    +0.003 A 
ATOM     21  C   UNL     1      -0.893  -3.620  10.019  0.00  0.00    +0.020 A 
ATOM     22  C   UNL     1      -0.913  -2.526   9.173  0.00  0.00    +0.046 A 
ATOM     23 CL   UNL     1      -2.230  -1.397   9.245  0.00  0.00    -0.083 Cl
ATOM     24 CL   UNL     1       2.456  -2.990   7.078  0.00  0.00    -0.083 Cl
ENDBRANCH  15  17
ENDBRANCH   2  15
TORSDOF 4
