REMARK  Name = ZINC11335428
REMARK  7 active torsions:
REMARK  status: ('A' for Active; 'I' for Inactive)
REMARK    1  A    between atoms: C_4  and  C_7
REMARK    2  A    between atoms: C_16  and  C_18
REMARK    3  A    between atoms: C_18  and  N_61
REMARK    4  A    between atoms: C_19  and  C_20
REMARK    5  A    between atoms: C_19  and  N_61
REMARK    6  A    between atoms: C_32  and  C_33
REMARK    7  A    between atoms: C_32  and  N_61
REMARK                            x       y       z     vdW  Elec       q    Type
REMARK                         _______ _______ _______ _____ _____    ______ ____
ROOT
ATOM      1  N   UNL     1       1.639   6.173   0.017  0.00  0.00    +0.391 N 
ATOM      2  H   UNL     1       2.208   5.549   0.602  0.00  0.00    -0.080 HD
ENDROOT
BRANCH   1   3
ATOM      3  C   UNL     1       1.637   7.523   0.617  0.00  0.00    -0.003 C 
BRANCH   3  13
ATOM      4  C   UNL     1       7.037   8.687   2.022  0.00  0.00    +0.004 A 
ATOM      5  C   UNL     1       7.882   7.672   1.718  0.00  0.00    +0.056 A 
ATOM      6  S   UNL     1       6.809   6.442   1.002  0.00  0.00    -0.076 S 
ATOM      7  C   UNL     1       5.267   7.310   1.126  0.00  0.00    +0.116 A 
ATOM      8  C   UNL     1       5.619   8.533   1.719  0.00  0.00    +0.080 A 
ATOM      9  C   UNL     1       4.541   9.448   1.940  0.00  0.00    +0.260 A 
ATOM     10  O   UNL     1       4.748  10.536   2.450  0.00  0.00    -0.267 OA
ATOM     11  N   UNL     1       3.296   9.090   1.576  0.00  0.00    -0.312 N 
ATOM     12  H   UNL     1       2.562   9.706   1.724  0.00  0.00    +0.170 HD
ATOM     13  C   UNL     1       3.047   7.882   1.008  0.00  0.00    +0.094 A 
ATOM     14  N   UNL     1       4.009   7.024   0.798  0.00  0.00    -0.229 NA
BRANCH   4  18
ATOM     15  C   UNL     1       8.492  12.252   3.824  0.00  0.00    +0.000 A 
ATOM     16  C   UNL     1       8.834  11.021   4.356  0.00  0.00    +0.001 A 
ATOM     17  C   UNL     1       8.364   9.861   3.776  0.00  0.00    +0.008 A 
ATOM     18  C   UNL     1       7.545   9.930   2.650  0.00  0.00    -0.017 A 
ATOM     19  C   UNL     1       7.209  11.172   2.114  0.00  0.00    +0.008 A 
ATOM     20  C   UNL     1       7.679  12.326   2.707  0.00  0.00    +0.001 A 
ENDBRANCH   4  18
ENDBRANCH   3  13
ENDBRANCH   1   3
BRANCH   1  21
ATOM     21  C   UNL     1       0.260   5.646  -0.046  0.00  0.00    -0.003 C 
BRANCH  21  22
ATOM     22  C   UNL     1       0.316   4.179  -0.388  0.00  0.00    +0.094 A 
ATOM     23  N   UNL     1      -0.854   3.493  -0.479  0.00  0.00    -0.312 N 
ATOM     24  H   UNL     1      -1.694   3.953  -0.325  0.00  0.00    +0.170 HD
ATOM     25  C   UNL     1      -0.857   2.173  -0.778  0.00  0.00    +0.259 A 
ATOM     26  O   UNL     1      -1.897   1.546  -0.859  0.00  0.00    -0.267 OA
ATOM     27  C   UNL     1       0.444   1.528  -1.009  0.00  0.00    +0.065 A 
ATOM     28  C   UNL     1       0.550   0.176  -1.327  0.00  0.00    +0.015 A 
ATOM     29  C   UNL     1       1.796  -0.378  -1.527  0.00  0.00    +0.001 A 
ATOM     30  C   UNL     1       2.941   0.399  -1.414  0.00  0.00    +0.002 A 
ATOM     31  C   UNL     1       2.858   1.737  -1.100  0.00  0.00    +0.028 A 
ATOM     32  C   UNL     1       1.607   2.322  -0.892  0.00  0.00    +0.078 A 
ATOM     33  N   UNL     1       1.479   3.636  -0.581  0.00  0.00    -0.236 NA
ENDBRANCH  21  22
ENDBRANCH   1  21
BRANCH   1  34
ATOM     34  C   UNL     1       2.223   6.223  -1.339  0.00  0.00    -0.046 C 
BRANCH  34  35
ATOM     35  C   UNL     1       1.464   7.223  -2.213  0.00  0.00    +0.102 C 
ATOM     36  C   UNL     1       2.198   7.411  -3.555  0.00  0.00    +0.032 C 
ATOM     37  C   UNL     1       1.150   7.008  -4.621  0.00  0.00    +0.030 C 
ATOM     38  C   UNL     1      -0.181   7.164  -3.842  0.00  0.00    +0.160 C 
ATOM     39  O   UNL     1       0.152   6.715  -2.511  0.00  0.00    -0.378 OA
ENDBRANCH  34  35
ENDBRANCH   1  34
TORSDOF 7
