REMARK  Name = ZINC45602119
REMARK  10 active torsions:
REMARK  status: ('A' for Active; 'I' for Inactive)
REMARK    1  A    between atoms: C_1  and  O_2
REMARK    2  A    between atoms: O_2  and  C_3
REMARK    3  A    between atoms: C_6  and  C_9
REMARK    4  A    between atoms: C_9  and  C_11
REMARK    5  A    between atoms: C_9  and  N_30
REMARK    6  A    between atoms: C_11  and  N_12
REMARK    7  A    between atoms: C_13  and  C_15
REMARK    8  A    between atoms: C_15  and  O_16
REMARK    9  A    between atoms: O_16  and  C_17
REMARK   10  A    between atoms: C_17  and  C_19
REMARK                            x       y       z     vdW  Elec       q    Type
REMARK                         _______ _______ _______ _____ _____    ______ ____
ROOT
ATOM      1  N   UNL     1      -5.455  -1.882   2.339  0.00  0.00    -0.314 N 
ATOM      2  C   UNL     1      -5.699  -2.017   3.657  0.00  0.00    +0.251 C 
ATOM      3  O   UNL     1      -5.873  -3.120   4.132  0.00  0.00    -0.272 OA
ATOM      4  H   UNL     1      -5.316  -1.000   1.959  0.00  0.00    +0.149 HD
ENDROOT
BRANCH   1   5
ATOM      5  C   UNL     1      -5.399  -3.066   1.479  0.00  0.00    +0.093 C 
BRANCH   5   6
ATOM      6  C   UNL     1      -4.979  -2.652   0.067  0.00  0.00    -0.020 C 
BRANCH   6   7
ATOM      7  N   UNL     1      -5.012  -3.825  -0.817  0.00  0.00    +0.385 N 
ATOM      8  C   UNL     1      -4.555  -3.438  -2.157  0.00  0.00    -0.078 C 
ATOM      9  C   UNL     1      -4.509  -4.672  -3.061  0.00  0.00    -0.019 C 
ATOM     10  C   UNL     1      -5.911  -5.282  -3.154  0.00  0.00    -0.004 C 
ATOM     11  C   UNL     1      -6.408  -5.613  -1.744  0.00  0.00    -0.019 C 
ATOM     12  C   UNL     1      -6.383  -4.344  -0.889  0.00  0.00    -0.078 C 
ATOM     13  H   UNL     1      -4.401  -4.539  -0.449  0.00  0.00    -0.081 HD
ENDBRANCH   6   7
BRANCH   6  17
ATOM     14  C   UNL     1      -1.017  -1.055   0.171  0.00  0.00    +0.120 A 
ATOM     15  C   UNL     1      -2.109  -0.201   0.134  0.00  0.00    +0.046 A 
ATOM     16  C   UNL     1      -3.389  -0.720   0.100  0.00  0.00    +0.005 A 
ATOM     17  C   UNL     1      -3.582  -2.089   0.103  0.00  0.00    -0.059 A 
ATOM     18  C   UNL     1      -2.494  -2.942   0.140  0.00  0.00    +0.005 A 
ATOM     19  C   UNL     1      -1.212  -2.429   0.168  0.00  0.00    +0.046 A 
BRANCH  14  21
ATOM     20  C   UNL     1       0.369   0.876   0.204  0.00  0.00    +0.277 C 
ATOM     21  O   UNL     1       0.243  -0.547   0.204  0.00  0.00    -0.495 OA
ENDBRANCH  14  21
ENDBRANCH   6  17
ENDBRANCH   5   6
ENDBRANCH   1   5
BRANCH   2  22
ATOM     22  C   UNL     1      -5.756  -0.798   4.542  0.00  0.00    +0.328 C 
BRANCH  22  23
ATOM     23  O   UNL     1      -6.027  -1.198   5.887  0.00  0.00    -0.452 OA
BRANCH  23  24
ATOM     24  C   UNL     1      -6.111  -0.221   6.811  0.00  0.00    +0.340 C 
ATOM     25  O   UNL     1      -5.959   0.939   6.484  0.00  0.00    -0.245 OA
BRANCH  24  26
ATOM     26  C   UNL     1      -6.388  -0.560   8.219  0.00  0.00    +0.059 A 
ATOM     27  C   UNL     1      -6.557  -1.895   8.599  0.00  0.00    +0.017 A 
ATOM     28  C   UNL     1      -6.815  -2.207   9.914  0.00  0.00    +0.024 A 
ATOM     29  C   UNL     1      -6.907  -1.196  10.867  0.00  0.00    +0.037 A 
ATOM     30  C   UNL     1      -6.739   0.133  10.492  0.00  0.00    -0.025 A 
ATOM     31  C   UNL     1      -6.475   0.453   9.179  0.00  0.00    +0.020 A 
ATOM     32  C   UNL     1      -6.840   1.223  11.528  0.00  0.00    +0.046 C 
ATOM     33  C   UNL     1      -7.876   0.830  12.582  0.00  0.00    +0.101 C 
ATOM     34  C   UNL     1      -7.623  -0.578  13.049  0.00  0.00    +0.218 C 
ATOM     35  O   UNL     1      -7.831  -0.871  14.207  0.00  0.00    -0.275 OA
ATOM     36  N   UNL     1      -7.168  -1.515  12.198  0.00  0.00    -0.285 N 
ATOM     37  H   UNL     1      -7.020  -2.420  12.514  0.00  0.00    +0.155 HD
ENDBRANCH  24  26
ENDBRANCH  23  24
ENDBRANCH  22  23
ENDBRANCH   2  22
TORSDOF 9
