REMARK  Name = ZINC33937364
REMARK  12 active torsions:
REMARK  status: ('A' for Active; 'I' for Inactive)
REMARK    1  A    between atoms: C_1  and  C_2
REMARK    2  A    between atoms: C_2  and  C_3
REMARK    3  A    between atoms: C_3  and  C_4
REMARK    4  A    between atoms: C_4  and  C_6
REMARK    5  A    between atoms: C_4  and  N_18
REMARK    6  A    between atoms: N_10  and  C_11
REMARK    7  A    between atoms: C_11  and  C_12
REMARK    8  A    between atoms: N_18  and  C_19
REMARK    9  A    between atoms: N_18  and  C_25
REMARK   10  A    between atoms: C_19  and  C_20
REMARK   11  A    between atoms: C_25  and  C_26
REMARK   12  A    between atoms: C_32  and  C_38
REMARK                            x       y       z     vdW  Elec       q    Type
REMARK                         _______ _______ _______ _____ _____    ______ ____
ROOT
ATOM      1  N   UNL     1       2.037  -2.269   0.306  0.00  0.00    +0.392 N 
ATOM      2  H   UNL     1       2.727  -1.909  -0.336  0.00  0.00    -0.080 HD
ENDROOT
BRANCH   1   3
ATOM      3  C   UNL     1       0.868  -1.381   0.319  0.00  0.00    +0.003 C 
BRANCH   3   4
ATOM      4  C   UNL     1      -0.162  -1.919   1.278  0.00  0.00    +0.138 A 
ATOM      5  N   UNL     1      -0.630  -3.143   1.318  0.00  0.00    -0.115 NA
ATOM      6  N   UNL     1      -1.490  -3.210   2.275  0.00  0.00    -0.023 NA
ATOM      7  N   UNL     1      -1.583  -2.060   2.847  0.00  0.00    -0.044 NA
ATOM      8  N   UNL     1      -0.776  -1.239   2.264  0.00  0.00    -0.228 N 
BRANCH   8   9
ATOM      9  C   UNL     1      -0.569   0.169   2.609  0.00  0.00    +0.178 C 
BRANCH   9  10
ATOM     10  C   UNL     1      -1.546   1.038   1.815  0.00  0.00    +0.140 C 
ATOM     11  C   UNL     1      -1.406   2.524   2.232  0.00  0.00    +0.035 C 
ATOM     12  C   UNL     1      -1.929   3.238   0.956  0.00  0.00    +0.031 C 
ATOM     13  C   UNL     1      -1.450   2.295  -0.168  0.00  0.00    +0.160 C 
ATOM     14  O   UNL     1      -1.219   1.006   0.417  0.00  0.00    -0.375 OA
ENDBRANCH   9  10
ENDBRANCH   8   9
ENDBRANCH   3   4
BRANCH   3  15
ATOM     15  C   UNL     1       0.267  -1.307  -1.086  0.00  0.00    -0.008 C 
BRANCH  15  17
ATOM     16  C   UNL     1       0.685  -0.613  -3.449  0.00  0.00    +0.004 C 
ATOM     17  C   UNL     1       1.286  -0.688  -2.045  0.00  0.00    -0.005 C 
ENDBRANCH  15  17
ENDBRANCH   3  15
ENDBRANCH   1   3
BRANCH   1  18
ATOM     18  C   UNL     1       1.626  -3.614  -0.121  0.00  0.00    -0.034 C 
BRANCH  18  19
ATOM     19  C   UNL     1       2.473  -4.051  -1.288  0.00  0.00    -0.027 A 
ATOM     20  C   UNL     1       3.809  -4.274  -1.337  0.00  0.00    +0.009 A 
ATOM     21  C   UNL     1       4.378  -4.675  -2.531  0.00  0.00    +0.008 A 
ATOM     22  C   UNL     1       3.583  -4.835  -3.617  0.00  0.00    +0.045 A 
ATOM     23  S   UNL     1       1.975  -4.419  -2.962  0.00  0.00    -0.103 S 
ENDBRANCH  18  19
ENDBRANCH   1  18
BRANCH   1  24
ATOM     24  C   UNL     1       2.614  -2.339   1.655  0.00  0.00    -0.036 C 
BRANCH  24  25
ATOM     25  C   UNL     1       3.937  -3.060   1.599  0.00  0.00    +0.001 A 
ATOM     26  C   UNL     1       5.088  -2.351   1.499  0.00  0.00    +0.017 A 
ATOM     27  C   UNL     1       6.356  -3.081   1.447  0.00  0.00    -0.001 A 
ATOM     28  C   UNL     1       7.577  -2.405   1.345  0.00  0.00    +0.010 A 
ATOM     29  C   UNL     1       8.743  -3.115   1.299  0.00  0.00    +0.001 A 
ATOM     30  C   UNL     1       8.727  -4.503   1.353  0.00  0.00    +0.005 A 
ATOM     31  C   UNL     1       7.537  -5.189   1.454  0.00  0.00    -0.026 A 
ATOM     32  C   UNL     1       6.337  -4.487   1.503  0.00  0.00    +0.052 A 
ATOM     33  N   UNL     1       5.132  -5.149   1.604  0.00  0.00    -0.322 N 
ATOM     34  H   UNL     1       5.120  -6.118   1.642  0.00  0.00    +0.169 HD
ATOM     35  C   UNL     1       3.972  -4.470   1.657  0.00  0.00    +0.251 A 
ATOM     36  O   UNL     1       2.926  -5.087   1.752  0.00  0.00    -0.268 OA
ATOM     37  C   UNL     1       7.535  -6.696   1.510  0.00  0.00    +0.046 C 
ENDBRANCH  24  25
ENDBRANCH   1  24
TORSDOF 10
