REMARK  Name = ZINC13978681
REMARK  9 active torsions:
REMARK  status: ('A' for Active; 'I' for Inactive)
REMARK    1  A    between atoms: C_1  and  C_2
REMARK    2  A    between atoms: C_5  and  C_8
REMARK    3  A    between atoms: C_9  and  C_10
REMARK    4  A    between atoms: N_12  and  C_13
REMARK    5  A    between atoms: C_13  and  N_15
REMARK    6  A    between atoms: N_15  and  N_16
REMARK    7  A    between atoms: C_17  and  C_19
REMARK    8  A    between atoms: C_19  and  O_20
REMARK    9  A    between atoms: O_20  and  C_21
REMARK                            x       y       z     vdW  Elec       q    Type
REMARK                         _______ _______ _______ _____ _____    ______ ____
ROOT
ATOM      1  C   UNL     1       4.127   8.655   0.009  0.00  0.00    +0.153 C 
ATOM      2  S   UNL     1       3.882  10.349   0.021  0.00  0.00    -0.017 S 
ENDROOT
BRANCH   1   5
ATOM      3  C   UNL     1       6.438   8.989  -0.011  0.00  0.00    +0.242 C 
ATOM      4  O   UNL     1       6.264  10.193  -0.003  0.00  0.00    -0.270 OA
ATOM      5  N   UNL     1       5.379   8.155  -0.005  0.00  0.00    -0.263 N 
ATOM      6  H   UNL     1       5.517   7.195  -0.012  0.00  0.00    +0.157 HD
BRANCH   3   8
ATOM      7  C   UNL     1       8.856   9.280  -0.033  0.00  0.00    +0.013 C 
ATOM      8  C   UNL     1       7.796   8.446  -0.027  0.00  0.00    +0.068 C 
BRANCH   7  13
ATOM      9  C   UNL     1      14.194   7.147  -0.095  0.00  0.00    +0.044 C 
ATOM     10  C   UNL     1      12.794   7.706  -0.078  0.00  0.00    -0.050 A 
ATOM     11  C   UNL     1      12.601   9.076  -0.069  0.00  0.00    +0.004 A 
ATOM     12  C   UNL     1      11.324   9.596  -0.054  0.00  0.00    +0.008 A 
ATOM     13  C   UNL     1      10.222   8.734  -0.049  0.00  0.00    -0.025 A 
ATOM     14  C   UNL     1      10.426   7.350  -0.052  0.00  0.00    +0.008 A 
ATOM     15  C   UNL     1      11.710   6.846  -0.072  0.00  0.00    +0.004 A 
ENDBRANCH   7  13
ENDBRANCH   3   8
ENDBRANCH   1   5
BRANCH   1  16
ATOM     16  N   UNL     1       3.068   7.821   0.015  0.00  0.00    -0.245 N 
ATOM     17  H   UNL     1       2.168   8.181   0.025  0.00  0.00    +0.172 HD
BRANCH  16  18
ATOM     18  N   UNL     1       3.268   6.434   0.005  0.00  0.00    -0.232 N 
ATOM     19  C   UNL     1       2.209   5.601   0.011  0.00  0.00    +0.267 C 
ATOM     20  O   UNL     1       1.083   6.051   0.024  0.00  0.00    -0.271 OA
ATOM     21  H   UNL     1       4.169   6.074  -0.005  0.00  0.00    +0.173 HD
BRANCH  19  22
ATOM     22  C   UNL     1       2.425   4.109   0.001  0.00  0.00    +0.326 C 
BRANCH  22  23
ATOM     23  O   UNL     1       1.159   3.445   0.009  0.00  0.00    -0.483 OA
BRANCH  23  24
ATOM     24  C   UNL     1       1.176   2.086   0.002  0.00  0.00    +0.121 A 
ATOM     25  C   UNL     1      -0.017   1.377   0.010  0.00  0.00    +0.047 A 
ATOM     26  C   UNL     1       0.002  -0.004   0.002  0.00  0.00    +0.019 A 
ATOM     27  C   UNL     1       1.209  -0.680  -0.013  0.00  0.00    +0.018 A 
ATOM     28  C   UNL     1       2.399   0.025  -0.020  0.00  0.00    +0.019 A 
ATOM     29  C   UNL     1       2.385   1.406  -0.013  0.00  0.00    +0.047 A 
ATOM     30 BR   UNL     1       1.232  -2.571  -0.022  0.00  0.00    -0.050 Br
ENDBRANCH  23  24
ENDBRANCH  22  23
ENDBRANCH  19  22
ENDBRANCH  16  18
ENDBRANCH   1  16
TORSDOF 8
