REMARK  Name = ZINC35002060
REMARK  5 active torsions:
REMARK  status: ('A' for Active; 'I' for Inactive)
REMARK    1  A    between atoms: C_1  and  C_2
REMARK    2  A    between atoms: C_3  and  C_30
REMARK    3  A    between atoms: C_8  and  C_23
REMARK    4  A    between atoms: C_26  and  O_29
REMARK    5  A    between atoms: C_30  and  C_32
REMARK                            x       y       z     vdW  Elec       q    Type
REMARK                         _______ _______ _______ _____ _____    ______ ____
ROOT
ATOM      1  C   UNL     1      -0.018   1.503   0.010  0.00  0.00    +0.067 C 
ATOM      2  C   UNL     1       0.002  -0.004   0.002  0.00  0.00    +0.058 A 
ATOM      3  C   UNL     1       0.006  -0.734  -1.186  0.00  0.00    +0.078 A 
ATOM      4  S   UNL     1       0.032  -2.401  -0.546  0.00  0.00    -0.049 S 
ATOM      5  C   UNL     1       0.035  -2.022   1.093  0.00  0.00    +0.169 A 
ATOM      6  N   UNL     1       0.022  -0.700   1.108  0.00  0.00    -0.229 NA
ATOM      7  N   UNL     1       0.052  -2.887   2.170  0.00  0.00    -0.232 N 
ATOM      8  C   UNL     1       0.048  -2.501   3.590  0.00  0.00    +0.151 C 
ATOM      9  C   UNL     1       0.073  -3.780   4.360  0.00  0.00    +0.072 A 
ATOM     10  C   UNL     1       0.091  -4.040   5.803  0.00  0.00    +0.199 A 
ATOM     11  O   UNL     1      -0.090  -3.172   6.639  0.00  0.00    -0.287 OA
ATOM     12  C   UNL     1       0.349  -5.460   6.149  0.00  0.00    +0.064 A 
ATOM     13  C   UNL     1       0.593  -5.833   7.470  0.00  0.00    +0.015 A 
ATOM     14  C   UNL     1       0.835  -7.144   7.771  0.00  0.00    +0.001 A 
ATOM     15  C   UNL     1       0.839  -8.103   6.767  0.00  0.00    +0.004 A 
ATOM     16  C   UNL     1       0.598  -7.753   5.458  0.00  0.00    +0.047 A 
ATOM     17  C   UNL     1       0.346  -6.422   5.125  0.00  0.00    +0.139 A 
ATOM     18  O   UNL     1       0.102  -6.103   3.833  0.00  0.00    -0.450 OA
ATOM     19  C   UNL     1       0.085  -4.808   3.459  0.00  0.00    +0.199 A 
ATOM     20  C   UNL     1       0.069  -4.234   2.103  0.00  0.00    +0.289 C 
ATOM     21  O   UNL     1       0.073  -4.880   1.074  0.00  0.00    -0.266 OA
ENDROOT
BRANCH   8  22
ATOM     22  C   UNL     1      -1.202  -1.722   3.914  0.00  0.00    -0.022 A 
ATOM     23  C   UNL     1      -2.409  -2.090   3.349  0.00  0.00    +0.009 A 
ATOM     24  C   UNL     1      -3.555  -1.377   3.643  0.00  0.00    +0.046 A 
ATOM     25  C   UNL     1      -3.495  -0.294   4.507  0.00  0.00    +0.117 A 
ATOM     26  C   UNL     1      -2.282   0.072   5.073  0.00  0.00    +0.046 A 
ATOM     27  C   UNL     1      -1.139  -0.646   4.779  0.00  0.00    +0.009 A 
BRANCH  25  28
ATOM     28  O   UNL     1      -4.621   0.409   4.798  0.00  0.00    -0.507 OA
ATOM     29  H   UNL     1      -5.105   0.076   5.566  0.00  0.00    +0.292 HD
ENDBRANCH  25  28
ENDBRANCH   8  22
BRANCH   3  30
ATOM     30  C   UNL     1      -0.007  -0.281  -2.520  0.00  0.00    +0.168 C 
ATOM     31  O   UNL     1      -0.024   0.910  -2.758  0.00  0.00    -0.292 OA
ATOM     32  C   UNL     1       0.001  -1.275  -3.653  0.00  0.00    +0.092 C 
ENDBRANCH   3  30
TORSDOF 3
