REMARK  Name = ZINC65265863
REMARK  6 active torsions:
REMARK  status: ('A' for Active; 'I' for Inactive)
REMARK    1  A    between atoms: C_1  and  O_2
REMARK    2  A    between atoms: O_2  and  C_3
REMARK    3  A    between atoms: C_6  and  C_11
REMARK    4  A    between atoms: C_7  and  O_9
REMARK    5  A    between atoms: O_9  and  C_10
REMARK    6  A    between atoms: N_28  and  C_29
REMARK                            x       y       z     vdW  Elec       q    Type
REMARK                         _______ _______ _______ _____ _____    ______ ____
ROOT
ATOM      1  C   UNL     1       2.488  -2.399  -4.354  0.00  0.00    +0.252 C 
ATOM      2  O   UNL     1       2.886  -1.691  -5.260  0.00  0.00    -0.270 OA
ATOM      3  N   UNL     1       2.651  -3.735  -4.421  0.00  0.00    -0.295 N 
ATOM      4  C   UNL     1       2.118  -4.712  -3.459  0.00  0.00    +0.110 C 
ATOM      5  C   UNL     1       2.532  -6.117  -3.953  0.00  0.00    +0.050 C 
ATOM      6  C   UNL     1       2.821  -5.883  -5.445  0.00  0.00    +0.091 C 
ATOM      7  C   UNL     1       3.389  -4.459  -5.475  0.00  0.00    +0.137 C 
ATOM      8  C   UNL     1       3.775  -6.885  -5.998  0.00  0.00    +0.095 C 
ATOM      9  N   UNL     1       3.676  -7.150  -7.343  0.00  0.00    -0.303 N 
ATOM     10  C   UNL     1       2.817  -8.158  -7.768  0.00  0.00    +0.037 A 
ATOM     11  C   UNL     1       3.241  -9.076  -8.719  0.00  0.00    +0.023 A 
ATOM     12  C   UNL     1       2.386 -10.068  -9.155  0.00  0.00    +0.002 A 
ATOM     13  C   UNL     1       1.105 -10.138  -8.637  0.00  0.00    +0.000 A 
ATOM     14  C   UNL     1       0.687  -9.231  -7.688  0.00  0.00    +0.007 A 
ATOM     15  C   UNL     1       1.538  -8.229  -7.231  0.00  0.00    -0.012 A 
ATOM     16  C   UNL     1       0.996  -7.309  -6.167  0.00  0.00    +0.119 C 
ATOM     17  N   UNL     1       1.573  -5.960  -6.236  0.00  0.00    -0.299 NA
ATOM     18  N   UNL     1       4.651  -7.475  -5.251  0.00  0.00    -0.372 N 
ATOM     19  H   UNL     1       0.908  -5.266  -5.931  0.00  0.00    +0.123 HD
ATOM     20  H   UNL     1       4.699  -7.269  -4.305  0.00  0.00    +0.161 HD
ATOM     21  H   UNL     1       4.196  -6.642  -7.984  0.00  0.00    +0.153 HD
ENDROOT
BRANCH   1  25
ATOM     22  C   UNL     1       0.563  -0.628  -1.064  0.00  0.00    +0.218 A 
ATOM     23  C   UNL     1       1.500  -1.629  -0.822  0.00  0.00    +0.068 A 
ATOM     24  C   UNL     1       2.144  -2.225  -1.887  0.00  0.00    +0.023 A 
ATOM     25  C   UNL     1       1.828  -1.795  -3.184  0.00  0.00    +0.098 A 
ATOM     26  C   UNL     1       0.873  -0.781  -3.349  0.00  0.00    +0.230 A 
ATOM     27  N   UNL     1       0.278  -0.243  -2.297  0.00  0.00    -0.177 NA
BRANCH  22  29
ATOM     28  C   UNL     1      -1.026   0.975  -0.328  0.00  0.00    +0.279 C 
ATOM     29  O   UNL     1      -0.071  -0.042  -0.019  0.00  0.00    -0.480 OA
ENDBRANCH  22  29
BRANCH  26  30
ATOM     30  O   UNL     1       0.555  -0.353  -4.593  0.00  0.00    -0.479 OA
ATOM     31  C   UNL     1      -0.425   0.683  -4.692  0.00  0.00    +0.279 C 
ENDBRANCH  26  30
ENDBRANCH   1  25
BRANCH  18  32
ATOM     32  C   UNL     1       5.571  -8.454  -5.835  0.00  0.00    +0.080 C 
ATOM     33  C   UNL     1       4.931  -9.857  -5.817  0.00  0.00    +0.024 C 
ATOM     34  C   UNL     1       6.112 -10.810  -5.507  0.00  0.00    +0.002 C 
ATOM     35  C   UNL     1       6.945  -9.999  -4.484  0.00  0.00    +0.002 C 
ATOM     36  C   UNL     1       6.852  -8.544  -4.987  0.00  0.00    +0.024 C 
ENDBRANCH  18  32
TORSDOF 4
