REMARK  Name = ZINC40019085
REMARK  18 active torsions:
REMARK  status: ('A' for Active; 'I' for Inactive)
REMARK    1  A    between atoms: C_1  and  C_2
REMARK    2  A    between atoms: C_2  and  C_3
REMARK    3  A    between atoms: C_3  and  C_4
REMARK    4  A    between atoms: C_4  and  N_5
REMARK    5  A    between atoms: N_5  and  C_6
REMARK    6  A    between atoms: N_5  and  C_10
REMARK    7  A    between atoms: C_6  and  C_7
REMARK    8  A    between atoms: C_7  and  C_8
REMARK    9  A    between atoms: C_8  and  C_9
REMARK   10  A    between atoms: C_10  and  C_11
REMARK   11  A    between atoms: C_11  and  C_12
REMARK   12  A    between atoms: C_12  and  N_13
REMARK   13  A    between atoms: C_14  and  C_29
REMARK   14  A    between atoms: C_16  and  C_21
REMARK   15  A    between atoms: C_21  and  C_23
REMARK   16  A    between atoms: C_33  and  O_35
REMARK   17  A    between atoms: O_35  and  C_36
REMARK   18  A    between atoms: C_36  and  C_37
REMARK                            x       y       z     vdW  Elec       q    Type
REMARK                         _______ _______ _______ _____ _____    ______ ____
ROOT
ATOM      1  N   UNL     1       4.043  -6.053  -0.539  0.00  0.00    -0.284 N 
ATOM      2  C   UNL     1       3.543  -6.484  -1.849  0.00  0.00    +0.145 C 
ATOM      3  C   UNL     1       4.760  -6.654  -2.729  0.00  0.00    +0.076 C 
ATOM      4  C   UNL     1       5.837  -6.343  -1.971  0.00  0.00    +0.249 C 
ATOM      5  C   UNL     1       5.384  -5.966  -0.615  0.00  0.00    +0.288 C 
ATOM      6  O   UNL     1       6.114  -5.630   0.296  0.00  0.00    -0.266 OA
ATOM      7  O   UNL     1       7.124  -6.370  -2.389  0.00  0.00    -0.282 OA
ENDROOT
BRANCH   2   8
ATOM      8  C   UNL     1       2.810  -7.793  -1.719  0.00  0.00    -0.019 A 
ATOM      9  C   UNL     1       3.262  -8.754  -0.832  0.00  0.00    +0.006 A 
ATOM     10  C   UNL     1       2.591  -9.956  -0.710  0.00  0.00    +0.004 A 
ATOM     11  C   UNL     1       1.467 -10.202  -1.475  0.00  0.00    +0.045 A 
ATOM     12  C   UNL     1       1.011  -9.241  -2.365  0.00  0.00    +0.121 A 
ATOM     13  C   UNL     1       1.683  -8.032  -2.481  0.00  0.00    +0.051 A 
BRANCH  12  14
ATOM     14  O   UNL     1      -0.095  -9.480  -3.118  0.00  0.00    -0.488 OA
BRANCH  14  15
ATOM     15  C   UNL     1      -0.739 -10.743  -2.941  0.00  0.00    +0.256 C 
BRANCH  15  16
ATOM     16  C   UNL     1      -1.936 -10.828  -3.852  0.00  0.00    +0.006 C 
ATOM     17  C   UNL     1      -2.154 -11.917  -4.548  0.00  0.00    +0.007 C 
ENDBRANCH  15  16
ENDBRANCH  14  15
ENDBRANCH  12  14
ENDBRANCH   2   8
BRANCH   3  18
ATOM     18  C   UNL     1       4.771  -7.073  -4.134  0.00  0.00    +0.195 C 
ATOM     19  O   UNL     1       5.274  -8.136  -4.447  0.00  0.00    -0.287 OA
BRANCH  18  20
ATOM     20  C   UNL     1       4.171  -6.205  -5.170  0.00  0.00    +0.022 A 
ATOM     21  C   UNL     1       3.708  -4.931  -4.835  0.00  0.00    +0.012 A 
ATOM     22  C   UNL     1       3.150  -4.127  -5.806  0.00  0.00    +0.001 A 
ATOM     23  C   UNL     1       3.049  -4.579  -7.110  0.00  0.00    +0.000 A 
ATOM     24  C   UNL     1       3.506  -5.841  -7.449  0.00  0.00    +0.001 A 
ATOM     25  C   UNL     1       4.071  -6.654  -6.489  0.00  0.00    +0.012 A 
ENDBRANCH  18  20
ENDBRANCH   3  18
BRANCH   1  26
ATOM     26  C   UNL     1       3.227  -5.762   0.642  0.00  0.00    +0.107 C 
BRANCH  26  27
ATOM     27  C   UNL     1       2.831  -4.284   0.637  0.00  0.00    +0.000 C 
BRANCH  27  28
ATOM     28  C   UNL     1       1.978  -3.980   1.870  0.00  0.00    -0.077 C 
BRANCH  28  29
ATOM     29  N   UNL     1       1.597  -2.561   1.865  0.00  0.00    +0.380 N 
ATOM     30  H   UNL     1       2.427  -1.991   1.799  0.00  0.00    -0.082 HD
BRANCH  29  31
ATOM     31  C   UNL     1       0.881  -2.242   3.107  0.00  0.00    -0.079 C 
BRANCH  31  32
ATOM     32  C   UNL     1       1.833  -2.385   4.296  0.00  0.00    -0.019 C 
BRANCH  32  33
ATOM     33  C   UNL     1       1.129  -1.919   5.572  0.00  0.00    -0.005 C 
ATOM     34  C   UNL     1       2.081  -2.062   6.761  0.00  0.00    +0.004 C 
ENDBRANCH  32  33
ENDBRANCH  31  32
ENDBRANCH  29  31
BRANCH  29  35
ATOM     35  C   UNL     1       0.725  -2.292   0.714  0.00  0.00    -0.079 C 
BRANCH  35  36
ATOM     36  C   UNL     1       0.444  -0.791   0.627  0.00  0.00    -0.019 C 
BRANCH  36  38
ATOM     37  C   UNL     1      -0.628   1.008  -0.735  0.00  0.00    +0.004 C 
ATOM     38  C   UNL     1      -0.347  -0.493  -0.648  0.00  0.00    -0.005 C 
ENDBRANCH  36  38
ENDBRANCH  35  36
ENDBRANCH  29  35
ENDBRANCH  28  29
ENDBRANCH  27  28
ENDBRANCH  26  27
ENDBRANCH   1  26
TORSDOF 16
