REMARK  Name = ZINC20726103
REMARK  7 active torsions:
REMARK  status: ('A' for Active; 'I' for Inactive)
REMARK    1  A    between atoms: C_1  and  O_2
REMARK    2  A    between atoms: O_2  and  C_3
REMARK    3  A    between atoms: C_3  and  C_5
REMARK    4  A    between atoms: C_8  and  N_11
REMARK    5  A    between atoms: C_23  and  C_25
REMARK    6  A    between atoms: C_30  and  O_31
REMARK    7  A    between atoms: O_31  and  C_32
REMARK                            x       y       z     vdW  Elec       q    Type
REMARK                         _______ _______ _______ _____ _____    ______ ____
ROOT
ATOM      1  N   UNL     1      -0.684  -7.238  -0.179  0.00  0.00    -0.269 N 
ATOM      2  C   UNL     1      -1.996  -7.449   0.045  0.00  0.00    +0.307 C 
ATOM      3  O   UNL     1      -2.741  -6.506   0.228  0.00  0.00    -0.252 OA
ATOM      4  N   UNL     1      -2.482  -8.706   0.066  0.00  0.00    -0.272 N 
ATOM      5  C   UNL     1      -1.582  -9.865  -0.026  0.00  0.00    +0.116 C 
ATOM      6  C   UNL     1      -1.875 -10.630  -1.323  0.00  0.00    +0.076 C 
ATOM      7  C   UNL     1      -3.368 -10.780  -1.472  0.00  0.00    +0.066 A 
ATOM      8  C   UNL     1      -4.280 -10.037  -0.810  0.00  0.00    +0.064 A 
ATOM      9  N   UNL     1      -5.510 -10.458  -1.208  0.00  0.00    -0.346 N 
ATOM     10  H   UNL     1      -6.364 -10.111  -0.907  0.00  0.00    +0.167 HD
ATOM     11  C   UNL     1      -5.316 -11.454  -2.103  0.00  0.00    +0.197 A 
ATOM     12  N   UNL     1      -4.030 -11.639  -2.254  0.00  0.00    -0.240 NA
ATOM     13  C   UNL     1      -3.931  -8.955   0.188  0.00  0.00    +0.160 C 
ATOM     14  H   UNL     1      -0.091  -7.990  -0.333  0.00  0.00    +0.156 HD
ENDROOT
BRANCH   1  18
ATOM     15  C   UNL     1       0.824  -3.356  -0.211  0.00  0.00    +0.059 A 
ATOM     16  C   UNL     1       1.623  -4.414   0.234  0.00  0.00    +0.017 A 
ATOM     17  C   UNL     1       1.121  -5.696   0.243  0.00  0.00    +0.024 A 
ATOM     18  C   UNL     1      -0.179  -5.939  -0.190  0.00  0.00    +0.035 A 
ATOM     19  C   UNL     1      -0.976  -4.888  -0.634  0.00  0.00    +0.024 A 
ATOM     20  C   UNL     1      -0.483  -3.603  -0.640  0.00  0.00    +0.017 A 
BRANCH  15  21
ATOM     21  C   UNL     1       1.358  -1.982  -0.222  0.00  0.00    +0.339 C 
ATOM     22  O   UNL     1       0.662  -1.062  -0.605  0.00  0.00    -0.245 OA
BRANCH  21  24
ATOM     23  C   UNL     1       3.070  -0.390   0.154  0.00  0.00    +0.280 C 
ATOM     24  O   UNL     1       2.619  -1.745   0.192  0.00  0.00    -0.464 OA
ENDBRANCH  21  24
ENDBRANCH  15  21
ENDBRANCH   1  18
BRANCH  13  25
ATOM     25  C   UNL     1      -4.256  -9.416   1.585  0.00  0.00    +0.021 A 
ATOM     26  C   UNL     1      -4.218 -10.761   1.896  0.00  0.00    +0.009 A 
ATOM     27  C   UNL     1      -4.517 -11.185   3.178  0.00  0.00    +0.001 A 
ATOM     28  C   UNL     1      -4.855 -10.263   4.152  0.00  0.00    +0.004 A 
ATOM     29  C   UNL     1      -4.894  -8.917   3.846  0.00  0.00    +0.046 A 
ATOM     30  C   UNL     1      -4.590  -8.489   2.562  0.00  0.00    +0.135 A 
BRANCH  30  31
ATOM     31  O   UNL     1      -4.622  -7.164   2.260  0.00  0.00    -0.405 OA
BRANCH  31  32
ATOM     32  C   UNL     1      -4.973  -6.267   3.316  0.00  0.00    +0.575 C 
ATOM     33  F   UNL     1      -4.051  -6.392   4.360  0.00  0.00    -0.133 F 
ATOM     34  F   UNL     1      -4.958  -4.953   2.835  0.00  0.00    -0.133 F 
ATOM     35  F   UNL     1      -6.254  -6.577   3.785  0.00  0.00    -0.133 F 
ENDBRANCH  31  32
ENDBRANCH  30  31
ENDBRANCH  13  25
TORSDOF 6
