REMARK  Name = ZINC25585217
REMARK  7 active torsions:
REMARK  status: ('A' for Active; 'I' for Inactive)
REMARK    1  A    between atoms: C_1  and  C_2
REMARK    2  A    between atoms: C_3  and  C_12
REMARK    3  A    between atoms: N_7  and  N_8
REMARK    4  A    between atoms: C_17  and  C_28
REMARK    5  A    between atoms: C_19  and  C_21
REMARK    6  A    between atoms: C_26  and  O_27
REMARK    7  A    between atoms: C_28  and  N_29
REMARK                            x       y       z     vdW  Elec       q    Type
REMARK                         _______ _______ _______ _____ _____    ______ ____
ROOT
ATOM      1  C   UNL     1      -0.596   0.357  -2.761  0.00  0.00    +0.281 C 
ATOM      2  O   UNL     1      -0.986   1.462  -3.090  0.00  0.00    -0.267 OA
ATOM      3  N   UNL     1      -0.339  -0.575  -3.701  0.00  0.00    -0.122 N 
ATOM      4  C   UNL     1      -0.478  -0.376  -5.027  0.00  0.00    +0.249 C 
ATOM      5  O   UNL     1      -0.843   0.637  -5.585  0.00  0.00    -0.273 OA
ATOM      6  C   UNL     1      -0.079  -1.688  -5.673  0.00  0.00    +0.112 C 
ATOM      7  C   UNL     1       0.278  -2.572  -4.497  0.00  0.00    +0.081 C 
ATOM      8  N   UNL     1       0.108  -1.864  -3.427  0.00  0.00    -0.173 NA
ENDROOT
BRANCH   1  11
ATOM      9  C   UNL     1      -1.097   2.267  -0.378  0.00  0.00    +0.067 C 
ATOM     10  C   UNL     1      -0.614   0.844  -0.268  0.00  0.00    +0.060 A 
ATOM     11  C   UNL     1      -0.414   0.049  -1.390  0.00  0.00    +0.100 A 
ATOM     12  S   UNL     1       0.138  -1.467  -0.624  0.00  0.00    -0.046 S 
ATOM     13  C   UNL     1       0.062  -0.961   0.979  0.00  0.00    +0.176 A 
ATOM     14  N   UNL     1      -0.356   0.290   0.890  0.00  0.00    -0.228 NA
ATOM     15  N   UNL     1       0.367  -1.679   2.115  0.00  0.00    -0.241 N 
ATOM     16  H   UNL     1       0.669  -2.598   2.041  0.00  0.00    +0.172 HD
BRANCH  15  17
ATOM     17  N   UNL     1       0.241  -1.082   3.376  0.00  0.00    -0.219 N 
ATOM     18  C   UNL     1       0.539  -1.784   4.487  0.00  0.00    +0.313 C 
ATOM     19  O   UNL     1       0.429  -1.266   5.581  0.00  0.00    -0.252 OA
ATOM     20  N   UNL     1       0.959  -3.061   4.385  0.00  0.00    -0.312 N 
ATOM     21  H   UNL     1      -0.062  -0.163   3.449  0.00  0.00    +0.174 HD
ATOM     22  H   UNL     1       1.047  -3.474   3.512  0.00  0.00    +0.147 HD
ATOM     23  H   UNL     1       1.174  -3.566   5.184  0.00  0.00    +0.147 HD
ENDBRANCH  15  17
ENDBRANCH   1  11
BRANCH   7  24
ATOM     24  C   UNL     1       0.738  -3.971  -4.558  0.00  0.00    +0.040 A 
ATOM     25  C   UNL     1       0.887  -4.608  -5.793  0.00  0.00    +0.013 A 
ATOM     26  C   UNL     1       1.317  -5.917  -5.843  0.00  0.00    +0.001 A 
ATOM     27  C   UNL     1       1.603  -6.604  -4.675  0.00  0.00    +0.004 A 
ATOM     28  C   UNL     1       1.459  -5.985  -3.448  0.00  0.00    +0.046 A 
ATOM     29  C   UNL     1       1.033  -4.669  -3.379  0.00  0.00    +0.126 A 
BRANCH  29  30
ATOM     30  O   UNL     1       0.896  -4.058  -2.174  0.00  0.00    -0.506 OA
ATOM     31  H   UNL     1       0.019  -4.159  -1.779  0.00  0.00    +0.292 HD
ENDBRANCH  29  30
ENDBRANCH   7  24
BRANCH   6  32
ATOM     32  C   UNL     1      -1.251  -2.280  -6.459  0.00  0.00    -0.060 C 
BRANCH  32  33
ATOM     33  N   UNL     1      -2.434  -2.354  -5.591  0.00  0.00    +0.380 N 
ATOM     34  C   UNL     1      -2.312  -3.514  -4.699  0.00  0.00    -0.079 C 
ATOM     35  C   UNL     1      -3.502  -3.549  -3.738  0.00  0.00    -0.019 C 
ATOM     36  C   UNL     1      -4.800  -3.658  -4.545  0.00  0.00    -0.004 C 
ATOM     37  C   UNL     1      -4.880  -2.483  -5.524  0.00  0.00    -0.019 C 
ATOM     38  C   UNL     1      -3.639  -2.487  -6.419  0.00  0.00    -0.079 C 
ATOM     39  H   UNL     1      -2.498  -1.512  -5.038  0.00  0.00    -0.082 HD
ENDBRANCH  32  33
ENDBRANCH   6  32
TORSDOF 6
