REMARK  Name = ZINC22089536
REMARK  7 active torsions:
REMARK  status: ('A' for Active; 'I' for Inactive)
REMARK    1  A    between atoms: C_1  and  C_2
REMARK    2  A    between atoms: C_4  and  N_25
REMARK    3  A    between atoms: C_6  and  S_8
REMARK    4  A    between atoms: S_8  and  C_9
REMARK    5  A    between atoms: C_9  and  C_10
REMARK    6  A    between atoms: N_12  and  C_13
REMARK    7  A    between atoms: C_14  and  C_23
REMARK                            x       y       z     vdW  Elec       q    Type
REMARK                         _______ _______ _______ _____ _____    ______ ____
ROOT
ATOM      1  C   UNL     1      -4.116   1.230   0.028  0.00  0.00    +0.228 C 
ATOM      2  O   UNL     1      -4.348   2.420   0.036  0.00  0.00    -0.275 OA
ATOM      3  N   UNL     1      -5.132   0.344   0.028  0.00  0.00    -0.278 N 
ATOM      4  H   UNL     1      -4.921  -0.735   0.021  0.00  0.00    +0.155 HD
ENDROOT
BRANCH   3   5
ATOM      5  C   UNL     1      -6.445   0.795   0.037  0.00  0.00    +0.090 A 
ATOM      6  C   UNL     1      -7.611   0.048   0.032  0.00  0.00    +0.084 A 
ATOM      7  C   UNL     1      -8.877   0.767   0.051  0.00  0.00    -0.018 A 
ATOM      8  C   UNL     1      -8.767   2.113   0.053  0.00  0.00    -0.004 A 
ATOM      9  S   UNL     1      -7.023   2.427   0.048  0.00  0.00    -0.077 S 
ATOM     10  C   UNL     1      -9.873   3.122   0.045  0.00  0.00    +0.043 C 
ATOM     11  C   UNL     1     -10.899   2.757   1.126  0.00  0.00    +0.005 C 
ATOM     12  C   UNL     1     -11.939   1.828   0.509  0.00  0.00    +0.001 C 
ATOM     13  C   UNL     1     -11.291   0.947  -0.557  0.00  0.00    +0.005 C 
ATOM     14  C   UNL     1     -10.224   0.055   0.066  0.00  0.00    +0.037 C 
BRANCH   6  15
ATOM     15  C   UNL     1      -7.573  -1.384   0.014  0.00  0.00    +0.102 C 
ATOM     16  N   UNL     1      -7.543  -2.519   0.000  0.00  0.00    -0.191 NA
ENDBRANCH   6  15
ENDBRANCH   3   5
BRANCH   1  17
ATOM     17  C   UNL     1      -2.690   0.741   0.019  0.00  0.00    +0.173 C 
BRANCH  17  18
ATOM     18  S   UNL     1      -1.566   2.159   0.021  0.00  0.00    -0.077 S 
BRANCH  18  24
ATOM     19  C   UNL     1       3.551   2.257  -0.019  0.00  0.00    +0.066 C 
ATOM     20  C   UNL     1       2.287   1.437  -0.012  0.00  0.00    +0.044 A 
ATOM     21  C   UNL     1       2.350   0.057  -0.020  0.00  0.00    +0.066 A 
ATOM     22  C   UNL     1       1.155  -0.665  -0.013  0.00  0.00    +0.121 A 
ATOM     23  N   UNL     1       0.002  -0.004   0.002  0.00  0.00    -0.207 NA
ATOM     24  C   UNL     1      -0.016   1.321   0.009  0.00  0.00    +0.191 A 
ATOM     25  N   UNL     1       1.103   2.031   0.002  0.00  0.00    -0.227 NA
BRANCH  22  26
ATOM     26  N   UNL     1       1.171  -2.050  -0.021  0.00  0.00    -0.343 N 
ATOM     27  H   UNL     1       0.225  -2.611  -0.015  0.00  0.00    +0.144 HD
ATOM     28  H   UNL     1       2.130  -2.589  -0.033  0.00  0.00    +0.144 HD
ENDBRANCH  22  26
ENDBRANCH  18  24
ENDBRANCH  17  18
ENDBRANCH   1  17
TORSDOF 6
