REMARK  Name = ZINC21155578
REMARK  9 active torsions:
REMARK  status: ('A' for Active; 'I' for Inactive)
REMARK    1  A    between atoms: C_1  and  C_2
REMARK    2  A    between atoms: C_4  and  C_30
REMARK    3  A    between atoms: C_5  and  S_9
REMARK    4  A    between atoms: C_7  and  C_8
REMARK    5  A    between atoms: S_9  and  N_12
REMARK    6  A    between atoms: N_12  and  C_13
REMARK    7  A    between atoms: C_13  and  C_14
REMARK    8  A    between atoms: C_14  and  C_15
REMARK    9  A    between atoms: N_23  and  C_24
REMARK                            x       y       z     vdW  Elec       q    Type
REMARK                         _______ _______ _______ _____ _____    ______ ____
ROOT
ATOM      1  C   UNL     1       2.783   6.521  -0.086  0.00  0.00    +0.091 C 
ENDROOT
BRANCH   1   2
ATOM      2  C   UNL     1       2.213   5.126  -0.138  0.00  0.00    +0.113 A 
ATOM      3  N   UNL     1       0.945   4.841  -0.193  0.00  0.00    -0.231 NA
ATOM      4  C   UNL     1       0.785   3.494  -0.227  0.00  0.00    +0.108 A 
ATOM      5  C   UNL     1      -0.330   2.652  -0.287  0.00  0.00    +0.033 A 
ATOM      6  C   UNL     1      -0.115   1.288  -0.314  0.00  0.00    +0.022 A 
ATOM      7  C   UNL     1       1.181   0.798  -0.269  0.00  0.00    +0.113 A 
ATOM      8  N   UNL     1       2.218   1.608  -0.211  0.00  0.00    -0.236 NA
ATOM      9  C   UNL     1       2.070   2.923  -0.189  0.00  0.00    +0.161 A 
ATOM     10  N   UNL     1       2.950   3.982  -0.133  0.00  0.00    -0.309 N 
BRANCH  10  11
ATOM     11  C   UNL     1       4.411   3.892  -0.078  0.00  0.00    +0.090 C 
ATOM     12  C   UNL     1       4.925   3.167  -1.323  0.00  0.00    +0.025 C 
ATOM     13  C   UNL     1       6.451   3.073  -1.266  0.00  0.00    +0.002 C 
ATOM     14  C   UNL     1       6.867   2.296  -0.015  0.00  0.00    +0.000 C 
ATOM     15  C   UNL     1       6.354   3.021   1.230  0.00  0.00    +0.002 C 
ATOM     16  C   UNL     1       4.827   3.115   1.173  0.00  0.00    +0.025 C 
ENDBRANCH  10  11
ENDBRANCH   1   2
BRANCH   1  17
ATOM     17  C   UNL     1       2.920   6.962   1.373  0.00  0.00    +0.113 C 
BRANCH  17  18
ATOM     18  N   UNL     1       3.474   8.317   1.423  0.00  0.00    -0.190 NA
ATOM     19  H   UNL     1       4.096   8.688   0.595  0.00  0.00    +0.148 HD
BRANCH  18  20
ATOM     20  S   UNL     1       3.378   9.200   2.821  0.00  0.00    +0.059 S 
ATOM     21  O   UNL     1       4.038  10.433   2.569  0.00  0.00    -0.153 OA
ATOM     22  O   UNL     1       2.025   9.133   3.251  0.00  0.00    -0.153 OA
BRANCH  20  27
ATOM     23  C   UNL     1       6.654   6.310   6.983  0.00  0.00    +0.044 C 
ATOM     24  C   UNL     1       5.836   7.032   5.943  0.00  0.00    -0.047 A 
ATOM     25  C   UNL     1       6.453   7.572   4.830  0.00  0.00    +0.009 A 
ATOM     26  C   UNL     1       5.702   8.230   3.875  0.00  0.00    -0.024 A 
ATOM     27  C   UNL     1       4.335   8.356   4.036  0.00  0.00    +0.108 A 
ATOM     28  C   UNL     1       3.718   7.816   5.149  0.00  0.00    +0.032 A 
ATOM     29  C   UNL     1       4.468   7.154   6.103  0.00  0.00    -0.046 A 
ATOM     30  C   UNL     1       3.796   6.565   7.316  0.00  0.00    +0.044 C 
ATOM     31  C   UNL     1       6.374   8.814   2.659  0.00  0.00    +0.046 C 
ENDBRANCH  20  27
ENDBRANCH  18  20
ENDBRANCH  17  18
ENDBRANCH   1  17
TORSDOF 6
