REMARK  Name = ZINC63744073
REMARK  13 active torsions:
REMARK  status: ('A' for Active; 'I' for Inactive)
REMARK    1  A    between atoms: C_1  and  C_2
REMARK    2  A    between atoms: C_2  and  C_3
REMARK    3  A    between atoms: C_3  and  C_4
REMARK    4  A    between atoms: C_4  and  C_5
REMARK    5  A    between atoms: C_5  and  C_7
REMARK    6  A    between atoms: C_5  and  C_9
REMARK    7  A    between atoms: C_7  and  C_8
REMARK    8  A    between atoms: C_9  and  N_11
REMARK    9  A    between atoms: N_13  and  C_14
REMARK   10  A    between atoms: C_14  and  C_15
REMARK   11  A    between atoms: C_15  and  C_16
REMARK   12  A    between atoms: C_29  and  C_34
REMARK   13  A    between atoms: C_31  and  C_33
REMARK                            x       y       z     vdW  Elec       q    Type
REMARK                         _______ _______ _______ _____ _____    ______ ____
ROOT
ATOM      1  N   UNL     1       2.829  -4.206  -4.023  0.00  0.00    -0.147 NA
ATOM      2  C   UNL     1       2.664  -5.472  -4.383  0.00  0.00    +0.196 C 
ATOM      3  N   UNL     1       1.753  -6.250  -3.735  0.00  0.00    -0.357 N 
ATOM      4  N   UNL     1       3.406  -5.994  -5.404  0.00  0.00    -0.297 N 
ATOM      5  C   UNL     1       4.274  -5.179  -6.119  0.00  0.00    +0.231 A 
ATOM      6  N   UNL     1       4.393  -3.905  -5.778  0.00  0.00    -0.217 NA
ATOM      7  C   UNL     1       5.210  -3.102  -6.438  0.00  0.00    +0.044 A 
ATOM      8  C   UNL     1       5.946  -3.608  -7.498  0.00  0.00    +0.046 A 
ATOM      9  C   UNL     1       5.797  -4.946  -7.828  0.00  0.00    +0.044 A 
ATOM     10  N   UNL     1       4.966  -5.696  -7.123  0.00  0.00    -0.217 NA
ATOM     11  C   UNL     1       6.576  -5.541  -8.973  0.00  0.00    +0.066 C 
ATOM     12  C   UNL     1       5.339  -1.653  -6.044  0.00  0.00    +0.066 C 
ATOM     13  H   UNL     1       3.328  -6.934  -5.629  0.00  0.00    +0.171 HD
ATOM     14  H   UNL     1       1.158  -5.857  -3.078  0.00  0.00    +0.162 HD
ENDROOT
BRANCH   1  15
ATOM     15  C   UNL     1       2.292  -3.761  -2.888  0.00  0.00    +0.242 C 
ATOM     16  O   UNL     1       1.580  -4.490  -2.226  0.00  0.00    -0.273 OA
BRANCH  15  17
ATOM     17  C   UNL     1       2.568  -2.353  -2.425  0.00  0.00    +0.077 C 
BRANCH  17  18
ATOM     18  C   UNL     1       3.954  -2.291  -1.780  0.00  0.00    +0.009 C 
ATOM     19  C   UNL     1       5.012  -2.713  -2.802  0.00  0.00    +0.004 C 
ENDBRANCH  17  18
BRANCH  17  20
ATOM     20  C   UNL     1       1.510  -1.937  -1.402  0.00  0.00    +0.013 C 
BRANCH  20  21
ATOM     21  C   UNL     1       1.716  -0.468  -1.025  0.00  0.00    +0.000 C 
BRANCH  21  23
ATOM     22  C   UNL     1       0.863   1.418   0.375  0.00  0.00    +0.004 C 
ATOM     23  C   UNL     1       0.658  -0.051  -0.002  0.00  0.00    -0.003 C 
ENDBRANCH  21  23
ENDBRANCH  20  21
ENDBRANCH  17  20
ENDBRANCH  15  17
ENDBRANCH   1  15
BRANCH   3  24
ATOM     24  C   UNL     1       1.672  -7.683  -4.032  0.00  0.00    +0.120 C 
BRANCH  24  25
ATOM     25  C   UNL     1       0.500  -8.297  -3.263  0.00  0.00    +0.054 C 
BRANCH  25  26
ATOM     26  C   UNL     1       0.489  -9.789  -3.472  0.00  0.00    -0.040 C 
ATOM     27  C   UNL     1       1.105 -10.721  -2.709  0.00  0.00    +0.000 A 
ATOM     28  C   UNL     1       1.938 -10.628  -1.504  0.00  0.00    +0.030 A 
ATOM     29  C   UNL     1       2.426 -11.764  -0.954  0.00  0.00    +0.042 A 
ATOM     30  C   UNL     1       2.156 -13.025  -1.505  0.00  0.00    +0.022 A 
ATOM     31  C   UNL     1       1.399 -13.191  -2.611  0.00  0.00    +0.027 A 
ATOM     32  C   UNL     1       0.835 -12.064  -3.271  0.00  0.00    +0.043 A 
ATOM     33  N   UNL     1       0.081 -11.966  -4.339  0.00  0.00    -0.380 N 
ATOM     34  C   UNL     1      -0.217 -10.549  -4.572  0.00  0.00    +0.144 C 
ATOM     35 CL   UNL     1       3.412 -11.658   0.471  0.00  0.00    -0.084 Cl
ATOM     36  H   UNL     1      -0.230 -12.707  -4.882  0.00  0.00    +0.160 HD
ENDBRANCH  25  26
ENDBRANCH  24  25
ENDBRANCH   3  24
TORSDOF 9
