REMARK  Name = ZINC09375880
REMARK  5 active torsions:
REMARK  status: ('A' for Active; 'I' for Inactive)
REMARK    1  A    between atoms: C_4  and  C_7
REMARK    2  A    between atoms: C_7  and  C_8
REMARK    3  A    between atoms: N_11  and  S_14
REMARK    4  A    between atoms: S_14  and  C_17
REMARK    5  A    between atoms: C_26  and  C_29
REMARK                            x       y       z     vdW  Elec       q    Type
REMARK                         _______ _______ _______ _____ _____    ______ ____
ROOT
ATOM      1  C   UNL     1       0.020  -2.726  -0.041  0.00  0.00    +0.121 A 
ATOM      2  C   UNL     1       0.706  -2.072   0.975  0.00  0.00    +0.033 A 
ATOM      3  C   UNL     1       0.696  -0.690   0.994  0.00  0.00    +0.043 A 
ATOM      4  C   UNL     1       0.002  -0.004   0.002  0.00  0.00    +0.099 A 
ATOM      5  C   UNL     1      -0.647  -1.983  -0.993  0.00  0.00    +0.112 A 
ATOM      6  N   UNL     1      -0.017   1.386   0.010  0.00  0.00    -0.316 N 
ATOM      7  C   UNL     1       1.347   1.931  -0.000  0.00  0.00    +0.106 C 
ATOM      8  C   UNL     1       1.291   3.452   0.155  0.00  0.00    +0.020 C 
ATOM      9  C   UNL     1       0.474   4.048  -0.995  0.00  0.00    +0.016 C 
ATOM     10  C   UNL     1      -0.926   3.428  -0.992  0.00  0.00    +0.092 C 
ATOM     11  C   UNL     1      -0.805   1.908  -1.114  0.00  0.00    +0.119 C 
ATOM     12  N   UNL     1      -0.684  -0.623  -1.002  0.00  0.00    -0.348 N 
ATOM     13  H   UNL     1      -1.196  -0.096  -1.718  0.00  0.00    +0.167 HD
ENDROOT
BRANCH  10  14
ATOM     14  C   UNL     1      -1.717   3.966  -2.156  0.00  0.00    +0.215 C 
ATOM     15  O   UNL     1      -2.146   3.207  -3.000  0.00  0.00    -0.276 OA
ATOM     16  N   UNL     1      -1.947   5.290  -2.261  0.00  0.00    -0.329 N 
ATOM     17  H   UNL     1      -1.604   5.896  -1.586  0.00  0.00    +0.145 HD
ATOM     18  H   UNL     1      -2.457   5.635  -3.010  0.00  0.00    +0.145 HD
ENDBRANCH  10  14
BRANCH   1  19
ATOM     19  S   UNL     1       0.001  -4.487  -0.112  0.00  0.00    +0.062 S 
ATOM     20  O   UNL     1      -0.255  -4.836  -1.465  0.00  0.00    -0.153 OA
ATOM     21  O   UNL     1       1.156  -4.934   0.585  0.00  0.00    -0.153 OA
BRANCH  19  25
ATOM     22  C   UNL     1      -3.127  -6.825   1.928  0.00  0.00    -0.004 C 
ATOM     23  C   UNL     1      -3.119  -6.596   0.415  0.00  0.00    +0.021 C 
ATOM     24  C   UNL     1      -2.616  -5.179   0.119  0.00  0.00    +0.110 C 
ATOM     25  N   UNL     1      -1.308  -4.998   0.764  0.00  0.00    -0.177 NA
ATOM     26  C   UNL     1      -1.183  -5.285   2.200  0.00  0.00    +0.110 C 
ATOM     27  C   UNL     1      -1.703  -6.695   2.473  0.00  0.00    +0.021 C 
BRANCH  22  28
ATOM     28  C   UNL     1      -3.662  -8.226   2.228  0.00  0.00    +0.038 C 
BRANCH  28  32
ATOM     29  C   UNL     1      -4.013  -8.742   6.454  0.00  0.00    +0.000 A 
ATOM     30  C   UNL     1      -5.077  -8.239   5.728  0.00  0.00    +0.000 A 
ATOM     31  C   UNL     1      -4.963  -8.073   4.361  0.00  0.00    +0.003 A 
ATOM     32  C   UNL     1      -3.786  -8.408   3.719  0.00  0.00    -0.047 A 
ATOM     33  C   UNL     1      -2.724  -8.915   4.444  0.00  0.00    +0.003 A 
ATOM     34  C   UNL     1      -2.836  -9.077   5.812  0.00  0.00    +0.000 A 
ENDBRANCH  28  32
ENDBRANCH  22  28
ENDBRANCH  19  25
ENDBRANCH   1  19
TORSDOF 5
