REMARK  Name = ZINC35843779
REMARK  9 active torsions:
REMARK  status: ('A' for Active; 'I' for Inactive)
REMARK    1  A    between atoms: C_3  and  C_14
REMARK    2  A    between atoms: N_4  and  C_6
REMARK    3  A    between atoms: C_6  and  C_7
REMARK    4  A    between atoms: C_14  and  N_15
REMARK    5  A    between atoms: N_15  and  C_16
REMARK    6  A    between atoms: N_15  and  C_26
REMARK    7  A    between atoms: C_16  and  C_17
REMARK    8  A    between atoms: C_20  and  N_23
REMARK    9  A    between atoms: C_26  and  C_27
REMARK                            x       y       z     vdW  Elec       q    Type
REMARK                         _______ _______ _______ _____ _____    ______ ____
ROOT
ATOM      1  N   UNL     1       4.029   0.418   1.277  0.00  0.00    +0.386 N 
ATOM      2  H   UNL     1       3.477  -0.347   1.635  0.00  0.00    -0.081 HD
ENDROOT
BRANCH   1   3
ATOM      3  C   UNL     1       3.662   0.673  -0.122  0.00  0.00    -0.024 C 
BRANCH   3   6
ATOM      4  C   UNL     1       0.203   1.950  -0.286  0.00  0.00    +0.019 A 
ATOM      5  C   UNL     1       1.593   2.151  -0.165  0.00  0.00    +0.021 A 
ATOM      6  C   UNL     1       2.182   0.940  -0.214  0.00  0.00    +0.003 A 
ATOM      7  N   UNL     1       1.207  -0.003  -0.360  0.00  0.00    -0.348 N 
ATOM      8  C   UNL     1      -0.003   0.623  -0.404  0.00  0.00    +0.086 A 
BRANCH   7   9
ATOM      9  C   UNL     1       1.425  -1.448  -0.455  0.00  0.00    +0.156 C 
BRANCH   9  10
ATOM     10  C   UNL     1       1.295  -2.067   0.913  0.00  0.00    -0.028 A 
ATOM     11  C   UNL     1       2.426  -2.327   1.665  0.00  0.00    +0.008 A 
ATOM     12  C   UNL     1       2.307  -2.893   2.920  0.00  0.00    +0.038 A 
ATOM     13  C   UNL     1       1.055  -3.201   3.424  0.00  0.00    +0.123 A 
ATOM     14  C   UNL     1      -0.077  -2.940   2.671  0.00  0.00    +0.038 A 
ATOM     15  C   UNL     1       0.044  -2.369   1.419  0.00  0.00    +0.008 A 
ATOM     16  F   UNL     1       0.938  -3.755   4.651  0.00  0.00    -0.205 F 
ENDBRANCH   9  10
ENDBRANCH   7   9
ENDBRANCH   3   6
ENDBRANCH   1   3
BRANCH   1  17
ATOM     17  C   UNL     1       5.454   0.072   1.355  0.00  0.00    -0.042 C 
BRANCH  17  18
ATOM     18  C   UNL     1       5.802  -0.309   2.771  0.00  0.00    -0.064 A 
ATOM     19  C   UNL     1       6.220   0.660   3.664  0.00  0.00    +0.004 A 
ATOM     20  C   UNL     1       6.539   0.311   4.963  0.00  0.00    +0.033 A 
ATOM     21  C   UNL     1       6.440  -1.006   5.369  0.00  0.00    +0.126 A 
ATOM     22  C   UNL     1       6.021  -1.975   4.476  0.00  0.00    +0.033 A 
ATOM     23  C   UNL     1       5.697  -1.625   3.179  0.00  0.00    +0.004 A 
BRANCH  21  24
ATOM     24  N   UNL     1       6.782  -1.380   6.760  0.00  0.00    +0.056 N 
ATOM     25  O   UNL     1       7.149  -0.533   7.540  0.00  0.00    -0.126 OA
ATOM     26  O   UNL     1       6.696  -2.533   7.115  0.00  0.00    -0.126 OA
ENDBRANCH  21  24
ENDBRANCH  17  18
ENDBRANCH   1  17
BRANCH   1  27
ATOM     27  C   UNL     1       3.773   1.623   2.077  0.00  0.00    -0.074 C 
BRANCH  27  28
ATOM     28  C   UNL     1       2.303   1.651   2.502  0.00  0.00    -0.028 C 
ATOM     29  C   UNL     1       2.032   0.504   3.478  0.00  0.00    +0.002 C 
ATOM     30  C   UNL     1       0.562   0.532   3.902  0.00  0.00    +0.000 C 
ATOM     31  C   UNL     1       0.254   1.866   4.585  0.00  0.00    +0.000 C 
ATOM     32  C   UNL     1       0.525   3.013   3.609  0.00  0.00    +0.000 C 
ATOM     33  C   UNL     1       1.994   2.985   3.185  0.00  0.00    +0.002 C 
ENDBRANCH  27  28
ENDBRANCH   1  27
TORSDOF 9
