REMARK  Name = ZINC34830342
REMARK  10 active torsions:
REMARK  status: ('A' for Active; 'I' for Inactive)
REMARK    1  A    between atoms: C_1  and  C_2
REMARK    2  A    between atoms: C_7  and  C_8
REMARK    3  A    between atoms: N_17  and  C_18
REMARK    4  A    between atoms: C_18  and  C_20
REMARK    5  A    between atoms: C_18  and  C_21
REMARK    6  A    between atoms: C_29  and  C_31
REMARK    7  A    between atoms: C_33  and  O_39
REMARK    8  A    between atoms: C_35  and  O_37
REMARK    9  A    between atoms: O_37  and  C_38
REMARK   10  A    between atoms: O_39  and  C_40
REMARK                            x       y       z     vdW  Elec       q    Type
REMARK                         _______ _______ _______ _____ _____    ______ ____
ROOT
ATOM      1  C   UNL     1      -2.662  -1.038   4.304  0.00  0.00    +0.202 C 
ATOM      2  O   UNL     1      -2.395  -1.259   5.467  0.00  0.00    -0.277 OA
ATOM      3  N   UNL     1      -3.777  -1.562   3.758  0.00  0.00    -0.300 N 
ATOM      4  C   UNL     1      -4.047  -1.411   2.321  0.00  0.00    +0.126 C 
ATOM      5  C   UNL     1      -4.259  -2.804   1.714  0.00  0.00    +0.127 C 
ATOM      6  N   UNL     1      -5.226  -3.536   2.543  0.00  0.00    -0.295 N 
ATOM      7  C   UNL     1      -4.955  -3.687   3.980  0.00  0.00    +0.127 C 
ATOM      8  C   UNL     1      -4.741  -2.299   4.586  0.00  0.00    +0.126 C 
ATOM      9  C   UNL     1      -6.341  -4.060   1.997  0.00  0.00    +0.247 C 
ATOM     10  O   UNL     1      -7.181  -4.576   2.707  0.00  0.00    -0.270 OA
ENDROOT
BRANCH   9  11
ATOM     11  C   UNL     1      -6.542  -4.006   0.532  0.00  0.00    +0.044 A 
ATOM     12  C   UNL     1      -5.494  -4.332  -0.330  0.00  0.00    +0.059 A 
ATOM     13  C   UNL     1      -5.686  -4.281  -1.700  0.00  0.00    +0.124 A 
ATOM     14  C   UNL     1      -6.919  -3.907  -2.216  0.00  0.00    +0.091 A 
ATOM     15  C   UNL     1      -7.963  -3.583  -1.363  0.00  0.00    +0.124 A 
ATOM     16  C   UNL     1      -7.781  -3.636   0.009  0.00  0.00    +0.059 A 
BRANCH  15  17
ATOM     17  O   UNL     1      -9.168  -3.217  -1.873  0.00  0.00    -0.495 OA
ATOM     18  C   UNL     1      -9.288  -3.188  -3.297  0.00  0.00    +0.277 C 
ENDBRANCH  15  17
BRANCH  13  19
ATOM     19  O   UNL     1      -4.667  -4.598  -2.541  0.00  0.00    -0.495 OA
ATOM     20  C   UNL     1      -4.935  -4.524  -3.943  0.00  0.00    +0.277 C 
ENDBRANCH  13  19
ENDBRANCH   9  11
BRANCH   1  21
ATOM     21  C   UNL     1      -1.746  -0.179   3.471  0.00  0.00    +0.018 C 
ATOM     22  C   UNL     1      -0.795  -1.072   2.672  0.00  0.00    -0.004 C 
BRANCH  21  31
ATOM     23  C   UNL     1      -1.884   1.466   5.205  0.00  0.00    -0.005 C 
ATOM     24  C   UNL     1      -1.066   2.301   6.186  0.00  0.00    -0.047 A 
ATOM     25  C   UNL     1      -1.560   3.412   6.864  0.00  0.00    +0.010 A 
ATOM     26  C   UNL     1      -0.760   4.096   7.715  0.00  0.00    +0.045 A 
ATOM     27  S   UNL     1       0.771   3.182   7.598  0.00  0.00    -0.101 S 
ATOM     28  C   UNL     1       0.231   1.964   6.433  0.00  0.00    -0.010 A 
ATOM     29  C   UNL     1       0.979   0.818   5.833  0.00  0.00    +0.024 C 
ATOM     30  C   UNL     1      -0.050  -0.109   5.164  0.00  0.00    -0.071 C 
ATOM     31  N   UNL     1      -0.967   0.703   4.351  0.00  0.00    +0.395 N 
ATOM     32  H   UNL     1      -0.429   1.343   3.786  0.00  0.00    -0.079 HD
BRANCH  23  39
ATOM     33  C   UNL     1      -4.493   2.297   6.128  0.00  0.00    +0.044 C 
ATOM     34  C   UNL     1      -3.979   2.772   4.793  0.00  0.00    -0.049 A 
ATOM     35  C   UNL     1      -4.754   3.610   4.013  0.00  0.00    +0.003 A 
ATOM     36  C   UNL     1      -4.283   4.046   2.789  0.00  0.00    +0.000 A 
ATOM     37  C   UNL     1      -3.036   3.645   2.345  0.00  0.00    +0.000 A 
ATOM     38  C   UNL     1      -2.261   2.807   3.126  0.00  0.00    +0.002 A 
ATOM     39  C   UNL     1      -2.731   2.375   4.352  0.00  0.00    -0.054 A 
ENDBRANCH  23  39
ENDBRANCH  21  31
ENDBRANCH   1  21
TORSDOF 6
