REMARK  Name = ZINC63141869
REMARK  10 active torsions:
REMARK  status: ('A' for Active; 'I' for Inactive)
REMARK    1  A    between atoms: C_1  and  C_2
REMARK    2  A    between atoms: C_2  and  O_3
REMARK    3  A    between atoms: O_3  and  C_4
REMARK    4  A    between atoms: C_7  and  C_12
REMARK    5  A    between atoms: C_9  and  O_10
REMARK    6  A    between atoms: O_10  and  C_11
REMARK    7  A    between atoms: N_31  and  C_34
REMARK    8  A    between atoms: C_34  and  C_35
REMARK    9  A    between atoms: C_40  and  O_41
REMARK   10  A    between atoms: O_41  and  C_42
REMARK                            x       y       z     vdW  Elec       q    Type
REMARK                         _______ _______ _______ _____ _____    ______ ____
ROOT
ATOM      1  C   UNL     1      -1.996  -6.097  -0.011  0.00  0.00    +0.134 C 
ATOM      2  C   UNL     1      -1.827  -6.623   1.414  0.00  0.00    +0.131 C 
ATOM      3  C   UNL     1      -1.653  -8.134   1.282  0.00  0.00    -0.034 C 
ATOM      4  C   UNL     1      -2.658  -8.693   1.942  0.00  0.00    -0.001 A 
ATOM      5  C   UNL     1      -3.005 -10.102   2.189  0.00  0.00    +0.010 A 
ATOM      6  C   UNL     1      -4.131 -10.325   2.917  0.00  0.00    +0.001 A 
ATOM      7  C   UNL     1      -4.937  -9.298   3.419  0.00  0.00    +0.002 A 
ATOM      8  C   UNL     1      -4.694  -7.975   3.241  0.00  0.00    +0.026 A 
ATOM      9  C   UNL     1      -3.535  -7.615   2.492  0.00  0.00    +0.043 A 
ATOM     10  N   UNL     1      -3.061  -6.425   2.186  0.00  0.00    -0.375 N 
ATOM     11  C   UNL     1      -0.518  -8.723   0.491  0.00  0.00    +0.065 C 
ATOM     12  C   UNL     1      -0.312  -7.931  -0.775  0.00  0.00    +0.167 C 
ATOM     13  N   UNL     1      -1.026  -6.682  -0.925  0.00  0.00    -0.279 N 
ATOM     14  C   UNL     1      -0.785  -6.005  -2.096  0.00  0.00    +0.234 C 
ATOM     15  O   UNL     1      -1.272  -4.915  -2.311  0.00  0.00    -0.274 OA
ATOM     16  C   UNL     1       0.117  -6.683  -3.105  0.00  0.00    +0.204 C 
ATOM     17  N   UNL     1      -0.271  -8.102  -3.199  0.00  0.00    -0.287 N 
ATOM     18  C   UNL     1      -0.476  -8.762  -2.022  0.00  0.00    +0.237 C 
ATOM     19  O   UNL     1      -0.765  -9.939  -1.982  0.00  0.00    -0.274 OA
ATOM     20  H   UNL     1      -3.450  -5.567   2.419  0.00  0.00    +0.160 HD
ENDROOT
BRANCH   1  24
ATOM     21  C   UNL     1      -1.498  -1.849   0.006  0.00  0.00    +0.162 A 
ATOM     22  C   UNL     1      -0.389  -2.680  -0.003  0.00  0.00    +0.050 A 
ATOM     23  C   UNL     1      -0.553  -4.052  -0.008  0.00  0.00    +0.009 A 
ATOM     24  C   UNL     1      -1.823  -4.600  -0.005  0.00  0.00    -0.021 A 
ATOM     25  C   UNL     1      -2.934  -3.777   0.004  0.00  0.00    +0.055 A 
ATOM     26  C   UNL     1      -2.776  -2.400   0.016  0.00  0.00    +0.162 A 
BRANCH  26  27
ATOM     27  O   UNL     1      -3.868  -1.589   0.030  0.00  0.00    -0.491 OA
ATOM     28  C   UNL     1      -5.148  -2.225   0.039  0.00  0.00    +0.277 C 
ENDBRANCH  26  27
BRANCH  21  29
ATOM     29  O   UNL     1      -1.339  -0.499   0.012  0.00  0.00    -0.489 OA
BRANCH  29  31
ATOM     30  C   UNL     1      -0.019   1.526   0.010  0.00  0.00    +0.048 C 
ATOM     31  C   UNL     1       0.002  -0.004   0.002  0.00  0.00    +0.226 C 
ENDBRANCH  29  31
ENDBRANCH  21  29
ENDBRANCH   1  24
BRANCH  17  32
ATOM     32  C   UNL     1      -0.432  -8.772  -4.492  0.00  0.00    +0.147 C 
BRANCH  32  33
ATOM     33  C   UNL     1       0.882  -9.377  -4.912  0.00  0.00    +0.011 A 
ATOM     34  C   UNL     1       1.684  -8.723  -5.827  0.00  0.00    +0.009 A 
ATOM     35  C   UNL     1       2.890  -9.278  -6.213  0.00  0.00    +0.001 A 
ATOM     36  C   UNL     1       3.297 -10.489  -5.683  0.00  0.00    +0.004 A 
ATOM     37  C   UNL     1       2.500 -11.147  -4.767  0.00  0.00    +0.046 A 
ATOM     38  C   UNL     1       1.291 -10.589  -4.375  0.00  0.00    +0.125 A 
BRANCH  38  39
ATOM     39  O   UNL     1       0.507 -11.232  -3.470  0.00  0.00    -0.495 OA
ATOM     40  C   UNL     1       0.992 -12.475  -2.959  0.00  0.00    +0.277 C 
ENDBRANCH  38  39
ENDBRANCH  32  33
ENDBRANCH  17  32
TORSDOF 7
