REMARK  Name = ZINC01306053
REMARK  6 active torsions:
REMARK  status: ('A' for Active; 'I' for Inactive)
REMARK    1  A    between atoms: C_1  and  C_2
REMARK    2  A    between atoms: C_2  and  C_4
REMARK    3  A    between atoms: C_2  and  S_13
REMARK    4  A    between atoms: N_6  and  C_7
REMARK    5  A    between atoms: S_13  and  C_14
REMARK    6  A    between atoms: N_30  and  C_31
REMARK                            x       y       z     vdW  Elec       q    Type
REMARK                         _______ _______ _______ _____ _____    ______ ____
ROOT
ATOM      1  C   UNL     1       8.743  -0.629  -1.204  0.00  0.00    +0.199 A 
ATOM      2  N   UNL     1       8.814  -1.904  -0.912  0.00  0.00    -0.120 NA
ATOM      3  N   UNL     1      10.099  -2.354  -1.241  0.00  0.00    -0.109 NA
ATOM      4  C   UNL     1      10.775  -1.339  -1.725  0.00  0.00    +0.240 A 
ATOM      5  N   UNL     1       9.951  -0.242  -1.721  0.00  0.00    -0.249 N 
ATOM      6  C   UNL     1      10.415   0.972  -2.177  0.00  0.00    +0.102 A 
ATOM      7  C   UNL     1      11.708   1.132  -2.662  0.00  0.00    +0.074 A 
ATOM      8  C   UNL     1      12.054   2.479  -3.119  0.00  0.00    -0.023 A 
ATOM      9  C   UNL     1      11.080   3.406  -3.014  0.00  0.00    -0.004 A 
ATOM     10  S   UNL     1       9.702   2.536  -2.322  0.00  0.00    -0.074 S 
ATOM     11  C   UNL     1      11.160   4.851  -3.402  0.00  0.00    +0.043 C 
ATOM     12  C   UNL     1      12.639   5.217  -3.596  0.00  0.00    +0.005 C 
ATOM     13  C   UNL     1      13.303   4.147  -4.467  0.00  0.00    +0.005 C 
ATOM     14  C   UNL     1      13.423   2.839  -3.683  0.00  0.00    +0.037 C 
ATOM     15  C   UNL     1      12.565  -0.076  -2.654  0.00  0.00    +0.264 A 
ATOM     16  O   UNL     1      13.711  -0.015  -3.063  0.00  0.00    -0.267 OA
ATOM     17  N   UNL     1      12.073  -1.238  -2.195  0.00  0.00    -0.280 N 
ATOM     18  C   UNL     1      12.930  -2.427  -2.190  0.00  0.00    +0.155 C 
ENDROOT
BRANCH   1  19
ATOM     19  S   UNL     1       7.335   0.407  -0.980  0.00  0.00    -0.073 S 
BRANCH  19  21
ATOM     20  C   UNL     1       6.541  -1.175   1.105  0.00  0.00    +0.029 C 
ATOM     21  C   UNL     1       6.083  -0.701  -0.275  0.00  0.00    +0.137 C 
BRANCH  21  22
ATOM     22  C   UNL     1       4.776   0.037  -0.145  0.00  0.00    +0.230 C 
ATOM     23  O   UNL     1       4.761   1.250  -0.139  0.00  0.00    -0.274 OA
ATOM     24  N   UNL     1       3.622  -0.651  -0.036  0.00  0.00    -0.285 N 
ATOM     25  H   UNL     1       3.638  -1.618   0.035  0.00  0.00    +0.155 HD
BRANCH  24  26
ATOM     26  C   UNL     1       2.399   0.030  -0.027  0.00  0.00    +0.033 A 
ATOM     27  C   UNL     1       2.245   1.194  -0.769  0.00  0.00    +0.023 A 
ATOM     28  C   UNL     1       1.038   1.864  -0.758  0.00  0.00    +0.002 A 
ATOM     29  C   UNL     1      -0.018   1.377  -0.008  0.00  0.00    +0.000 A 
ATOM     30  C   UNL     1       0.132   0.219   0.732  0.00  0.00    +0.002 A 
ATOM     31  C   UNL     1       1.337  -0.456   0.725  0.00  0.00    +0.023 A 
ENDBRANCH  24  26
ENDBRANCH  21  22
ENDBRANCH  19  21
ENDBRANCH   1  19
TORSDOF 4
