REMARK  Name = ZINC03498704
REMARK  7 active torsions:
REMARK  status: ('A' for Active; 'I' for Inactive)
REMARK    1  A    between atoms: C_1  and  C_2
REMARK    2  A    between atoms: C_2  and  C_3
REMARK    3  A    between atoms: C_2  and  C_4
REMARK    4  A    between atoms: C_4  and  N_5
REMARK    5  A    between atoms: C_13  and  S_14
REMARK    6  A    between atoms: S_14  and  C_15
REMARK    7  A    between atoms: C_15  and  N_16
REMARK                            x       y       z     vdW  Elec       q    Type
REMARK                         _______ _______ _______ _____ _____    ______ ____
ROOT
ATOM      1  N   UNL     1      -0.886   4.119   3.537  0.00  0.00    -0.318 N 
ATOM      2  C   UNL     1      -0.001   5.185   3.548  0.00  0.00    +0.069 A 
ATOM      3  C   UNL     1       0.435   6.062   4.529  0.00  0.00    +0.028 A 
ATOM      4  C   UNL     1       1.349   7.046   4.214  0.00  0.00    +0.002 A 
ATOM      5  C   UNL     1       1.837   7.163   2.921  0.00  0.00    +0.002 A 
ATOM      6  C   UNL     1       1.415   6.301   1.934  0.00  0.00    +0.030 A 
ATOM      7  C   UNL     1       0.489   5.299   2.237  0.00  0.00    +0.090 A 
ATOM      8  N   UNL     1      -0.099   4.319   1.502  0.00  0.00    -0.222 NA
ATOM      9  C   UNL     1      -0.912   3.627   2.263  0.00  0.00    +0.172 A 
ENDROOT
BRANCH   1  10
ATOM     10  C   UNL     1      -1.652   3.614   4.679  0.00  0.00    +0.127 C 
BRANCH  10  12
ATOM     11  C   UNL     1      -1.584   2.099   6.665  0.00  0.00    +0.009 C 
ATOM     12  C   UNL     1      -0.840   2.538   5.402  0.00  0.00    +0.003 C 
ATOM     13  C   UNL     1      -0.650   1.334   4.478  0.00  0.00    +0.009 C 
ENDBRANCH  10  12
ENDBRANCH   1  10
BRANCH   9  14
ATOM     14  S   UNL     1      -1.887   2.263   1.723  0.00  0.00    -0.064 S 
BRANCH  14  15
ATOM     15  C   UNL     1      -1.290   2.102   0.022  0.00  0.00    +0.226 C 
BRANCH  15  16
ATOM     16  N   UNL     1       0.031   1.468   0.026  0.00  0.00    -0.200 N 
ATOM     17  C   UNL     1       0.133   0.118   0.063  0.00  0.00    +0.279 A 
ATOM     18  O   UNL     1      -0.856  -0.591   0.089  0.00  0.00    -0.265 OA
ATOM     19  C   UNL     1       1.487  -0.457   0.072  0.00  0.00    +0.068 A 
ATOM     20  C   UNL     1       1.696  -1.835   0.110  0.00  0.00    +0.015 A 
ATOM     21  C   UNL     1       2.983  -2.326   0.116  0.00  0.00    +0.001 A 
ATOM     22  C   UNL     1       4.069  -1.462   0.086  0.00  0.00    +0.002 A 
ATOM     23  C   UNL     1       3.884  -0.098   0.049  0.00  0.00    +0.030 A 
ATOM     24  C   UNL     1       2.589   0.425   0.041  0.00  0.00    +0.100 A 
ATOM     25  N   UNL     1       2.369   1.763   0.005  0.00  0.00    -0.131 NA
ATOM     26  N   UNL     1       1.184   2.257  -0.002  0.00  0.00    -0.061 NA
ENDBRANCH  15  16
ENDBRANCH  14  15
ENDBRANCH   9  14
TORSDOF 5
