REMARK  Name = ZINC09129550
REMARK  4 active torsions:
REMARK  status: ('A' for Active; 'I' for Inactive)
REMARK    1  A    between atoms: C_1  and  C_2
REMARK    2  A    between atoms: C_2  and  C_3
REMARK    3  A    between atoms: C_3  and  N_4
REMARK    4  A    between atoms: C_13  and  C_20
REMARK                            x       y       z     vdW  Elec       q    Type
REMARK                         _______ _______ _______ _____ _____    ______ ____
ROOT
ATOM      1  N   UNL     1       0.762  -1.976   1.234  0.00  0.00    -0.225 N 
ATOM      2  C   UNL     1      -0.241  -2.643   1.821  0.00  0.00    +0.240 C 
ATOM      3  O   UNL     1      -1.135  -2.017   2.348  0.00  0.00    -0.274 OA
ATOM      4  C   UNL     1      -0.290  -4.145   1.845  0.00  0.00    +0.146 C 
ATOM      5  C   UNL     1      -0.356  -4.630   3.296  0.00  0.00    +0.071 C 
ATOM      6  C   UNL     1      -1.674  -4.241   3.907  0.00  0.00    +0.057 A 
ATOM      7  C   UNL     1      -2.789  -3.977   3.123  0.00  0.00    +0.109 A 
ATOM      8  N   UNL     1      -3.941  -3.635   3.699  0.00  0.00    -0.329 N 
ATOM      9  C   UNL     1      -4.047  -3.538   5.022  0.00  0.00    +0.122 A 
ATOM     10  C   UNL     1      -5.280  -3.169   5.592  0.00  0.00    -0.009 A 
ATOM     11  C   UNL     1      -5.388  -3.069   6.947  0.00  0.00    +0.008 A 
ATOM     12  C   UNL     1      -4.271  -3.336   7.751  0.00  0.00    +0.019 A 
ATOM     13  C   UNL     1      -3.095  -3.689   7.186  0.00  0.00    +0.096 A 
ATOM     14  N   UNL     1      -2.975  -3.791   5.832  0.00  0.00    -0.269 N 
ATOM     15  C   UNL     1      -1.788  -4.143   5.294  0.00  0.00    +0.263 A 
ATOM     16  O   UNL     1      -0.826  -4.371   6.011  0.00  0.00    -0.267 OA
ATOM     17  C   UNL     1      -6.470  -2.886   4.712  0.00  0.00    +0.047 C 
ATOM     18  N   UNL     1      -2.723  -4.062   1.738  0.00  0.00    -0.312 N 
ATOM     19  C   UNL     1      -1.549  -4.620   1.109  0.00  0.00    +0.099 C 
ATOM     20  C   UNL     1      -1.637  -6.167   1.252  0.00  0.00    +0.024 C 
ATOM     21  C   UNL     1      -2.816  -6.615   0.470  0.00  0.00    +0.002 C 
ATOM     22  C   UNL     1      -4.140  -6.029   0.915  0.00  0.00    +0.002 C 
ATOM     23  C   UNL     1      -4.373  -4.774   0.123  0.00  0.00    +0.019 C 
ATOM     24  C   UNL     1      -3.916  -3.556   0.988  0.00  0.00    +0.107 C 
ATOM     25  C   UNL     1       0.923  -4.724   1.173  0.00  0.00    +0.238 C 
ATOM     26  N   UNL     1       1.863  -3.949   0.616  0.00  0.00    -0.239 N 
ATOM     27  C   UNL     1       1.781  -2.610   0.634  0.00  0.00    +0.315 C 
ATOM     28  O   UNL     1       2.653  -1.955   0.098  0.00  0.00    -0.252 OA
ATOM     29  O   UNL     1       1.055  -5.929   1.134  0.00  0.00    -0.274 OA
ATOM     30  H   UNL     1      -4.715  -3.453   3.144  0.00  0.00    +0.168 HD
ATOM     31  H   UNL     1       2.624  -4.368   0.184  0.00  0.00    +0.159 HD
ENDROOT
BRANCH   1  32
ATOM     32  C   UNL     1       0.742  -0.511   1.242  0.00  0.00    +0.118 C 
BRANCH  32  34
ATOM     33  C   UNL     1      -0.019   1.526   0.010  0.00  0.00    +0.005 C 
ATOM     34  C   UNL     1       0.002  -0.004   0.002  0.00  0.00    +0.016 C 
ENDBRANCH  32  34
ENDBRANCH   1  32
TORSDOF 2
