REMARK  Name = ZINC40796966
REMARK  8 active torsions:
REMARK  status: ('A' for Active; 'I' for Inactive)
REMARK    1  A    between atoms: C_1  and  C_2
REMARK    2  A    between atoms: C_2  and  C_3
REMARK    3  A    between atoms: C_2  and  N_4
REMARK    4  A    between atoms: C_5  and  C_9
REMARK    5  A    between atoms: C_13  and  C_15
REMARK    6  A    between atoms: N_17  and  C_18
REMARK    7  A    between atoms: C_19  and  C_27
REMARK    8  A    between atoms: N_29  and  C_30
REMARK                            x       y       z     vdW  Elec       q    Type
REMARK                         _______ _______ _______ _____ _____    ______ ____
ROOT
ATOM      1  C   UNL     1      -2.480  -3.999  -5.091  0.00  0.00    +0.249 C 
ATOM      2  O   UNL     1      -3.557  -4.410  -4.706  0.00  0.00    -0.270 OA
ATOM      3  N   UNL     1      -1.985  -4.414  -6.274  0.00  0.00    -0.275 N 
ATOM      4  H   UNL     1      -1.125  -4.086  -6.582  0.00  0.00    +0.156 HD
ENDROOT
BRANCH   3   5
ATOM      5  C   UNL     1      -2.703  -5.308  -7.051  0.00  0.00    +0.085 A 
ATOM      6  C   UNL     1      -2.352  -5.843  -8.281  0.00  0.00    +0.069 A 
ATOM      7  C   UNL     1      -3.288  -6.768  -8.895  0.00  0.00    -0.023 A 
ATOM      8  C   UNL     1      -4.405  -6.988  -8.168  0.00  0.00    -0.004 A 
ATOM      9  S   UNL     1      -4.197  -5.998  -6.716  0.00  0.00    -0.077 S 
ATOM     10  C   UNL     1      -5.552  -7.881  -8.528  0.00  0.00    +0.043 C 
ATOM     11  C   UNL     1      -5.447  -8.222 -10.022  0.00  0.00    +0.005 C 
ATOM     12  C   UNL     1      -4.011  -8.656 -10.332  0.00  0.00    +0.005 C 
ATOM     13  C   UNL     1      -3.071  -7.452 -10.237  0.00  0.00    +0.037 C 
BRANCH   6  14
ATOM     14  C   UNL     1      -1.087  -5.490  -8.934  0.00  0.00    +0.246 C 
ATOM     15  O   UNL     1      -0.087  -6.149  -8.719  0.00  0.00    -0.270 OA
ATOM     16  N   UNL     1      -1.033  -4.436  -9.773  0.00  0.00    -0.314 N 
ATOM     17  C   UNL     1       0.230  -4.084 -10.425  0.00  0.00    +0.128 C 
ATOM     18  H   UNL     1      -1.831  -3.912  -9.944  0.00  0.00    +0.149 HD
ENDBRANCH   6  14
ENDBRANCH   3   5
BRANCH   1  23
ATOM     19  C   UNL     1      -1.496  -1.716  -2.265  0.00  0.00    +0.021 A 
ATOM     20  C   UNL     1      -0.261  -1.251  -2.718  0.00  0.00    +0.011 A 
ATOM     21  C   UNL     1       0.241  -1.680  -3.931  0.00  0.00    +0.001 A 
ATOM     22  C   UNL     1      -0.476  -2.572  -4.704  0.00  0.00    +0.013 A 
ATOM     23  C   UNL     1      -1.714  -3.046  -4.263  0.00  0.00    +0.038 A 
ATOM     24  C   UNL     1      -2.222  -2.620  -3.036  0.00  0.00    +0.024 A 
BRANCH  19  26
ATOM     25  N   UNL     1      -1.816  -0.046  -0.387  0.00  0.00    -0.223 N 
ATOM     26  C   UNL     1      -2.032  -1.254  -0.965  0.00  0.00    +0.182 A 
ATOM     27  N   UNL     1      -2.806  -1.939  -0.150  0.00  0.00    -0.108 NA
ATOM     28  N   UNL     1      -3.088  -1.243   0.892  0.00  0.00    -0.023 NA
ATOM     29  N   UNL     1      -2.522  -0.087   0.828  0.00  0.00    -0.043 NA
BRANCH  25  31
ATOM     30  C   UNL     1      -1.841   2.348  -0.886  0.00  0.00    +0.032 C 
ATOM     31  C   UNL     1      -1.014   1.061  -0.914  0.00  0.00    +0.105 C 
ATOM     32  C   UNL     1       0.236   1.240  -0.051  0.00  0.00    +0.032 C 
ENDBRANCH  25  31
ENDBRANCH  19  26
ENDBRANCH   1  23
TORSDOF 5
