REMARK  Name = ZINC14157773
REMARK  9 active torsions:
REMARK  status: ('A' for Active; 'I' for Inactive)
REMARK    1  A    between atoms: C_1  and  C_2
REMARK    2  A    between atoms: C_5  and  C_33
REMARK    3  A    between atoms: C_6  and  N_8
REMARK    4  A    between atoms: N_8  and  C_9
REMARK    5  A    between atoms: C_9  and  N_11
REMARK    6  A    between atoms: N_13  and  C_14
REMARK    7  A    between atoms: C_14  and  C_15
REMARK    8  A    between atoms: C_27  and  C_32
REMARK    9  A    between atoms: C_29  and  C_31
REMARK                            x       y       z     vdW  Elec       q    Type
REMARK                         _______ _______ _______ _____ _____    ______ ____
ROOT
ATOM      1  N   UNL     1       8.605  -1.946   0.714  0.00  0.00    -0.159 NA
ATOM      2  C   UNL     1       7.835  -1.255   1.537  0.00  0.00    +0.196 C 
ATOM      3  N   UNL     1       6.681  -0.689   1.079  0.00  0.00    -0.353 N 
ATOM      4  N   UNL     1       8.197  -1.106   2.849  0.00  0.00    -0.297 N 
ATOM      5  C   UNL     1       9.312  -1.771   3.342  0.00  0.00    +0.231 A 
ATOM      6  N   UNL     1      10.071  -2.466   2.508  0.00  0.00    -0.217 NA
ATOM      7  C   UNL     1      11.143  -3.106   2.943  0.00  0.00    +0.044 A 
ATOM      8  C   UNL     1      11.462  -3.052   4.291  0.00  0.00    +0.046 A 
ATOM      9  C   UNL     1      10.643  -2.321   5.137  0.00  0.00    +0.044 A 
ATOM     10  N   UNL     1       9.588  -1.699   4.635  0.00  0.00    -0.217 NA
ATOM     11  C   UNL     1      10.950  -2.233   6.609  0.00  0.00    +0.066 C 
ATOM     12  C   UNL     1      12.005  -3.889   1.986  0.00  0.00    +0.066 C 
ATOM     13  H   UNL     1       6.386  -0.856   0.170  0.00  0.00    +0.163 HD
ATOM     14  H   UNL     1       7.674  -0.536   3.435  0.00  0.00    +0.171 HD
ENDROOT
BRANCH   1  15
ATOM     15  C   UNL     1       8.312  -1.997  -0.593  0.00  0.00    +0.161 C 
ATOM     16  S   UNL     1       8.379  -0.573  -1.541  0.00  0.00    -0.016 S 
BRANCH  15  17
ATOM     17  N   UNL     1       7.965  -3.169  -1.161  0.00  0.00    -0.295 N 
ATOM     18  H   UNL     1       7.853  -3.960  -0.612  0.00  0.00    +0.154 HD
BRANCH  17  24
ATOM     19  C   UNL     1       6.155  -1.206  -5.289  0.00  0.00    +0.044 C 
ATOM     20  C   UNL     1       6.892  -2.307  -4.570  0.00  0.00    -0.049 A 
ATOM     21  C   UNL     1       7.373  -3.393  -5.278  0.00  0.00    +0.004 A 
ATOM     22  C   UNL     1       8.049  -4.405  -4.623  0.00  0.00    +0.005 A 
ATOM     23  C   UNL     1       8.252  -4.331  -3.258  0.00  0.00    -0.029 A 
ATOM     24  C   UNL     1       7.766  -3.244  -2.543  0.00  0.00    +0.036 A 
ATOM     25  C   UNL     1       7.087  -2.229  -3.205  0.00  0.00    +0.027 A 
ATOM     26  C   UNL     1       8.996  -5.431  -2.545  0.00  0.00    +0.045 C 
ENDBRANCH  17  24
ENDBRANCH  15  17
ENDBRANCH   1  15
BRANCH   3  27
ATOM     27  C   UNL     1       5.888   0.172   1.960  0.00  0.00    +0.151 C 
BRANCH  27  28
ATOM     28  C   UNL     1       4.613   0.568   1.260  0.00  0.00    -0.025 A 
ATOM     29  C   UNL     1       3.513  -0.268   1.305  0.00  0.00    +0.009 A 
ATOM     30  C   UNL     1       2.341   0.091   0.664  0.00  0.00    +0.050 A 
ATOM     31  C   UNL     1       2.268   1.290  -0.025  0.00  0.00    +0.166 A 
ATOM     32  C   UNL     1       3.376   2.133  -0.071  0.00  0.00    +0.167 A 
ATOM     33  C   UNL     1       4.546   1.767   0.574  0.00  0.00    +0.055 A 
ATOM     34  O   UNL     1       3.054   3.239  -0.803  0.00  0.00    -0.453 OA
ATOM     35  C   UNL     1       1.615   3.256  -0.861  0.00  0.00    +0.466 C 
ATOM     36  O   UNL     1       1.251   1.869  -0.729  0.00  0.00    -0.453 OA
ENDBRANCH  27  28
ENDBRANCH   3  27
TORSDOF 5
