REMARK  Name = ZINC16856626
REMARK  13 active torsions:
REMARK  status: ('A' for Active; 'I' for Inactive)
REMARK    1  A    between atoms: C_1  and  C_2
REMARK    2  A    between atoms: C_2  and  C_3
REMARK    3  A    between atoms: C_3  and  C_4
REMARK    4  A    between atoms: C_4  and  O_5
REMARK    5  A    between atoms: O_5  and  C_6
REMARK    6  A    between atoms: C_6  and  C_8
REMARK    7  A    between atoms: C_11  and  N_14
REMARK    8  A    between atoms: C_17  and  C_19
REMARK    9  A    between atoms: C_20  and  C_28
REMARK   10  A    between atoms: C_22  and  C_26
REMARK   11  A    between atoms: C_23  and  N_25
REMARK   12  A    between atoms: C_31  and  O_34
REMARK   13  A    between atoms: O_34  and  C_35
REMARK                            x       y       z     vdW  Elec       q    Type
REMARK                         _______ _______ _______ _____ _____    ______ ____
ROOT
ATOM      1  N   UNL     1      -2.244  -1.471   2.458  0.00  0.00    -0.200 N 
ATOM      2  C   UNL     1      -1.920  -1.121   1.194  0.00  0.00    +0.230 A 
ATOM      3  C   UNL     1      -0.689  -0.529   1.234  0.00  0.00    +0.050 A 
ATOM      4  C   UNL     1      -0.257  -0.522   2.555  0.00  0.00    +0.068 A 
ATOM      5  N   UNL     1      -1.184  -1.085   3.293  0.00  0.00    -0.168 NA
ATOM      6  C   UNL     1       1.051   0.036   3.053  0.00  0.00    +0.068 C 
ATOM      7  C   UNL     1       0.002  -0.004   0.002  0.00  0.00    +0.101 C 
ATOM      8  C   UNL     1      -0.739  -0.516  -1.207  0.00  0.00    +0.098 C 
ATOM      9  C   UNL     1      -1.955  -1.101  -1.119  0.00  0.00    +0.200 C 
ATOM     10  O   UNL     1      -2.616  -1.286   0.042  0.00  0.00    -0.423 OA
ENDROOT
BRANCH   1  14
ATOM     11  C   UNL     1      -5.761  -3.358   3.662  0.00  0.00    +0.059 A 
ATOM     12  C   UNL     1      -4.554  -3.650   4.304  0.00  0.00    +0.017 A 
ATOM     13  C   UNL     1      -3.394  -3.024   3.904  0.00  0.00    +0.029 A 
ATOM     14  C   UNL     1      -3.423  -2.104   2.862  0.00  0.00    +0.069 A 
ATOM     15  C   UNL     1      -4.623  -1.807   2.224  0.00  0.00    +0.029 A 
ATOM     16  C   UNL     1      -5.786  -2.432   2.616  0.00  0.00    +0.017 A 
BRANCH  11  17
ATOM     17  C   UNL     1      -7.005  -4.026   4.089  0.00  0.00    +0.339 C 
ATOM     18  O   UNL     1      -6.982  -4.830   4.999  0.00  0.00    -0.245 OA
BRANCH  17  19
ATOM     19  O   UNL     1      -8.168  -3.744   3.468  0.00  0.00    -0.461 OA
BRANCH  19  20
ATOM     20  C   UNL     1      -9.352  -4.439   3.941  0.00  0.00    +0.232 C 
BRANCH  20  21
ATOM     21  C   UNL     1     -10.565  -3.992   3.122  0.00  0.00    +0.041 C 
BRANCH  21  23
ATOM     22  C   UNL     1     -13.027  -4.277   2.801  0.00  0.00    +0.004 C 
ATOM     23  C   UNL     1     -11.813  -4.724   3.620  0.00  0.00    -0.000 C 
ENDBRANCH  21  23
ENDBRANCH  20  21
ENDBRANCH  19  20
ENDBRANCH  17  19
ENDBRANCH  11  17
ENDBRANCH   1  14
BRANCH   7  24
ATOM     24  C   UNL     1      -0.018   1.503   0.010  0.00  0.00    -0.034 A 
ATOM     25  C   UNL     1      -1.226   2.177   0.020  0.00  0.00    +0.008 A 
ATOM     26  C   UNL     1      -1.247   3.558   0.033  0.00  0.00    +0.046 A 
ATOM     27  C   UNL     1      -0.056   4.269   0.025  0.00  0.00    +0.120 A 
ATOM     28  C   UNL     1       1.154   3.591   0.010  0.00  0.00    +0.046 A 
ATOM     29  C   UNL     1       1.170   2.209   0.003  0.00  0.00    +0.008 A 
BRANCH  27  30
ATOM     30  O   UNL     1      -0.074   5.628   0.032  0.00  0.00    -0.495 OA
ATOM     31  C   UNL     1      -1.356   6.259   0.047  0.00  0.00    +0.277 C 
ENDBRANCH  27  30
ENDBRANCH   7  24
BRANCH   9  32
ATOM     32  N   UNL     1      -2.551  -1.531  -2.278  0.00  0.00    -0.328 N 
ATOM     33  H   UNL     1      -3.424  -1.954  -2.247  0.00  0.00    +0.145 HD
ATOM     34  H   UNL     1      -2.101  -1.411  -3.129  0.00  0.00    +0.145 HD
ENDBRANCH   9  32
BRANCH   8  35
ATOM     35  C   UNL     1      -0.133  -0.378  -2.497  0.00  0.00    +0.101 C 
ATOM     36  N   UNL     1       0.347  -0.268  -3.521  0.00  0.00    -0.191 NA
ENDBRANCH   8  35
TORSDOF 10
