REMARK  Name = ZINC14458068
REMARK  10 active torsions:
REMARK  status: ('A' for Active; 'I' for Inactive)
REMARK    1  A    between atoms: C_1  and  C_2
REMARK    2  A    between atoms: C_2  and  O_3
REMARK    3  A    between atoms: O_3  and  C_4
REMARK    4  A    between atoms: C_4  and  C_5
REMARK    5  A    between atoms: C_5  and  O_6
REMARK    6  A    between atoms: O_6  and  C_7
REMARK    7  A    between atoms: C_14  and  C_23
REMARK    8  A    between atoms: C_24  and  C_31
REMARK    9  A    between atoms: C_26  and  C_30
REMARK   10  A    between atoms: C_28  and  C_29
REMARK                            x       y       z     vdW  Elec       q    Type
REMARK                         _______ _______ _______ _____ _____    ______ ____
ROOT
ATOM      1  C   UNL     1       2.867  -2.608   2.136  0.00  0.00    +0.142 A 
ATOM      2  C   UNL     1       1.882  -3.568   2.260  0.00  0.00    +0.047 A 
ATOM      3  C   UNL     1       0.699  -3.445   1.556  0.00  0.00    +0.004 A 
ATOM      4  C   UNL     1       0.509  -2.360   0.722  0.00  0.00    +0.006 A 
ATOM      5  C   UNL     1       1.489  -1.398   0.586  0.00  0.00    -0.016 A 
ATOM      6  C   UNL     1       2.685  -1.500   1.299  0.00  0.00    +0.074 A 
ATOM      7  N   UNL     1       3.717  -0.562   1.237  0.00  0.00    -0.334 N 
ATOM      8  C   UNL     1       3.541   0.552   0.290  0.00  0.00    +0.105 C 
ATOM      9  C   UNL     1       2.083   0.956   0.345  0.00  0.00    +0.029 C 
ATOM     10  C   UNL     1       1.319  -0.235  -0.312  0.00  0.00    +0.049 C 
ATOM     11  C   UNL     1      -0.009   0.348  -0.623  0.00  0.00    -0.023 C 
ATOM     12  C   UNL     1       0.138   1.653  -0.821  0.00  0.00    -0.030 C 
ATOM     13  C   UNL     1       1.603   2.050  -0.616  0.00  0.00    +0.033 C 
ATOM     14  H   UNL     1       4.609  -1.014   1.102  0.00  0.00    +0.147 HD
ENDROOT
BRANCH   8  15
ATOM     15  C   UNL     1       4.412   1.713   0.694  0.00  0.00    -0.021 A 
ATOM     16  C   UNL     1       4.531   2.058   2.027  0.00  0.00    -0.045 A 
ATOM     17  C   UNL     1       5.333   3.122   2.397  0.00  0.00    +0.007 A 
ATOM     18  C   UNL     1       6.010   3.845   1.433  0.00  0.00    -0.050 A 
ATOM     19  C   UNL     1       5.888   3.503   0.099  0.00  0.00    +0.007 A 
ATOM     20  C   UNL     1       5.088   2.438  -0.271  0.00  0.00    -0.045 A 
ATOM     21  C   UNL     1       4.955   2.065  -1.725  0.00  0.00    +0.044 C 
ATOM     22  C   UNL     1       6.882   5.006   1.837  0.00  0.00    +0.044 C 
ATOM     23  C   UNL     1       3.789   1.273   3.077  0.00  0.00    +0.044 C 
ENDBRANCH   8  15
BRANCH   1  24
ATOM     24  O   UNL     1       4.027  -2.740   2.834  0.00  0.00    -0.488 OA
BRANCH  24  25
ATOM     25  C   UNL     1       4.154  -3.892   3.670  0.00  0.00    +0.257 C 
BRANCH  25  26
ATOM     26  C   UNL     1       5.514  -3.867   4.370  0.00  0.00    +0.200 C 
BRANCH  26  27
ATOM     27  O   UNL     1       5.574  -2.748   5.256  0.00  0.00    -0.377 OA
BRANCH  27  29
ATOM     28  C   UNL     1       6.762  -1.406   6.877  0.00  0.00    +0.034 C 
ATOM     29  C   UNL     1       6.810  -2.632   5.963  0.00  0.00    +0.156 C 
ENDBRANCH  27  29
ENDBRANCH  26  27
ENDBRANCH  25  26
ENDBRANCH  24  25
ENDBRANCH   1  24
TORSDOF 6
