REMARK  Name = ZINC08799279
REMARK  8 active torsions:
REMARK  status: ('A' for Active; 'I' for Inactive)
REMARK    1  A    between atoms: C_1  and  N_2
REMARK    2  A    between atoms: C_10  and  C_12
REMARK    3  A    between atoms: C_12  and  C_14
REMARK    4  A    between atoms: C_12  and  N_60
REMARK    5  A    between atoms: C_14  and  N_15
REMARK    6  A    between atoms: N_15  and  S_16
REMARK    7  A    between atoms: S_16  and  C_19
REMARK    8  A    between atoms: C_19  and  C_20
REMARK                            x       y       z     vdW  Elec       q    Type
REMARK                         _______ _______ _______ _____ _____    ______ ____
ROOT
ATOM      1  C   UNL     1      -1.386   3.259  -3.211  0.00  0.00    -0.022 C 
ENDROOT
BRANCH   1  11
ATOM      2  C   UNL     1      -0.080   8.872  -5.806  0.00  0.00    +0.129 C 
ATOM      3  N   UNL     1      -1.171   8.691  -4.840  0.00  0.00    -0.333 N 
ATOM      4  C   UNL     1      -2.426   9.239  -5.357  0.00  0.00    +0.105 C 
ATOM      5  C   UNL     1      -3.531   8.999  -4.321  0.00  0.00    +0.024 C 
ATOM      6  C   UNL     1      -3.795   7.494  -4.253  0.00  0.00    +0.038 C 
ATOM      7  C   UNL     1      -2.485   6.753  -4.152  0.00  0.00    -0.026 A 
ATOM      8  C   UNL     1      -1.276   7.358  -4.447  0.00  0.00    +0.033 A 
ATOM      9  C   UNL     1      -0.097   6.618  -4.345  0.00  0.00    +0.023 A 
ATOM     10  C   UNL     1      -0.134   5.298  -3.947  0.00  0.00    +0.004 A 
ATOM     11  C   UNL     1      -1.344   4.701  -3.648  0.00  0.00    -0.059 A 
ATOM     12  C   UNL     1      -2.514   5.425  -3.756  0.00  0.00    +0.007 A 
ENDBRANCH   1  11
BRANCH   1  17
ATOM     13  C   UNL     1      -0.415   1.056  -3.576  0.00  0.00    -0.078 C 
ATOM     14  C   UNL     1       0.196   0.323  -4.796  0.00  0.00    -0.020 C 
ATOM     15  C   UNL     1      -0.405   1.090  -5.997  0.00  0.00    -0.020 C 
ATOM     16  C   UNL     1      -0.810   2.465  -5.434  0.00  0.00    -0.078 C 
ATOM     17  N   UNL     1      -0.421   2.458  -4.023  0.00  0.00    +0.385 N 
ATOM     18  H   UNL     1       0.519   2.859  -3.920  0.00  0.00    -0.081 HD
ENDBRANCH   1  17
BRANCH   1  19
ATOM     19  C   UNL     1      -1.017   3.165  -1.729  0.00  0.00    +0.095 C 
BRANCH  19  20
ATOM     20  N   UNL     1      -2.034   3.851  -0.928  0.00  0.00    -0.195 NA
ATOM     21  H   UNL     1      -2.669   4.445  -1.357  0.00  0.00    +0.148 HD
BRANCH  20  22
ATOM     22  S   UNL     1      -2.098   3.611   0.709  0.00  0.00    +0.033 S 
ATOM     23  O   UNL     1      -3.198   4.398   1.148  0.00  0.00    -0.158 OA
ATOM     24  O   UNL     1      -2.108   2.200   0.869  0.00  0.00    -0.158 OA
BRANCH  22  25
ATOM     25  C   UNL     1      -0.545   4.302   1.343  0.00  0.00    +0.220 C 
BRANCH  25  26
ATOM     26  C   UNL     1      -0.495   4.136   2.840  0.00  0.00    -0.025 A 
ATOM     27  C   UNL     1      -0.996   5.129   3.662  0.00  0.00    +0.007 A 
ATOM     28  C   UNL     1      -0.956   4.976   5.035  0.00  0.00    +0.020 A 
ATOM     29  C   UNL     1      -0.405   3.833   5.587  0.00  0.00    +0.041 A 
ATOM     30  C   UNL     1       0.101   2.843   4.764  0.00  0.00    +0.020 A 
ATOM     31  C   UNL     1       0.056   2.995   3.391  0.00  0.00    +0.007 A 
ATOM     32 CL   UNL     1      -0.348   3.643   7.312  0.00  0.00    -0.084 Cl
ENDBRANCH  25  26
ENDBRANCH  22  25
ENDBRANCH  20  22
ENDBRANCH  19  20
ENDBRANCH   1  19
TORSDOF 7
