REMARK  Name = ZINC20682090
REMARK  8 active torsions:
REMARK  status: ('A' for Active; 'I' for Inactive)
REMARK    1  A    between atoms: C_1  and  C_2
REMARK    2  A    between atoms: N_8  and  C_9
REMARK    3  A    between atoms: C_9  and  C_10
REMARK    4  A    between atoms: C_10  and  N_11
REMARK    5  A    between atoms: C_12  and  C_14
REMARK    6  A    between atoms: C_23  and  S_26
REMARK    7  A    between atoms: S_26  and  N_29
REMARK    8  A    between atoms: C_32  and  C_35
REMARK                            x       y       z     vdW  Elec       q    Type
REMARK                         _______ _______ _______ _____ _____    ______ ____
ROOT
ATOM      1  C   UNL     1       6.240   0.694   3.678  0.00  0.00    +0.051 A 
ATOM      2  C   UNL     1       7.074   0.475   4.737  0.00  0.00    +0.083 A 
ATOM      3  C   UNL     1       8.369   1.149   4.784  0.00  0.00    +0.250 A 
ATOM      4  O   UNL     1       9.114   0.953   5.728  0.00  0.00    -0.268 OA
ATOM      5  N   UNL     1       8.752   1.982   3.800  0.00  0.00    -0.322 N 
ATOM      6  H   UNL     1       9.618   2.416   3.856  0.00  0.00    +0.169 HD
ATOM      7  C   UNL     1       7.940   2.230   2.715  0.00  0.00    +0.050 A 
ATOM      8  C   UNL     1       6.684   1.605   2.612  0.00  0.00    +0.012 A 
ATOM      9  C   UNL     1       5.870   1.858   1.504  0.00  0.00    +0.039 A 
ATOM     10  C   UNL     1       6.300   2.707   0.524  0.00  0.00    +0.106 A 
ATOM     11  C   UNL     1       7.541   3.321   0.618  0.00  0.00    +0.030 A 
ATOM     12  C   UNL     1       8.355   3.096   1.706  0.00  0.00    +0.028 A 
ENDROOT
BRANCH   1  14
ATOM     13  N   UNL     1       4.476  -0.712   4.640  0.00  0.00    -0.313 N 
ATOM     14  C   UNL     1       4.919   0.025   3.602  0.00  0.00    +0.245 C 
ATOM     15  O   UNL     1       4.236   0.141   2.604  0.00  0.00    -0.270 OA
ATOM     16  H   UNL     1       5.051  -0.865   5.406  0.00  0.00    +0.149 HD
BRANCH  13  17
ATOM     17  C   UNL     1       3.126  -1.281   4.611  0.00  0.00    +0.086 C 
BRANCH  17  18
ATOM     18  C   UNL     1       2.876  -2.066   5.900  0.00  0.00    -0.059 C 
BRANCH  18  25
ATOM     19  C   UNL     1       2.409  -4.568   7.086  0.00  0.00    -0.013 C 
ATOM     20  C   UNL     1       1.327  -3.487   7.051  0.00  0.00    -0.072 C 
ATOM     21  C   UNL     1      -0.051  -4.149   6.984  0.00  0.00    -0.016 C 
ATOM     22  C   UNL     1      -1.131  -3.063   6.950  0.00  0.00    -0.003 C 
ATOM     23  C   UNL     1      -0.873  -2.137   5.758  0.00  0.00    -0.019 C 
ATOM     24  C   UNL     1       0.536  -1.550   5.871  0.00  0.00    -0.078 C 
ATOM     25  N   UNL     1       1.523  -2.637   5.871  0.00  0.00    +0.382 N 
ATOM     26  H   UNL     1       1.412  -3.192   5.036  0.00  0.00    -0.081 HD
ENDBRANCH  18  25
ENDBRANCH  17  18
ENDBRANCH  13  17
ENDBRANCH   1  14
BRANCH  10  27
ATOM     27  S   UNL     1       5.271   3.023  -0.871  0.00  0.00    +0.061 S 
ATOM     28  O   UNL     1       6.131   3.436  -1.924  0.00  0.00    -0.153 OA
ATOM     29  O   UNL     1       4.397   1.909  -0.992  0.00  0.00    -0.153 OA
BRANCH  27  30
ATOM     30  N   UNL     1       4.324   4.329  -0.494  0.00  0.00    -0.177 NA
ATOM     31  C   UNL     1       3.019   4.144   0.154  0.00  0.00    +0.110 C 
ATOM     32  C   UNL     1       1.951   4.867  -0.673  0.00  0.00    +0.020 C 
ATOM     33  C   UNL     1       2.359   6.330  -0.859  0.00  0.00    -0.012 C 
ATOM     34  C   UNL     1       3.686   6.398  -1.619  0.00  0.00    +0.020 C 
ATOM     35  C   UNL     1       4.776   5.694  -0.797  0.00  0.00    +0.110 C 
ATOM     36  C   UNL     1       1.278   7.063  -1.656  0.00  0.00    +0.007 C 
ENDBRANCH  27  30
ENDBRANCH  10  27
TORSDOF 6
