REMARK  Name = ZINC40066834
REMARK  16 active torsions:
REMARK  status: ('A' for Active; 'I' for Inactive)
REMARK    1  A    between atoms: C_1  and  C_2
REMARK    2  A    between atoms: C_2  and  C_3
REMARK    3  A    between atoms: C_3  and  N_4
REMARK    4  A    between atoms: C_5  and  N_27
REMARK    5  A    between atoms: C_6  and  C_14
REMARK    6  A    between atoms: C_7  and  C_13
REMARK    7  A    between atoms: C_8  and  C_11
REMARK    8  A    between atoms: N_18  and  C_22
REMARK    9  A    between atoms: C_22  and  C_23
REMARK   10  A    between atoms: C_23  and  C_24
REMARK   11  A    between atoms: C_24  and  O_25
REMARK   12  A    between atoms: O_25  and  C_26
REMARK   13  A    between atoms: N_27  and  C_28
REMARK   14  A    between atoms: C_28  and  C_29
REMARK   15  A    between atoms: C_32  and  O_35
REMARK   16  A    between atoms: O_35  and  C_36
REMARK                            x       y       z     vdW  Elec       q    Type
REMARK                         _______ _______ _______ _____ _____    ______ ____
ROOT
ATOM      1  N   UNL     1       1.008  -1.954  -1.458  0.00  0.00    -0.295 N 
ATOM      2  C   UNL     1       2.058  -2.523  -0.812  0.00  0.00    +0.109 A 
ATOM      3  C   UNL     1       2.108  -3.914  -0.619  0.00  0.00    +0.019 A 
ATOM      4  C   UNL     1       1.059  -4.716  -1.098  0.00  0.00    -0.017 A 
ATOM      5  C   UNL     1      -0.006  -4.108  -1.756  0.00  0.00    +0.120 A 
ATOM      6  C   UNL     1      -0.011  -2.700  -1.921  0.00  0.00    +0.270 A 
ATOM      7  O   UNL     1      -0.944  -2.161  -2.492  0.00  0.00    -0.266 OA
ATOM      8  C   UNL     1       1.088  -6.210  -0.904  0.00  0.00    +0.046 C 
ENDROOT
BRANCH   3   9
ATOM      9  C   UNL     1       3.244  -4.521   0.077  0.00  0.00    +0.032 C 
ATOM     10  C   UNL     1       3.567  -4.117   1.335  0.00  0.00    +0.077 C 
ATOM     11  C   UNL     1       4.684  -4.480   2.148  0.00  0.00    +0.258 C 
ATOM     12  O   UNL     1       5.527  -5.261   1.743  0.00  0.00    -0.269 OA
ATOM     13  N   UNL     1       4.776  -3.943   3.352  0.00  0.00    -0.255 N 
ATOM     14  C   UNL     1       3.841  -3.077   3.801  0.00  0.00    +0.121 C 
ATOM     15  S   UNL     1       3.760  -2.271   5.309  0.00  0.00    -0.027 S 
ATOM     16  S   UNL     1       2.713  -2.981   2.419  0.00  0.00    -0.061 S 
BRANCH  13  17
ATOM     17  C   UNL     1       5.908  -4.292   4.213  0.00  0.00    +0.117 C 
BRANCH  17  18
ATOM     18  C   UNL     1       7.058  -3.314   3.965  0.00  0.00    +0.047 C 
BRANCH  18  19
ATOM     19  C   UNL     1       8.241  -3.679   4.865  0.00  0.00    +0.161 C 
BRANCH  19  20
ATOM     20  O   UNL     1       9.315  -2.766   4.633  0.00  0.00    -0.383 OA
ATOM     21  C   UNL     1      10.476  -3.020   5.428  0.00  0.00    +0.193 C 
ENDBRANCH  19  20
ENDBRANCH  18  19
ENDBRANCH  17  18
ENDBRANCH  13  17
ENDBRANCH   3   9
BRANCH   5  22
ATOM     22  C   UNL     1      -1.091  -4.898  -2.257  0.00  0.00    +0.105 C 
ATOM     23  N   UNL     1      -1.951  -5.524  -2.655  0.00  0.00    -0.191 NA
ENDBRANCH   5  22
BRANCH   2  24
ATOM     24  N   UNL     1       3.074  -1.739  -0.349  0.00  0.00    -0.326 N 
ATOM     25  H   UNL     1       3.003  -1.319   0.523  0.00  0.00    +0.148 HD
BRANCH  24  26
ATOM     26  C   UNL     1       4.270  -1.530  -1.168  0.00  0.00    +0.138 C 
BRANCH  26  27
ATOM     27  C   UNL     1       5.269  -0.706  -0.397  0.00  0.00    -0.030 A 
ATOM     28  C   UNL     1       5.242   0.674  -0.487  0.00  0.00    +0.009 A 
ATOM     29  C   UNL     1       6.157   1.431   0.218  0.00  0.00    +0.046 A 
ATOM     30  C   UNL     1       7.103   0.807   1.018  0.00  0.00    +0.120 A 
ATOM     31  C   UNL     1       7.128  -0.577   1.106  0.00  0.00    +0.046 A 
ATOM     32  C   UNL     1       6.208  -1.330   0.403  0.00  0.00    +0.009 A 
BRANCH  30  33
ATOM     33  O   UNL     1       8.004   1.550   1.712  0.00  0.00    -0.495 OA
ATOM     34  C   UNL     1       8.950   0.840   2.515  0.00  0.00    +0.277 C 
ENDBRANCH  30  33
ENDBRANCH  26  27
ENDBRANCH  24  26
ENDBRANCH   2  24
BRANCH   1  35
ATOM     35  C   UNL     1       0.981  -0.501  -1.647  0.00  0.00    +0.126 C 
BRANCH  35  37
ATOM     36  C   UNL     1       0.470   1.684  -0.550  0.00  0.00    +0.005 C 
ATOM     37  C   UNL     1       0.386   0.164  -0.404  0.00  0.00    +0.018 C 
ENDBRANCH  35  37
ENDBRANCH   1  35
TORSDOF 12
