REMARK  Name = ZINC04909503
REMARK  2 active torsions:
REMARK  status: ('A' for Active; 'I' for Inactive)
REMARK    1  A    between atoms: C_4  and  N_7
REMARK    2  A    between atoms: C_13  and  C_15
REMARK                            x       y       z     vdW  Elec       q    Type
REMARK                         _______ _______ _______ _____ _____    ______ ____
ROOT
ATOM      1  N   UNL     1       3.441  -0.690   1.583  0.00  0.00    -0.327 N 
ATOM      2  C   UNL     1       4.508   0.047   0.891  0.00  0.00    +0.124 C 
ATOM      3  C   UNL     1       5.850  -0.307   1.542  0.00  0.00    +0.127 C 
ATOM      4  N   UNL     1       5.952  -1.770   1.643  0.00  0.00    -0.294 N 
ATOM      5  C   UNL     1       4.885  -2.507   2.336  0.00  0.00    +0.127 C 
ATOM      6  C   UNL     1       3.545  -2.152   1.689  0.00  0.00    +0.124 C 
ATOM      7  C   UNL     1       7.003  -2.423   1.111  0.00  0.00    +0.253 C 
ATOM      8  O   UNL     1       7.935  -1.796   0.642  0.00  0.00    -0.269 OA
ENDROOT
BRANCH   7   9
ATOM      9  C   UNL     1       7.025  -3.887   1.098  0.00  0.00    +0.075 A 
ATOM     10  C   UNL     1       8.115  -4.744   1.181  0.00  0.00    +0.028 A 
ATOM     11  C   UNL     1       7.914  -6.098   1.151  0.00  0.00    +0.005 A 
ATOM     12  C   UNL     1       6.582  -6.525   1.038  0.00  0.00    +0.030 A 
ATOM     13  S   UNL     1       5.654  -5.030   0.977  0.00  0.00    -0.083 S 
ATOM     14  C   UNL     1       6.215  -7.935   1.004  0.00  0.00    +0.031 A 
ATOM     15  C   UNL     1       4.964  -8.403   0.633  0.00  0.00    +0.012 A 
ATOM     16  C   UNL     1       4.720  -9.764   0.618  0.00  0.00    +0.001 A 
ATOM     17  C   UNL     1       5.721 -10.653   0.971  0.00  0.00    +0.004 A 
ATOM     18  C   UNL     1       6.970 -10.196   1.348  0.00  0.00    +0.046 A 
ATOM     19  C   UNL     1       7.234  -8.839   1.378  0.00  0.00    +0.129 A 
ATOM     20  O   UNL     1       8.433  -8.363   1.786  0.00  0.00    -0.487 OA
ATOM     21  C   UNL     1       8.991  -7.175   1.225  0.00  0.00    +0.265 C 
ENDBRANCH   7   9
BRANCH   1  25
ATOM     22  C   UNL     1       0.192   1.328   3.228  0.00  0.00    +0.000 A 
ATOM     23  C   UNL     1       0.217  -0.054   3.228  0.00  0.00    +0.002 A 
ATOM     24  C   UNL     1       1.294  -0.727   2.683  0.00  0.00    +0.023 A 
ATOM     25  C   UNL     1       2.351  -0.013   2.134  0.00  0.00    +0.030 A 
ATOM     26  C   UNL     1       2.322   1.375   2.135  0.00  0.00    +0.023 A 
ATOM     27  C   UNL     1       1.243   2.042   2.682  0.00  0.00    +0.002 A 
ENDBRANCH   1  25
TORSDOF 2
