REMARK  Name = ZINC39709868
REMARK  11 active torsions:
REMARK  status: ('A' for Active; 'I' for Inactive)
REMARK    1  A    between atoms: C_1  and  C_2
REMARK    2  A    between atoms: C_2  and  C_3
REMARK    3  A    between atoms: C_8  and  C_12
REMARK    4  A    between atoms: C_12  and  C_14
REMARK    5  A    between atoms: C_14  and  S_15
REMARK    6  A    between atoms: S_15  and  C_16
REMARK    7  A    between atoms: C_20  and  C_28
REMARK    8  A    between atoms: N_22  and  C_23
REMARK    9  A    between atoms: C_23  and  C_24
REMARK   10  A    between atoms: C_24  and  C_25
REMARK   11  A    between atoms: C_32  and  C_34
REMARK                            x       y       z     vdW  Elec       q    Type
REMARK                         _______ _______ _______ _____ _____    ______ ____
ROOT
ATOM      1  C   UNL     1      -1.684  -2.403   9.496  0.00  0.00    +0.077 C 
ATOM      2  N   UNL     1      -2.855  -3.154   8.991  0.00  0.00    -0.262 NA
ATOM      3  N   UNL     1      -4.017  -2.417   9.513  0.00  0.00    -0.267 NA
ATOM      4  C   UNL     1      -3.588  -0.998   9.412  0.00  0.00    +0.049 C 
ATOM      5  N   UNL     1      -2.149  -1.026   9.765  0.00  0.00    +0.411 N 
ATOM      6  H   UNL     1      -2.864  -3.174   7.982  0.00  0.00    +0.140 HD
ATOM      7  H   UNL     1      -4.837  -2.589   8.950  0.00  0.00    +0.139 HD
ATOM      8  H   UNL     1      -2.027  -0.804  10.742  0.00  0.00    -0.075 HD
ENDROOT
BRANCH   4   9
ATOM      9  C   UNL     1      -4.356  -0.144  10.388  0.00  0.00    -0.046 A 
ATOM     10  C   UNL     1      -3.764   0.975  10.944  0.00  0.00    +0.003 A 
ATOM     11  C   UNL     1      -4.468   1.758  11.838  0.00  0.00    +0.001 A 
ATOM     12  C   UNL     1      -5.766   1.422  12.178  0.00  0.00    +0.003 A 
ATOM     13  C   UNL     1      -6.359   0.305  11.622  0.00  0.00    -0.050 A 
ATOM     14  C   UNL     1      -5.656  -0.476  10.723  0.00  0.00    +0.006 A 
ATOM     15  C   UNL     1      -7.773  -0.061  11.992  0.00  0.00    +0.044 C 
ENDBRANCH   4   9
BRANCH   1  16
ATOM     16  S   UNL     1      -0.371  -2.382   8.245  0.00  0.00    -0.152 S 
BRANCH  16  17
ATOM     17  C   UNL     1       0.397  -4.019   8.387  0.00  0.00    +0.148 C 
BRANCH  17  18
ATOM     18  C   UNL     1       1.450  -4.174   7.320  0.00  0.00    +0.171 C 
ATOM     19  O   UNL     1       1.662  -3.268   6.540  0.00  0.00    -0.291 OA
BRANCH  18  25
ATOM     20  C   UNL     1       4.754  -7.567   5.733  0.00  0.00    -0.024 A 
ATOM     21  C   UNL     1       5.234  -6.793   4.737  0.00  0.00    +0.005 A 
ATOM     22  C   UNL     1       4.742  -5.500   4.497  0.00  0.00    +0.001 A 
ATOM     23  C   UNL     1       3.759  -4.948   5.244  0.00  0.00    +0.010 A 
ATOM     24  C   UNL     1       3.185  -5.673   6.315  0.00  0.00    +0.006 A 
ATOM     25  C   UNL     1       2.191  -5.372   7.228  0.00  0.00    +0.024 C 
ATOM     26  C   UNL     1       2.064  -6.595   8.109  0.00  0.00    +0.152 C 
ATOM     27  N   UNL     1       3.048  -7.560   7.608  0.00  0.00    -0.380 N 
ATOM     28  C   UNL     1       3.678  -7.044   6.591  0.00  0.00    +0.046 A 
ATOM     29  H   UNL     1       3.202  -8.445   7.973  0.00  0.00    +0.160 HD
BRANCH  20  31
ATOM     30  C   UNL     1       4.435  -9.975   5.232  0.00  0.00    +0.009 C 
ATOM     31  C   UNL     1       5.308  -8.951   5.960  0.00  0.00    +0.034 C 
ENDBRANCH  20  31
ENDBRANCH  18  25
ENDBRANCH  17  18
ENDBRANCH  16  17
ENDBRANCH   1  16
BRANCH   5  32
ATOM     32  C   UNL     1      -1.406  -0.071   8.933  0.00  0.00    -0.061 C 
BRANCH  32  33
ATOM     33  C   UNL     1       0.027   0.053   9.454  0.00  0.00    +0.107 C 
BRANCH  33  34
ATOM     34  C   UNL     1       0.828   0.922   8.519  0.00  0.00    +0.354 C 
ATOM     35  O   UNL     1       0.302   1.398   7.527  0.00  0.00    -0.246 OA
ATOM     36  O   UNL     1       2.003   1.149   8.754  0.00  0.00    -0.246 OA
ENDBRANCH  33  34
ENDBRANCH  32  33
ENDBRANCH   5  32
TORSDOF 9
