REMARK  Name = ZINC38918051
REMARK  5 active torsions:
REMARK  status: ('A' for Active; 'I' for Inactive)
REMARK    1  A    between atoms: C_3  and  C_9
REMARK    2  A    between atoms: C_4  and  O_8
REMARK    3  A    between atoms: C_6  and  O_7
REMARK    4  A    between atoms: N_10  and  N_11
REMARK    5  A    between atoms: C_12  and  C_18
REMARK                            x       y       z     vdW  Elec       q    Type
REMARK                         _______ _______ _______ _____ _____    ______ ____
ROOT
ATOM      1  C   UNL     1       3.672   2.169   0.193  0.00  0.00    +0.142 C 
ATOM      2  N   UNL     1       4.785   1.538  -0.036  0.00  0.00    -0.183 NA
ENDROOT
BRANCH   1   5
ATOM      3  C   UNL     1       0.002   1.427   0.400  0.00  0.00    +0.046 A 
ATOM      4  C   UNL     1       1.196   2.114   0.419  0.00  0.00    +0.016 A 
ATOM      5  C   UNL     1       2.394   1.438   0.174  0.00  0.00    +0.036 A 
ATOM      6  C   UNL     1       2.374   0.061  -0.091  0.00  0.00    +0.129 A 
ATOM      7  C   UNL     1       1.169  -0.618  -0.108  0.00  0.00    +0.091 A 
ATOM      8  C   UNL     1      -0.016   0.062   0.137  0.00  0.00    +0.120 A 
BRANCH   8   9
ATOM      9  O   UNL     1      -1.197  -0.608   0.120  0.00  0.00    -0.507 OA
ATOM     10  H   UNL     1      -1.622  -0.635  -0.748  0.00  0.00    +0.292 HD
ENDBRANCH   8   9
BRANCH   6  11
ATOM     11  O   UNL     1       3.533  -0.604  -0.332  0.00  0.00    -0.506 OA
ATOM     12  H   UNL     1       3.952  -0.964   0.462  0.00  0.00    +0.292 HD
ENDBRANCH   6  11
ENDBRANCH   1   5
BRANCH   2  13
ATOM     13  N   UNL     1       5.984   2.252  -0.150  0.00  0.00    -0.175 N 
ATOM     14  C   UNL     1       7.350   1.711  -0.290  0.00  0.00    +0.239 C 
ATOM     15  N   UNL     1       8.191   2.917  -0.365  0.00  0.00    -0.171 NA
ATOM     16  N   UNL     1       7.450   3.900  -0.283  0.00  0.00    -0.097 NA
ATOM     17  C   UNL     1       6.153   3.592  -0.161  0.00  0.00    +0.198 C 
ATOM     18  S   UNL     1       4.886   4.737  -0.035  0.00  0.00    -0.013 S 
BRANCH  14  19
ATOM     19  C   UNL     1       7.473   0.884  -1.572  0.00  0.00    +0.035 C 
ATOM     20  C   UNL     1       6.481  -0.280  -1.525  0.00  0.00    +0.007 C 
ATOM     21  C   UNL     1       6.603  -1.106  -2.807  0.00  0.00    +0.000 C 
ATOM     22  C   UNL     1       8.027  -1.654  -2.927  0.00  0.00    +0.000 C 
ATOM     23  C   UNL     1       9.019  -0.490  -2.974  0.00  0.00    +0.000 C 
ATOM     24  C   UNL     1       8.896   0.337  -1.692  0.00  0.00    +0.007 C 
ENDBRANCH  14  19
ENDBRANCH   2  13
TORSDOF 5
