REMARK  Name = ZINC54670580
REMARK  4 active torsions:
REMARK  status: ('A' for Active; 'I' for Inactive)
REMARK    1  A    between atoms: N_4  and  C_19
REMARK    2  A    between atoms: C_5  and  N_6
REMARK    3  A    between atoms: C_7  and  C_9
REMARK    4  A    between atoms: C_9  and  N_10
REMARK                            x       y       z     vdW  Elec       q    Type
REMARK                         _______ _______ _______ _____ _____    ______ ____
ROOT
ATOM      1  N   UNL     1      -1.112  -0.843   0.009  0.00  0.00    -0.270 N 
ATOM      2  C   UNL     1      -2.352  -0.317   0.023  0.00  0.00    +0.232 C 
ATOM      3  O   UNL     1      -2.500   0.887   0.031  0.00  0.00    -0.274 OA
ATOM      4  H   UNL     1      -0.994  -1.806   0.003  0.00  0.00    +0.156 HD
ENDROOT
BRANCH   1   9
ATOM      5  C   UNL     1      -0.016   1.357   0.009  0.00  0.00    +0.065 A 
ATOM      6  C   UNL     1       1.308   1.803  -0.001  0.00  0.00    +0.136 A 
ATOM      7  N   UNL     1       2.094   0.757  -0.014  0.00  0.00    -0.178 NA
ATOM      8  N   UNL     1       1.297  -0.395  -0.012  0.00  0.00    -0.247 N 
ATOM      9  C   UNL     1       0.002  -0.004   0.002  0.00  0.00    +0.123 A 
BRANCH   8  10
ATOM     10  C   UNL     1       1.780  -1.778  -0.025  0.00  0.00    +0.109 C 
ATOM     11  C   UNL     1       2.707  -2.024   1.184  0.00  0.00    +0.027 C 
ATOM     12  C   UNL     1       3.808  -2.965   0.632  0.00  0.00    +0.002 C 
ATOM     13  C   UNL     1       4.036  -2.421  -0.800  0.00  0.00    +0.002 C 
ATOM     14  C   UNL     1       2.625  -2.030  -1.286  0.00  0.00    +0.027 C 
ENDBRANCH   8  10
ENDBRANCH   1   9
BRANCH   2  15
ATOM     15  C   UNL     1      -3.556  -1.224   0.030  0.00  0.00    +0.181 C 
BRANCH  15  16
ATOM     16  N   UNL     1      -4.780  -0.412   0.046  0.00  0.00    -0.289 NA
ATOM     17  C   UNL     1      -5.960  -1.244   0.324  0.00  0.00    +0.090 C 
ATOM     18  C   UNL     1      -7.125  -0.329   0.736  0.00  0.00    +0.058 C 
ATOM     19  C   UNL     1      -7.183   0.802  -0.239  0.00  0.00    -0.005 A 
ATOM     20  C   UNL     1      -6.220   1.151  -1.137  0.00  0.00    -0.023 A 
ATOM     21  C   UNL     1      -6.497   2.246  -1.952  0.00  0.00    +0.013 A 
ATOM     22  C   UNL     1      -7.673   2.904  -1.825  0.00  0.00    +0.046 A 
ATOM     23  S   UNL     1      -8.470   1.986  -0.515  0.00  0.00    -0.101 S 
ATOM     24  C   UNL     1      -4.924   0.349  -1.202  0.00  0.00    +0.120 C 
ENDBRANCH  15  16
ENDBRANCH   2  15
TORSDOF 4
