REMARK  Name = ZINC60186149
REMARK  8 active torsions:
REMARK  status: ('A' for Active; 'I' for Inactive)
REMARK    1  A    between atoms: C_1  and  C_2
REMARK    2  A    between atoms: C_7  and  C_9
REMARK    3  A    between atoms: C_7  and  C_10
REMARK    4  A    between atoms: N_13  and  C_17
REMARK    5  A    between atoms: C_17  and  C_18
REMARK    6  A    between atoms: N_20  and  C_21
REMARK    7  A    between atoms: N_24  and  C_27
REMARK    8  A    between atoms: C_27  and  C_28
REMARK                            x       y       z     vdW  Elec       q    Type
REMARK                         _______ _______ _______ _____ _____    ______ ____
ROOT
ATOM      1  C   UNL     1      -1.434  -3.599  -3.246  0.00  0.00    +0.213 C 
ENDROOT
BRANCH   1  13
ATOM      2  C   UNL     1      -0.335   2.218  -0.016  0.00  0.00    +0.007 C 
ATOM      3  C   UNL     1      -0.198   0.693   0.003  0.00  0.00    -0.011 C 
ATOM      4  C   UNL     1       0.568   0.240  -1.242  0.00  0.00    +0.038 C 
ATOM      5  C   UNL     1       0.669  -1.279  -1.258  0.00  0.00    +0.113 C 
ATOM      6  C   UNL     1       1.261  -1.845   0.017  0.00  0.00    +0.041 C 
ATOM      7  C   UNL     1       0.732  -1.246   1.308  0.00  0.00    -0.032 C 
ATOM      8  C   UNL     1       0.593   0.271   1.239  0.00  0.00    +0.009 C 
ATOM      9  C   UNL     1      -0.609  -1.879   1.691  0.00  0.00    +0.011 C 
ATOM     10  C   UNL     1       1.736  -1.575   2.434  0.00  0.00    +0.011 C 
ATOM     11  C   UNL     1      -0.662  -1.904  -1.595  0.00  0.00    +0.247 C 
ATOM     12  O   UNL     1      -1.732  -1.728  -1.052  0.00  0.00    -0.273 OA
ATOM     13  N   UNL     1      -0.435  -2.699  -2.663  0.00  0.00    -0.215 N 
ATOM     14  C   UNL     1       0.814  -2.559  -3.121  0.00  0.00    +0.310 C 
ATOM     15  O   UNL     1       1.252  -3.160  -4.083  0.00  0.00    -0.252 OA
ATOM     16  N   UNL     1       1.529  -1.684  -2.394  0.00  0.00    -0.285 N 
ATOM     17  H   UNL     1       2.428  -1.369  -2.566  0.00  0.00    +0.151 HD
ENDBRANCH   1  13
BRANCH   1  18
ATOM     18  C   UNL     1      -2.209  -2.867  -4.311  0.00  0.00    +0.231 C 
ATOM     19  O   UNL     1      -1.952  -1.708  -4.560  0.00  0.00    -0.274 OA
ATOM     20  N   UNL     1      -3.187  -3.501  -4.988  0.00  0.00    -0.311 N 
ATOM     21  H   UNL     1      -3.392  -4.428  -4.789  0.00  0.00    +0.149 HD
BRANCH  20  22
ATOM     22  C   UNL     1      -3.940  -2.790  -6.024  0.00  0.00    +0.069 C 
ATOM     23  C   UNL     1      -5.098  -2.023  -5.379  0.00  0.00    +0.003 C 
ATOM     24  C   UNL     1      -5.928  -1.347  -6.473  0.00  0.00    -0.077 C 
ATOM     25  N   UNL     1      -6.461  -2.366  -7.386  0.00  0.00    +0.380 N 
ATOM     26  C   UNL     1      -5.357  -3.057  -8.062  0.00  0.00    -0.077 C 
ATOM     27  C   UNL     1      -4.505  -3.798  -7.029  0.00  0.00    +0.003 C 
ATOM     28  H   UNL     1      -7.005  -3.035  -6.862  0.00  0.00    -0.082 HD
BRANCH  25  29
ATOM     29  C   UNL     1      -7.320  -1.720  -8.389  0.00  0.00    -0.075 C 
BRANCH  29  30
ATOM     30  C   UNL     1      -8.557  -1.139  -7.702  0.00  0.00    -0.028 C 
ATOM     31  C   UNL     1      -9.439  -2.278  -7.149  0.00  0.00    +0.002 C 
ATOM     32  C   UNL     1     -10.888  -1.784  -7.382  0.00  0.00    +0.000 C 
ATOM     33  C   UNL     1     -10.791  -1.077  -8.756  0.00  0.00    +0.000 C 
ATOM     34  C   UNL     1      -9.417  -0.375  -8.724  0.00  0.00    +0.002 C 
ENDBRANCH  29  30
ENDBRANCH  25  29
ENDBRANCH  20  22
ENDBRANCH   1  18
TORSDOF 5
