REMARK  Name = ZINC27823046
REMARK  10 active torsions:
REMARK  status: ('A' for Active; 'I' for Inactive)
REMARK    1  A    between atoms: C_1  and  C_2
REMARK    2  A    between atoms: C_2  and  N_3
REMARK    3  A    between atoms: C_12  and  S_13
REMARK    4  A    between atoms: S_13  and  C_14
REMARK    5  A    between atoms: C_14  and  C_15
REMARK    6  A    between atoms: N_17  and  C_18
REMARK    7  A    between atoms: C_19  and  C_29
REMARK    8  A    between atoms: C_24  and  C_28
REMARK    9  A    between atoms: C_29  and  O_31
REMARK   10  A    between atoms: O_31  and  C_32
REMARK                            x       y       z     vdW  Elec       q    Type
REMARK                         _______ _______ _______ _____ _____    ______ ____
ROOT
ATOM      1  C   UNL     1      -1.240  -3.214   3.521  0.00  0.00    +0.228 C 
ATOM      2  O   UNL     1      -1.289  -4.407   3.312  0.00  0.00    -0.275 OA
ATOM      3  N   UNL     1      -1.221  -2.349   2.488  0.00  0.00    -0.279 N 
ATOM      4  H   UNL     1      -1.176  -1.266   2.678  0.00  0.00    +0.155 HD
ENDROOT
BRANCH   3   5
ATOM      5  C   UNL     1      -1.259  -2.822   1.186  0.00  0.00    +0.086 A 
ATOM      6  C   UNL     1      -1.248  -2.096   0.003  0.00  0.00    +0.091 A 
ATOM      7  C   UNL     1      -1.289  -2.843  -1.244  0.00  0.00    -0.021 A 
ATOM      8  C   UNL     1      -1.340  -4.185  -1.108  0.00  0.00    -0.004 A 
ATOM      9  S   UNL     1      -1.334  -4.465   0.640  0.00  0.00    -0.077 S 
ATOM     10  C   UNL     1      -1.391  -5.203  -2.206  0.00  0.00    +0.046 C 
ATOM     11  C   UNL     1      -1.755  -4.485  -3.514  0.00  0.00    -0.009 C 
ATOM     12  C   UNL     1      -0.871  -3.243  -3.657  0.00  0.00    +0.008 C 
ATOM     13  C   UNL     1      -1.276  -2.193  -2.622  0.00  0.00    +0.037 C 
ATOM     14  C   UNL     1      -1.520  -5.425  -4.698  0.00  0.00    +0.008 C 
BRANCH   6  15
ATOM     15  C   UNL     1      -1.191  -0.633   0.010  0.00  0.00    +0.342 C 
ATOM     16  O   UNL     1      -2.220   0.016   0.023  0.00  0.00    -0.245 OA
BRANCH  15  17
ATOM     17  O   UNL     1       0.002  -0.004   0.002  0.00  0.00    -0.464 OA
ATOM     18  C   UNL     1      -0.018   1.448   0.010  0.00  0.00    +0.280 C 
ENDBRANCH  15  17
ENDBRANCH   6  15
ENDBRANCH   3   5
BRANCH   1  19
ATOM     19  C   UNL     1      -1.198  -2.699   4.937  0.00  0.00    +0.173 C 
BRANCH  19  20
ATOM     20  S   UNL     1      -1.236  -4.095   6.088  0.00  0.00    -0.078 S 
BRANCH  20  30
ATOM     21  N   UNL     1      -1.190  -3.951   8.780  0.00  0.00    -0.287 N 
ATOM     22  C   UNL     1      -1.147  -3.298   9.967  0.00  0.00    +0.269 A 
ATOM     23  O   UNL     1      -1.155  -3.913  11.020  0.00  0.00    -0.266 OA
ATOM     24  C   UNL     1      -1.092  -1.907   9.952  0.00  0.00    +0.102 A 
ATOM     25  C   UNL     1      -1.081  -1.183   8.746  0.00  0.00    +0.086 A 
ATOM     26  C   UNL     1      -1.024   0.212   8.881  0.00  0.00    +0.036 A 
ATOM     27  C   UNL     1      -0.984   0.775  10.107  0.00  0.00    +0.048 A 
ATOM     28  S   UNL     1      -1.023  -0.642  11.193  0.00  0.00    -0.090 S 
ATOM     29  N   UNL     1      -1.123  -1.924   7.599  0.00  0.00    -0.222 NA
ATOM     30  C   UNL     1      -1.179  -3.228   7.621  0.00  0.00    +0.173 A 
BRANCH  21  32
ATOM     31  C   UNL     1       0.172  -5.981   8.705  0.00  0.00    +0.027 C 
ATOM     32  C   UNL     1      -1.249  -5.414   8.741  0.00  0.00    +0.124 C 
ENDBRANCH  21  32
ENDBRANCH  20  30
ENDBRANCH  19  20
ENDBRANCH   1  19
TORSDOF 7
