REMARK  Name = ZINC24945939
REMARK  6 active torsions:
REMARK  status: ('A' for Active; 'I' for Inactive)
REMARK    1  A    between atoms: C_1  and  C_2
REMARK    2  A    between atoms: C_7  and  S_31
REMARK    3  A    between atoms: C_12  and  C_14
REMARK    4  A    between atoms: C_14  and  N_15
REMARK    5  A    between atoms: C_23  and  C_25
REMARK    6  A    between atoms: S_31  and  N_34
REMARK                            x       y       z     vdW  Elec       q    Type
REMARK                         _______ _______ _______ _____ _____    ______ ____
ROOT
ATOM      1  C   UNL     1      -4.230   2.728   1.933  0.00  0.00    +0.029 C 
ATOM      2  C   UNL     1      -3.508   2.544   0.597  0.00  0.00    +0.083 C 
ATOM      3  C   UNL     1      -2.647   1.271   0.625  0.00  0.00    +0.059 C 
ATOM      4  C   UNL     1      -1.234   1.761   0.403  0.00  0.00    -0.022 A 
ATOM      5  C   UNL     1      -0.037   1.075   0.338  0.00  0.00    +0.034 A 
ATOM      6  C   UNL     1       1.145   1.760   0.129  0.00  0.00    +0.105 A 
ATOM      7  C   UNL     1       1.128   3.136  -0.009  0.00  0.00    +0.030 A 
ATOM      8  C   UNL     1      -0.064   3.826   0.061  0.00  0.00    +0.026 A 
ATOM      9  C   UNL     1      -1.262   3.140   0.272  0.00  0.00    +0.040 A 
ATOM     10  N   UNL     1      -2.563   3.642   0.374  0.00  0.00    -0.270 N 
ATOM     11  C   UNL     1      -2.900   4.944   0.281  0.00  0.00    +0.204 C 
ATOM     12  O   UNL     1      -4.061   5.279   0.383  0.00  0.00    -0.277 OA
ENDROOT
BRANCH   6  13
ATOM     13  S   UNL     1       2.671   0.883   0.038  0.00  0.00    +0.056 S 
ATOM     14  O   UNL     1       3.693   1.809   0.382  0.00  0.00    -0.153 OA
ATOM     15  O   UNL     1       2.480  -0.337   0.742  0.00  0.00    -0.153 OA
BRANCH  13  16
ATOM     16  N   UNL     1       2.911   0.481  -1.550  0.00  0.00    -0.204 NA
ATOM     17  H   UNL     1       3.857  -0.071  -1.650  0.00  0.00    +0.144 HD
ATOM     18  H   UNL     1       2.954   1.397  -2.158  0.00  0.00    +0.144 HD
ENDBRANCH  13  16
ENDBRANCH   6  13
BRANCH  11  19
ATOM     19  C   UNL     1      -1.833   5.982   0.049  0.00  0.00    +0.020 C 
BRANCH  19  20
ATOM     20  N   UNL     1      -2.456   7.308  -0.060  0.00  0.00    +0.393 N 
ATOM     21  C   UNL     1      -3.416   7.349  -1.172  0.00  0.00    -0.072 C 
ATOM     22  C   UNL     1      -3.725   8.819  -1.507  0.00  0.00    +0.024 C 
ATOM     23  C   UNL     1      -3.992   9.532  -0.221  0.00  0.00    -0.010 A 
ATOM     24  C   UNL     1      -3.718   9.077   1.034  0.00  0.00    -0.047 A 
ATOM     25  C   UNL     1      -4.059   9.919   2.089  0.00  0.00    +0.010 A 
ATOM     26  C   UNL     1      -4.631  11.120   1.839  0.00  0.00    +0.045 A 
ATOM     27  S   UNL     1      -4.719  11.122   0.054  0.00  0.00    -0.101 S 
ATOM     28  C   UNL     1      -3.069   7.708   1.213  0.00  0.00    -0.005 C 
ATOM     29  H   UNL     1      -1.668   8.043  -0.284  0.00  0.00    -0.080 HD
BRANCH  28  30
ATOM     30  C   UNL     1      -2.009   7.787   2.282  0.00  0.00    -0.057 A 
ATOM     31  C   UNL     1      -0.764   8.310   1.984  0.00  0.00    +0.002 A 
ATOM     32  C   UNL     1       0.206   8.386   2.965  0.00  0.00    +0.000 A 
ATOM     33  C   UNL     1      -0.064   7.931   4.242  0.00  0.00    +0.000 A 
ATOM     34  C   UNL     1      -1.307   7.404   4.539  0.00  0.00    +0.000 A 
ATOM     35  C   UNL     1      -2.279   7.331   3.559  0.00  0.00    +0.002 A 
ENDBRANCH  28  30
ENDBRANCH  19  20
ENDBRANCH  11  19
TORSDOF 5
