REMARK  Name = ZINC09176545
REMARK  15 active torsions:
REMARK  status: ('A' for Active; 'I' for Inactive)
REMARK    1  A    between atoms: C_1  and  C_2
REMARK    2  A    between atoms: C_2  and  N_63
REMARK    3  A    between atoms: C_3  and  C_4
REMARK    4  A    between atoms: C_3  and  N_63
REMARK    5  A    between atoms: C_5  and  C_6
REMARK    6  A    between atoms: C_5  and  N_63
REMARK    7  A    between atoms: C_6  and  C_7
REMARK    8  A    between atoms: C_7  and  N_8
REMARK    9  A    between atoms: C_9  and  C_25
REMARK   10  A    between atoms: C_12  and  C_13
REMARK   11  A    between atoms: C_12  and  O_20
REMARK   12  A    between atoms: C_14  and  C_19
REMARK   13  A    between atoms: C_16  and  C_18
REMARK   14  A    between atoms: C_28  and  O_31
REMARK   15  A    between atoms: O_31  and  C_32
REMARK                            x       y       z     vdW  Elec       q    Type
REMARK                         _______ _______ _______ _____ _____    ______ ____
ROOT
ATOM      1  N   UNL     1       5.997   2.388  -2.692  0.00  0.00    -0.284 N 
ATOM      2  C   UNL     1       5.658   1.662  -1.464  0.00  0.00    +0.144 C 
ATOM      3  C   UNL     1       6.861   1.766  -0.556  0.00  0.00    +0.072 C 
ATOM      4  C   UNL     1       6.993   1.227   0.716  0.00  0.00    +0.141 C 
ATOM      5  C   UNL     1       7.814   2.514  -1.254  0.00  0.00    +0.249 C 
ATOM      6  O   UNL     1       8.923   2.814  -0.848  0.00  0.00    -0.282 OA
ATOM      7  C   UNL     1       7.241   2.882  -2.575  0.00  0.00    +0.288 C 
ATOM      8  O   UNL     1       7.814   3.534  -3.425  0.00  0.00    -0.266 OA
ENDROOT
BRANCH   4   9
ATOM      9  C   UNL     1       8.228   1.328   1.404  0.00  0.00    +0.077 A 
ATOM     10  C   UNL     1       8.543   2.015   2.574  0.00  0.00    +0.056 A 
ATOM     11  N   UNL     1       9.776   1.944   3.003  0.00  0.00    -0.249 NA
ATOM     12  C   UNL     1      10.696   1.252   2.364  0.00  0.00    +0.076 A 
ATOM     13  S   UNL     1       9.815   0.602   1.016  0.00  0.00    -0.069 S 
ATOM     14  C   UNL     1      12.149   1.067   2.716  0.00  0.00    +0.073 C 
ATOM     15  C   UNL     1       7.501   2.811   3.317  0.00  0.00    +0.067 C 
ENDBRANCH   4   9
BRANCH   2  16
ATOM     16  C   UNL     1       4.457   2.292  -0.806  0.00  0.00    -0.022 A 
ATOM     17  C   UNL     1       3.498   1.494  -0.211  0.00  0.00    +0.009 A 
ATOM     18  C   UNL     1       2.397   2.070   0.393  0.00  0.00    +0.046 A 
ATOM     19  C   UNL     1       2.254   3.450   0.400  0.00  0.00    +0.120 A 
ATOM     20  C   UNL     1       3.217   4.248  -0.198  0.00  0.00    +0.046 A 
ATOM     21  C   UNL     1       4.317   3.668  -0.800  0.00  0.00    +0.009 A 
BRANCH  19  22
ATOM     22  O   UNL     1       1.168   4.018   0.988  0.00  0.00    -0.495 OA
ATOM     23  C   UNL     1       1.087   5.444   0.959  0.00  0.00    +0.277 C 
ENDBRANCH  19  22
ENDBRANCH   2  16
BRANCH   4  24
ATOM     24  O   UNL     1       5.943   0.607   1.300  0.00  0.00    -0.505 OA
ATOM     25  H   UNL     1       6.211   0.281   2.206  0.00  0.00    +0.292 HD
ENDBRANCH   4  24
BRANCH   1  26
ATOM     26  C   UNL     1       5.122   2.549  -3.856  0.00  0.00    +0.107 C 
BRANCH  26  27
ATOM     27  C   UNL     1       4.282   3.817  -3.692  0.00  0.00    +0.000 C 
BRANCH  27  28
ATOM     28  C   UNL     1       3.369   3.985  -4.908  0.00  0.00    -0.077 C 
BRANCH  28  29
ATOM     29  N   UNL     1       2.581   5.224  -4.745  0.00  0.00    +0.379 N 
ATOM     30  H   UNL     1       3.220   6.001  -4.535  0.00  0.00    -0.082 HD
BRANCH  29  32
ATOM     31  C   UNL     1       2.827   6.145  -6.995  0.00  0.00    -0.017 C 
ATOM     32  C   UNL     1       1.850   5.527  -5.993  0.00  0.00    -0.082 C 
ENDBRANCH  29  32
BRANCH  29  33
ATOM     33  C   UNL     1       1.627   5.073  -3.625  0.00  0.00    -0.082 C 
ATOM     34  C   UNL     1       1.090   6.455  -3.246  0.00  0.00    -0.017 C 
ENDBRANCH  29  33
ENDBRANCH  28  29
ENDBRANCH  27  28
ENDBRANCH  26  27
ENDBRANCH   1  26
TORSDOF 10
