REMARK  Name = ZINC39947198
REMARK  8 active torsions:
REMARK  status: ('A' for Active; 'I' for Inactive)
REMARK    1  A    between atoms: C_1  and  C_2
REMARK    2  A    between atoms: C_2  and  C_4
REMARK    3  A    between atoms: C_2  and  N_13
REMARK    4  A    between atoms: C_14  and  C_16
REMARK    5  A    between atoms: C_16  and  S_17
REMARK    6  A    between atoms: S_17  and  C_18
REMARK    7  A    between atoms: C_22  and  C_27
REMARK    8  A    between atoms: N_23  and  C_24
REMARK                            x       y       z     vdW  Elec       q    Type
REMARK                         _______ _______ _______ _____ _____    ______ ____
ROOT
ATOM      1  C   UNL     1       0.657  -1.822   6.420  0.00  0.00    +0.237 C 
ATOM      2  N   UNL     1       1.270  -3.148   6.237  0.00  0.00    -0.237 N 
ATOM      3  N   UNL     1       2.647  -2.934   6.101  0.00  0.00    -0.169 NA
ATOM      4  C   UNL     1       2.939  -1.662   6.177  0.00  0.00    +0.147 C 
ATOM      5  N   UNL     1       1.791  -0.885   6.374  0.00  0.00    -0.282 N 
ATOM      6  H   UNL     1       0.811  -4.002   6.216  0.00  0.00    +0.171 HD
ENDROOT
BRANCH   4   7
ATOM      7  C   UNL     1       4.238  -1.142   6.077  0.00  0.00    +0.022 C 
ATOM      8  C   UNL     1       5.408  -1.844   5.784  0.00  0.00    +0.006 A 
ATOM      9  C   UNL     1       5.659  -3.206   5.512  0.00  0.00    +0.010 A 
ATOM     10  C   UNL     1       6.927  -3.618   5.254  0.00  0.00    +0.001 A 
ATOM     11  C   UNL     1       8.001  -2.725   5.251  0.00  0.00    +0.002 A 
ATOM     12  C   UNL     1       7.832  -1.403   5.505  0.00  0.00    +0.026 A 
ATOM     13  C   UNL     1       6.536  -0.898   5.782  0.00  0.00    +0.043 A 
ATOM     14  N   UNL     1       6.115   0.322   6.054  0.00  0.00    -0.380 N 
ATOM     15  C   UNL     1       4.663   0.299   6.256  0.00  0.00    +0.152 C 
ATOM     16  H   UNL     1       6.677   1.110   6.108  0.00  0.00    +0.160 HD
ENDBRANCH   4   7
BRANCH   5  17
ATOM     17  C   UNL     1       1.729   0.573   6.508  0.00  0.00    +0.078 C 
ATOM     18  C   UNL     1       0.366   1.197   6.812  0.00  0.00    +0.024 C 
ATOM     19  C   UNL     1       0.985   1.351   5.422  0.00  0.00    +0.024 C 
ENDBRANCH   5  17
BRANCH   1  20
ATOM     20  S   UNL     1      -0.510  -1.472   5.075  0.00  0.00    -0.109 S 
BRANCH  20  21
ATOM     21  C   UNL     1       0.492  -1.633   3.572  0.00  0.00    +0.168 C 
BRANCH  21  23
ATOM     22  N   UNL     1       0.168  -1.427   1.128  0.00  0.00    -0.308 N 
ATOM     23  C   UNL     1      -0.367  -1.363   2.364  0.00  0.00    +0.223 C 
ATOM     24  O   UNL     1      -1.540  -1.089   2.503  0.00  0.00    -0.275 OA
ATOM     25  H   UNL     1       1.106  -1.646   1.017  0.00  0.00    +0.149 HD
BRANCH  22  27
ATOM     26  C   UNL     1      -0.723   0.342  -0.307  0.00  0.00    +0.033 C 
ATOM     27  C   UNL     1      -0.668  -1.165  -0.046  0.00  0.00    +0.100 C 
BRANCH  27  28
ATOM     28  C   UNL     1      -0.080  -1.861  -1.246  0.00  0.00    -0.024 A 
ATOM     29  C   UNL     1       1.290  -1.883  -1.429  0.00  0.00    +0.009 A 
ATOM     30  C   UNL     1       1.834  -2.521  -2.528  0.00  0.00    +0.050 A 
ATOM     31  C   UNL     1       1.006  -3.140  -3.450  0.00  0.00    +0.166 A 
ATOM     32  C   UNL     1      -0.374  -3.119  -3.266  0.00  0.00    +0.167 A 
ATOM     33  C   UNL     1      -0.912  -2.482  -2.159  0.00  0.00    +0.055 A 
ATOM     34  O   UNL     1      -0.963  -3.790  -4.299  0.00  0.00    -0.453 OA
ATOM     35  C   UNL     1       0.042  -3.870  -5.328  0.00  0.00    +0.466 C 
ATOM     36  O   UNL     1       1.283  -3.825  -4.598  0.00  0.00    -0.453 OA
ENDBRANCH  27  28
ENDBRANCH  22  27
ENDBRANCH  21  23
ENDBRANCH  20  21
ENDBRANCH   1  20
TORSDOF 7
