REMARK  Name = ZINC19804977
REMARK  8 active torsions:
REMARK  status: ('A' for Active; 'I' for Inactive)
REMARK    1  A    between atoms: C_1  and  C_2
REMARK    2  A    between atoms: C_3  and  C_33
REMARK    3  A    between atoms: C_4  and  C_23
REMARK    4  A    between atoms: C_10  and  C_15
REMARK    5  A    between atoms: C_18  and  O_21
REMARK    6  A    between atoms: O_21  and  C_22
REMARK    7  A    between atoms: C_33  and  O_35
REMARK    8  A    between atoms: O_35  and  C_36
REMARK                            x       y       z     vdW  Elec       q    Type
REMARK                         _______ _______ _______ _____ _____    ______ ____
ROOT
ATOM      1  C   UNL     1       7.829  -4.590  -6.052  0.00  0.00    +0.061 C 
ATOM      2  C   UNL     1       6.525  -3.925  -6.410  0.00  0.00    +0.016 C 
ATOM      3  C   UNL     1       6.021  -4.068  -7.647  0.00  0.00    +0.065 C 
ATOM      4  C   UNL     1       4.729  -3.414  -8.042  0.00  0.00    +0.093 C 
ATOM      5  C   UNL     1       3.937  -3.004  -6.826  0.00  0.00    +0.024 C 
ATOM      6  C   UNL     1       4.531  -2.901  -5.618  0.00  0.00    +0.016 C 
ATOM      7  N   UNL     1       5.864  -3.181  -5.474  0.00  0.00    -0.321 N 
ATOM      8  C   UNL     1       3.748  -2.479  -4.400  0.00  0.00    +0.059 C 
ATOM      9  C   UNL     1       2.296  -2.945  -4.536  0.00  0.00    +0.032 C 
ATOM     10  C   UNL     1       1.709  -2.338  -5.814  0.00  0.00    +0.088 C 
ATOM     11  C   UNL     1       2.566  -2.737  -6.985  0.00  0.00    +0.162 C 
ATOM     12  O   UNL     1       2.064  -2.829  -8.087  0.00  0.00    -0.292 OA
ATOM     13  H   UNL     1       6.402  -2.800  -4.593  0.00  0.00    +0.152 HD
ENDROOT
BRANCH   4  14
ATOM     14  C   UNL     1       5.026  -2.193  -8.873  0.00  0.00    -0.027 A 
ATOM     15  C   UNL     1       5.647  -1.119  -8.314  0.00  0.00    +0.005 A 
ATOM     16  C   UNL     1       5.930   0.019  -9.067  0.00  0.00    +0.001 A 
ATOM     17  C   UNL     1       5.594   0.089 -10.384  0.00  0.00    +0.008 A 
ATOM     18  C   UNL     1       4.953  -1.001 -10.997  0.00  0.00    -0.018 A 
ATOM     19  C   UNL     1       4.669  -2.160 -10.232  0.00  0.00    -0.014 A 
ATOM     20  C   UNL     1       4.023  -3.248 -10.844  0.00  0.00    +0.009 A 
ATOM     21  C   UNL     1       3.688  -3.178 -12.161  0.00  0.00    +0.001 A 
ATOM     22  C   UNL     1       3.970  -2.040 -12.914  0.00  0.00    +0.001 A 
ATOM     23  C   UNL     1       4.591  -0.966 -12.355  0.00  0.00    +0.008 A 
ENDBRANCH   4  14
BRANCH   9  24
ATOM     24  C   UNL     1       1.502  -2.480  -3.343  0.00  0.00    -0.043 A 
ATOM     25  C   UNL     1       0.882  -3.405  -2.523  0.00  0.00    +0.007 A 
ATOM     26  C   UNL     1       0.153  -2.982  -1.429  0.00  0.00    +0.046 A 
ATOM     27  C   UNL     1       0.043  -1.627  -1.153  0.00  0.00    +0.120 A 
ATOM     28  C   UNL     1       0.660  -0.700  -1.980  0.00  0.00    +0.046 A 
ATOM     29  C   UNL     1       1.393  -1.129  -3.070  0.00  0.00    +0.007 A 
BRANCH  27  30
ATOM     30  O   UNL     1      -0.674  -1.208  -0.077  0.00  0.00    -0.495 OA
ATOM     31  C   UNL     1      -0.745   0.202   0.146  0.00  0.00    +0.277 C 
ENDBRANCH  27  30
ENDBRANCH   9  24
BRANCH   3  32
ATOM     32  C   UNL     1       6.721  -4.849  -8.596  0.00  0.00    +0.337 C 
ATOM     33  O   UNL     1       6.355  -5.985  -8.838  0.00  0.00    -0.245 OA
BRANCH  32  34
ATOM     34  O   UNL     1       7.794  -4.336  -9.233  0.00  0.00    -0.465 OA
ATOM     35  C   UNL     1       8.453  -5.181 -10.179  0.00  0.00    +0.280 C 
ENDBRANCH  32  34
ENDBRANCH   3  32
TORSDOF 5
