REMARK  Name = ZINC39733619
REMARK  6 active torsions:
REMARK  status: ('A' for Active; 'I' for Inactive)
REMARK    1  A    between atoms: C_4  and  C_7
REMARK    2  A    between atoms: N_9  and  N_10
REMARK    3  A    between atoms: C_11  and  C_13
REMARK    4  A    between atoms: C_13  and  S_14
REMARK    5  A    between atoms: S_14  and  C_15
REMARK    6  A    between atoms: C_20  and  C_25
REMARK                            x       y       z     vdW  Elec       q    Type
REMARK                         _______ _______ _______ _____ _____    ______ ____
ROOT
ATOM      1  S   UNL     1       5.978  -6.582  -0.091  0.00  0.00    -0.079 S 
ENDROOT
BRANCH   1   2
ATOM      2  C   UNL     1       7.592  -7.287  -0.111  0.00  0.00    +0.182 C 
ATOM      3  N   UNL     1       8.643  -6.482  -0.112  0.00  0.00    -0.151 NA
ATOM      4  C   UNL     1       9.889  -6.952  -0.126  0.00  0.00    +0.272 C 
ATOM      5  O   UNL     1      10.844  -6.189  -0.126  0.00  0.00    -0.268 OA
ATOM      6  C   UNL     1      10.094  -8.428  -0.142  0.00  0.00    +0.076 C 
ATOM      7  C   UNL     1      11.302  -9.105  -0.158  0.00  0.00    -0.009 C 
ATOM      8  C   UNL     1      11.232 -10.616  -0.171  0.00  0.00    +0.113 C 
ATOM      9  S   UNL     1       9.415 -10.891  -0.160  0.00  0.00    -0.100 S 
ATOM     10  C   UNL     1       8.894  -9.192  -0.140  0.00  0.00    +0.112 C 
ATOM     11  N   UNL     1       7.715  -8.612  -0.119  0.00  0.00    -0.217 NA
BRANCH   7  12
ATOM     12  C   UNL     1      12.527  -8.425  -0.162  0.00  0.00    +0.017 A 
ATOM     13  C   UNL     1      13.532  -8.411   0.812  0.00  0.00    +0.016 A 
ATOM     14  C   UNL     1      14.626  -7.644   0.521  0.00  0.00    +0.008 A 
ATOM     15  C   UNL     1      14.666  -6.966  -0.658  0.00  0.00    +0.046 A 
ATOM     16  S   UNL     1      13.217  -7.357  -1.412  0.00  0.00    -0.097 S 
ENDBRANCH   7  12
ENDBRANCH   1   2
BRANCH   1  17
ATOM     17  C   UNL     1       6.280  -4.793  -0.085  0.00  0.00    +0.174 C 
BRANCH  17  19
ATOM     18  N   UNL     1       4.942  -2.713  -0.060  0.00  0.00    -0.233 N 
ATOM     19  C   UNL     1       4.963  -4.061  -0.068  0.00  0.00    +0.239 C 
ATOM     20  O   UNL     1       3.923  -4.684  -0.061  0.00  0.00    -0.273 OA
ATOM     21  H   UNL     1       5.774  -2.215  -0.066  0.00  0.00    +0.173 HD
BRANCH  18  24
ATOM     22  C   UNL     1       3.696  -0.685  -0.037  0.00  0.00    +0.260 C 
ATOM     23  O   UNL     1       4.738  -0.060  -0.044  0.00  0.00    -0.269 OA
ATOM     24  N   UNL     1       3.717  -2.032  -0.045  0.00  0.00    -0.230 N 
ATOM     25  H   UNL     1       2.885  -2.531  -0.039  0.00  0.00    +0.173 HD
BRANCH  22  29
ATOM     26  C   UNL     1      -0.017   1.379   0.010  0.00  0.00    +0.000 A 
ATOM     27  C   UNL     1       1.168   2.094   0.002  0.00  0.00    +0.001 A 
ATOM     28  C   UNL     1       2.377   1.429  -0.013  0.00  0.00    +0.013 A 
ATOM     29  C   UNL     1       2.403   0.034  -0.021  0.00  0.00    +0.038 A 
ATOM     30  C   UNL     1       1.204  -0.681  -0.013  0.00  0.00    +0.013 A 
ATOM     31  C   UNL     1       0.002  -0.004   0.002  0.00  0.00    +0.001 A 
ENDBRANCH  22  29
ENDBRANCH  18  24
ENDBRANCH  17  19
ENDBRANCH   1  17
TORSDOF 6
