REMARK  Name = ZINC47172881
REMARK  6 active torsions:
REMARK  status: ('A' for Active; 'I' for Inactive)
REMARK    1  A    between atoms: C_1  and  C_2
REMARK    2  A    between atoms: C_3  and  C_10
REMARK    3  A    between atoms: C_4  and  C_7
REMARK    4  A    between atoms: C_7  and  C_8
REMARK    5  A    between atoms: C_7  and  C_9
REMARK    6  A    between atoms: N_12  and  C_13
REMARK                            x       y       z     vdW  Elec       q    Type
REMARK                         _______ _______ _______ _____ _____    ______ ____
ROOT
ATOM      1  C   UNL     1      -0.005  -0.480  -2.603  0.00  0.00    +0.250 C 
ATOM      2  O   UNL     1       1.042  -0.330  -3.204  0.00  0.00    -0.270 OA
ATOM      3  N   UNL     1      -1.178  -0.245  -3.225  0.00  0.00    -0.300 N 
ATOM      4  H   UNL     1      -2.013  -0.364  -2.746  0.00  0.00    +0.150 HD
ENDROOT
BRANCH   3   5
ATOM      5  C   UNL     1      -1.191   0.190  -4.624  0.00  0.00    +0.159 C 
ATOM      6  C   UNL     1      -2.563   0.776  -4.967  0.00  0.00    +0.032 C 
ATOM      7  C   UNL     1      -3.663   0.040  -4.225  0.00  0.00    +0.004 C 
ATOM      8  C   UNL     1      -3.841  -1.401  -4.665  0.00  0.00    +0.019 C 
ATOM      9  C   UNL     1      -2.621  -2.242  -4.285  0.00  0.00    +0.104 C 
ATOM     10  N   UNL     1      -1.619  -2.130  -5.357  0.00  0.00    -0.314 N 
ATOM     11  C   UNL     1      -0.932  -0.996  -5.528  0.00  0.00    +0.233 C 
ATOM     12  O   UNL     1      -0.104  -0.914  -6.411  0.00  0.00    -0.274 OA
ATOM     13  H   UNL     1      -1.454  -2.886  -5.943  0.00  0.00    +0.149 HD
ENDBRANCH   3   5
BRANCH   1  16
ATOM     14  C   UNL     1       0.100   1.451  -0.007  0.00  0.00    +0.070 C 
ATOM     15  C   UNL     1       0.055  -0.055  -0.014  0.00  0.00    +0.093 A 
ATOM     16  C   UNL     1       0.008  -0.917  -1.196  0.00  0.00    +0.102 A 
ATOM     17  C   UNL     1      -0.021  -2.206  -0.744  0.00  0.00    +0.152 A 
ATOM     18  O   UNL     1       0.004  -2.176   0.591  0.00  0.00    -0.358 OA
ATOM     19  N   UNL     1       0.056  -0.833   1.028  0.00  0.00    -0.083 NA
BRANCH  17  20
ATOM     20  C   UNL     1      -0.074  -3.444  -1.601  0.00  0.00    +0.052 C 
ATOM     21  C   UNL     1       1.156  -4.310  -1.322  0.00  0.00    +0.015 C 
ATOM     22  C   UNL     1      -1.341  -4.237  -1.276  0.00  0.00    +0.015 C 
ENDBRANCH  17  20
ENDBRANCH   1  16
TORSDOF 3
