REMARK  Name = ZINC14467253
REMARK  4 active torsions:
REMARK  status: ('A' for Active; 'I' for Inactive)
REMARK    1  A    between atoms: C_6  and  S_7
REMARK    2  A    between atoms: S_7  and  N_10
REMARK    3  A    between atoms: C_22  and  C_25
REMARK    4  A    between atoms: C_30  and  O_31
REMARK                            x       y       z     vdW  Elec       q    Type
REMARK                         _______ _______ _______ _____ _____    ______ ____
ROOT
ATOM      1  C   UNL     1       5.570   6.396   1.419  0.00  0.00    +0.030 A 
ATOM      2  C   UNL     1       4.574   5.443   1.502  0.00  0.00    +0.025 A 
ATOM      3  C   UNL     1       4.507   4.424   0.561  0.00  0.00    +0.031 A 
ATOM      4  C   UNL     1       5.434   4.354  -0.468  0.00  0.00    -0.018 A 
ATOM      5  C   UNL     1       6.430   5.318  -0.541  0.00  0.00    +0.034 A 
ATOM      6  C   UNL     1       6.497   6.330   0.395  0.00  0.00    +0.106 A 
ATOM      7  C   UNL     1       5.398   3.278  -1.506  0.00  0.00    +0.049 C 
ATOM      8  C   UNL     1       6.481   2.252  -1.274  0.00  0.00    -0.023 C 
ATOM      9  C   UNL     1       6.047   1.055  -1.587  0.00  0.00    -0.030 C 
ATOM     10  C   UNL     1       4.614   1.122  -2.078  0.00  0.00    +0.033 C 
ATOM     11  C   UNL     1       4.092   2.460  -1.482  0.00  0.00    +0.029 C 
ATOM     12  C   UNL     1       3.675   2.185  -0.034  0.00  0.00    +0.109 C 
ATOM     13  N   UNL     1       3.494   3.464   0.661  0.00  0.00    -0.336 N 
ATOM     14  H   UNL     1       2.692   3.639   1.177  0.00  0.00    +0.147 HD
ENDROOT
BRANCH  12  15
ATOM     15  C   UNL     1       2.381   1.415  -0.019  0.00  0.00    +0.017 A 
ATOM     16  C   UNL     1       2.378   0.074   0.315  0.00  0.00    +0.029 A 
ATOM     17  C   UNL     1       1.190  -0.635   0.328  0.00  0.00    +0.043 A 
ATOM     18  C   UNL     1       0.001  -0.003   0.007  0.00  0.00    +0.043 A 
ATOM     19  C   UNL     1      -0.000   1.338  -0.329  0.00  0.00    +0.084 A 
ATOM     20  C   UNL     1       1.191   2.050  -0.342  0.00  0.00    +0.140 A 
ATOM     21 CL   UNL     1      -1.491   2.131  -0.733  0.00  0.00    -0.080 Cl
ATOM     22 CL   UNL     1       1.188  -2.317   0.756  0.00  0.00    -0.083 Cl
BRANCH  20  23
ATOM     23  O   UNL     1       1.192   3.369  -0.672  0.00  0.00    -0.505 OA
ATOM     24  H   UNL     1       0.995   3.960   0.068  0.00  0.00    +0.292 HD
ENDBRANCH  20  23
ENDBRANCH  12  15
BRANCH   6  25
ATOM     25  S   UNL     1       7.769   7.544   0.285  0.00  0.00    +0.061 S 
ATOM     26  O   UNL     1       7.942   8.072   1.593  0.00  0.00    -0.153 OA
ATOM     27  O   UNL     1       8.835   6.950  -0.444  0.00  0.00    -0.153 OA
BRANCH  25  28
ATOM     28  N   UNL     1       7.188   8.780  -0.651  0.00  0.00    -0.177 NA
ATOM     29  C   UNL     1       7.321   8.885  -2.112  0.00  0.00    +0.109 C 
ATOM     30  C   UNL     1       6.651  10.208  -2.539  0.00  0.00    +0.018 C 
ATOM     31  C   UNL     1       6.685  11.049  -1.236  0.00  0.00    +0.018 C 
ATOM     32  C   UNL     1       6.456   9.961  -0.158  0.00  0.00    +0.109 C 
ENDBRANCH  25  28
ENDBRANCH   6  25
TORSDOF 4
