REMARK  Name = ZINC20425690
REMARK  4 active torsions:
REMARK  status: ('A' for Active; 'I' for Inactive)
REMARK    1  A    between atoms: C_5  and  N_7
REMARK    2  A    between atoms: N_10  and  C_13
REMARK    3  A    between atoms: C_13  and  C_19
REMARK    4  A    between atoms: C_19  and  N_20
REMARK                            x       y       z     vdW  Elec       q    Type
REMARK                         _______ _______ _______ _____ _____    ______ ____
ROOT
ATOM      1  N   UNL     1      -1.977   1.071  -3.742  0.00  0.00    -0.326 N 
ATOM      2  C   UNL     1      -2.712   1.575  -2.574  0.00  0.00    +0.120 C 
ATOM      3  C   UNL     1      -2.009   1.116  -1.294  0.00  0.00    +0.104 C 
ATOM      4  N   UNL     1      -1.940  -0.352  -1.276  0.00  0.00    -0.296 NA
ATOM      5  C   UNL     1      -1.205  -0.856  -2.444  0.00  0.00    +0.104 C 
ATOM      6  C   UNL     1      -1.908  -0.397  -3.724  0.00  0.00    +0.120 C 
ENDROOT
BRANCH   1  11
ATOM      7  C   UNL     1      -3.721   1.094  -6.977  0.00  0.00    +0.002 A 
ATOM      8  C   UNL     1      -3.684   2.442  -7.285  0.00  0.00    +0.002 A 
ATOM      9  C   UNL     1      -3.081   3.336  -6.420  0.00  0.00    +0.022 A 
ATOM     10  C   UNL     1      -2.514   2.885  -5.243  0.00  0.00    +0.062 A 
ATOM     11  C   UNL     1      -2.550   1.531  -4.931  0.00  0.00    +0.048 A 
ATOM     12  C   UNL     1      -3.152   0.636  -5.805  0.00  0.00    +0.024 A 
ATOM     13 CL   UNL     1      -1.756   4.008  -4.157  0.00  0.00    -0.082 Cl
ENDBRANCH   1  11
BRANCH   4  14
ATOM     14  C   UNL     1      -1.338  -0.835  -0.026  0.00  0.00    +0.007 C 
ATOM     15  C   UNL     1      -1.330  -2.365  -0.022  0.00  0.00    +0.020 C 
ATOM     16  C   UNL     1      -0.703  -2.869   1.279  0.00  0.00    +0.002 C 
ATOM     17  C   UNL     1       0.733  -2.351   1.387  0.00  0.00    +0.000 C 
ATOM     18  C   UNL     1       0.725  -0.822   1.383  0.00  0.00    +0.002 C 
ATOM     19  C   UNL     1       0.098  -0.318   0.082  0.00  0.00    +0.020 C 
BRANCH  14  20
ATOM     20  C   UNL     1      -2.154  -0.326   1.163  0.00  0.00    -0.064 C 
BRANCH  20  21
ATOM     21  N   UNL     1      -3.556  -0.738   1.007  0.00  0.00    +0.379 N 
ATOM     22  H   UNL     1      -4.143  -0.372   1.863  0.00  0.00    -0.090 HD
ATOM     23  H   UNL     1      -3.613  -1.835   0.966  0.00  0.00    -0.090 HD
ATOM     24  H   UNL     1      -3.961  -0.314   0.077  0.00  0.00    -0.090 HD
ENDBRANCH  20  21
ENDBRANCH  14  20
ENDBRANCH   4  14
TORSDOF 4
