REMARK  Name = ZINC15900565
REMARK  7 active torsions:
REMARK  status: ('A' for Active; 'I' for Inactive)
REMARK    1  A    between atoms: C_1  and  C_2
REMARK    2  A    between atoms: C_5  and  S_24
REMARK    3  A    between atoms: C_7  and  C_8
REMARK    4  A    between atoms: N_10  and  N_11
REMARK    5  A    between atoms: C_12  and  C_14
REMARK    6  A    between atoms: S_24  and  N_27
REMARK    7  A    between atoms: C_32  and  C_34
REMARK                            x       y       z     vdW  Elec       q    Type
REMARK                         _______ _______ _______ _____ _____    ______ ____
ROOT
ATOM      1  C   UNL     1      -4.532   7.218   0.414  0.00  0.00    +0.260 C 
ATOM      2  O   UNL     1      -5.421   6.465   0.067  0.00  0.00    -0.269 OA
ATOM      3  N   UNL     1      -3.705   6.867   1.418  0.00  0.00    -0.230 N 
ATOM      4  H   UNL     1      -2.995   7.468   1.694  0.00  0.00    +0.173 HD
ENDROOT
BRANCH   1  11
ATOM      5  C   UNL     1      -6.168   7.861  -1.885  0.00  0.00    +0.044 C 
ATOM      6  C   UNL     1      -5.142   8.840  -1.376  0.00  0.00    -0.038 A 
ATOM      7  C   UNL     1      -4.975  10.056  -2.006  0.00  0.00    +0.006 A 
ATOM      8  C   UNL     1      -4.033  10.956  -1.541  0.00  0.00    +0.029 A 
ATOM      9  C   UNL     1      -3.253  10.644  -0.441  0.00  0.00    +0.106 A 
ATOM     10  C   UNL     1      -3.414   9.434   0.202  0.00  0.00    +0.042 A 
ATOM     11  C   UNL     1      -4.359   8.519  -0.267  0.00  0.00    +0.043 A 
BRANCH   9  12
ATOM     12  S   UNL     1      -2.056  11.797   0.143  0.00  0.00    +0.061 S 
ATOM     13  O   UNL     1      -1.078  11.046   0.849  0.00  0.00    -0.153 OA
ATOM     14  O   UNL     1      -1.726  12.633  -0.958  0.00  0.00    -0.153 OA
BRANCH  12  15
ATOM     15  N   UNL     1      -2.809  12.761   1.259  0.00  0.00    -0.174 NA
ATOM     16  C   UNL     1      -3.338  14.078   0.876  0.00  0.00    +0.110 C 
ATOM     17  C   UNL     1      -2.767  15.136   1.818  0.00  0.00    +0.017 C 
ATOM     18  C   UNL     1      -3.059  14.739   3.267  0.00  0.00    +0.003 C 
ATOM     19  C   UNL     1      -2.384  13.400   3.576  0.00  0.00    +0.020 C 
ATOM     20  C   UNL     1      -2.956  12.319   2.653  0.00  0.00    +0.077 C 
ATOM     21  C   UNL     1      -2.190  11.011   2.859  0.00  0.00    +0.026 C 
ENDBRANCH  12  15
ENDBRANCH   9  12
ENDBRANCH   1  11
BRANCH   3  22
ATOM     22  N   UNL     1      -3.869   5.634   2.062  0.00  0.00    -0.234 N 
ATOM     23  C   UNL     1      -3.042   5.283   3.067  0.00  0.00    +0.235 C 
ATOM     24  O   UNL     1      -2.155   6.034   3.412  0.00  0.00    -0.274 OA
ATOM     25  H   UNL     1      -4.579   5.033   1.786  0.00  0.00    +0.173 HD
BRANCH  23  26
ATOM     26  C   UNL     1      -3.219   3.956   3.760  0.00  0.00    +0.049 C 
ATOM     27  C   UNL     1      -3.066   2.825   2.742  0.00  0.00    +0.019 C 
ATOM     28  C   UNL     1      -3.245   1.478   3.446  0.00  0.00    -0.009 C 
ATOM     29  C   UNL     1      -2.185   1.328   4.538  0.00  0.00    +0.007 C 
ATOM     30  C   UNL     1      -2.338   2.460   5.556  0.00  0.00    -0.009 C 
ATOM     31  C   UNL     1      -2.158   3.807   4.852  0.00  0.00    +0.019 C 
ATOM     32  C   UNL     1      -3.731   2.395   6.186  0.00  0.00    +0.007 C 
ATOM     33  C   UNL     1      -4.791   2.545   5.093  0.00  0.00    -0.009 C 
ATOM     34  C   UNL     1      -4.638   1.413   4.075  0.00  0.00    +0.007 C 
ATOM     35  C   UNL     1      -4.612   3.892   4.389  0.00  0.00    +0.019 C 
ENDBRANCH  23  26
ENDBRANCH   3  22
TORSDOF 5
