REMARK  Name = ZINC39663783
REMARK  11 active torsions:
REMARK  status: ('A' for Active; 'I' for Inactive)
REMARK    1  A    between atoms: C_1  and  C_2
REMARK    2  A    between atoms: C_2  and  C_8
REMARK    3  A    between atoms: C_12  and  C_21
REMARK    4  A    between atoms: N_23  and  C_24
REMARK    5  A    between atoms: C_24  and  C_25
REMARK    6  A    between atoms: C_25  and  C_27
REMARK    7  A    between atoms: C_25  and  N_35
REMARK    8  A    between atoms: C_30  and  O_33
REMARK    9  A    between atoms: O_33  and  C_34
REMARK   10  A    between atoms: N_35  and  C_36
REMARK   11  A    between atoms: N_35  and  C_37
REMARK                            x       y       z     vdW  Elec       q    Type
REMARK                         _______ _______ _______ _____ _____    ______ ____
ROOT
ATOM      1  C   UNL     1      -1.863  -0.709  -0.008  0.00  0.00    +0.222 C 
ATOM      2  O   UNL     1      -2.439  -1.300   0.881  0.00  0.00    -0.275 OA
ATOM      3  N   UNL     1      -2.545  -0.294  -1.094  0.00  0.00    -0.300 N 
ATOM      4  C   UNL     1      -2.005   0.351  -2.314  0.00  0.00    +0.121 C 
ATOM      5  C   UNL     1      -2.814  -0.269  -3.474  0.00  0.00    +0.100 C 
ATOM      6  C   UNL     1      -4.126  -0.745  -2.828  0.00  0.00    -0.004 C 
ATOM      7  C   UNL     1      -4.004  -0.385  -1.340  0.00  0.00    +0.115 C 
ATOM      8  C   UNL     1      -4.277  -2.255  -2.988  0.00  0.00    -0.010 C 
ATOM      9  C   UNL     1      -5.615  -2.695  -2.388  0.00  0.00    -0.082 C 
ATOM     10  N   UNL     1      -6.712  -1.998  -3.069  0.00  0.00    +0.379 N 
ATOM     11  C   UNL     1      -6.611  -0.553  -2.833  0.00  0.00    -0.082 C 
ATOM     12  C   UNL     1      -5.315  -0.022  -3.451  0.00  0.00    -0.010 C 
ATOM     13  H   UNL     1      -6.660  -2.180  -4.061  0.00  0.00    -0.086 HD
ATOM     14  H   UNL     1      -7.595  -2.335  -2.715  0.00  0.00    -0.086 HD
ENDROOT
BRANCH   1  16
ATOM     15  C   UNL     1       0.362  -1.255  -0.957  0.00  0.00    +0.021 C 
ATOM     16  C   UNL     1      -0.384  -0.440   0.101  0.00  0.00    +0.044 C 
ATOM     17  C   UNL     1       0.106  -0.842   1.494  0.00  0.00    +0.016 C 
ATOM     18  C   UNL     1      -0.640  -0.028   2.552  0.00  0.00    +0.001 C 
ATOM     19  C   UNL     1      -0.375   1.463   2.329  0.00  0.00    +0.000 C 
ATOM     20  C   UNL     1      -0.865   1.865   0.936  0.00  0.00    +0.001 C 
ATOM     21  C   UNL     1      -0.119   1.050  -0.122  0.00  0.00    +0.016 C 
ENDBRANCH   1  16
BRANCH   5  22
ATOM     22  C   UNL     1      -3.093   0.767  -4.532  0.00  0.00    +0.218 C 
ATOM     23  O   UNL     1      -3.280   1.923  -4.215  0.00  0.00    -0.275 OA
ATOM     24  N   UNL     1      -3.135   0.410  -5.831  0.00  0.00    -0.316 N 
ATOM     25  H   UNL     1      -2.986  -0.514  -6.085  0.00  0.00    +0.149 HD
BRANCH  24  26
ATOM     26  C   UNL     1      -3.407   1.417  -6.859  0.00  0.00    +0.093 C 
BRANCH  26  27
ATOM     27  C   UNL     1      -3.525   0.735  -8.224  0.00  0.00    -0.021 C 
BRANCH  27  28
ATOM     28  C   UNL     1      -4.709  -0.198  -8.219  0.00  0.00    -0.059 A 
ATOM     29  C   UNL     1      -5.983   0.305  -8.404  0.00  0.00    +0.005 A 
ATOM     30  C   UNL     1      -7.071  -0.547  -8.399  0.00  0.00    +0.046 A 
ATOM     31  C   UNL     1      -6.883  -1.909  -8.209  0.00  0.00    +0.120 A 
ATOM     32  C   UNL     1      -5.602  -2.410  -8.023  0.00  0.00    +0.046 A 
ATOM     33  C   UNL     1      -4.518  -1.554  -8.034  0.00  0.00    +0.005 A 
BRANCH  31  34
ATOM     34  O   UNL     1      -7.950  -2.749  -8.203  0.00  0.00    -0.495 OA
ATOM     35  C   UNL     1      -7.682  -4.138  -8.001  0.00  0.00    +0.277 C 
ENDBRANCH  31  34
ENDBRANCH  27  28
BRANCH  27  36
ATOM     36  N   UNL     1      -3.708   1.753  -9.267  0.00  0.00    +0.382 N 
ATOM     37  C   UNL     1      -2.507   2.596  -9.343  0.00  0.00    -0.096 C 
ATOM     38  C   UNL     1      -3.927   1.094 -10.561  0.00  0.00    -0.096 C 
ATOM     39  H   UNL     1      -4.507   2.325  -9.041  0.00  0.00    -0.082 HD
ENDBRANCH  27  36
ENDBRANCH  26  27
ENDBRANCH  24  26
ENDBRANCH   5  22
TORSDOF 7
