REMARK  Name = ZINC19280034
REMARK  4 active torsions:
REMARK  status: ('A' for Active; 'I' for Inactive)
REMARK    1  A    between atoms: C_1  and  C_2
REMARK    2  A    between atoms: C_6  and  C_9
REMARK    3  A    between atoms: C_7  and  C_8
REMARK    4  A    between atoms: N_11  and  C_12
REMARK                            x       y       z     vdW  Elec       q    Type
REMARK                         _______ _______ _______ _____ _____    ______ ____
ROOT
ATOM      1  C   UNL     1       0.112   1.083  -0.513  0.00  0.00    +0.249 C 
ATOM      2  O   UNL     1       0.225  -0.126  -0.571  0.00  0.00    -0.270 OA
ATOM      3  N   UNL     1      -1.099   1.655  -0.670  0.00  0.00    -0.280 N 
ATOM      4  H   UNL     1      -1.190   2.751  -0.695  0.00  0.00    +0.155 HD
ENDROOT
BRANCH   3   5
ATOM      5  C   UNL     1      -2.240   0.854  -0.802  0.00  0.00    +0.055 A 
ATOM      6  C   UNL     1      -2.151  -0.373  -1.438  0.00  0.00    +0.025 A 
ATOM      7  C   UNL     1      -3.276  -1.166  -1.563  0.00  0.00    +0.002 A 
ATOM      8  C   UNL     1      -4.487  -0.728  -1.068  0.00  0.00    +0.005 A 
ATOM      9  C   UNL     1      -4.589   0.504  -0.437  0.00  0.00    -0.025 A 
ATOM     10  C   UNL     1      -3.468   1.300  -0.295  0.00  0.00    +0.052 A 
ATOM     11  N   UNL     1      -3.493   2.540   0.345  0.00  0.00    -0.342 N 
ATOM     12  C   UNL     1      -4.835   3.122   0.419  0.00  0.00    +0.102 C 
ATOM     13  C   UNL     1      -5.780   2.094   1.054  0.00  0.00    +0.023 C 
ATOM     14  C   UNL     1      -5.943   0.933   0.070  0.00  0.00    +0.038 C 
ATOM     15  H   UNL     1      -2.635   3.081   0.771  0.00  0.00    +0.146 HD
ENDBRANCH   3   5
BRANCH   1  21
ATOM     16  C   UNL     1       4.970   1.493   0.550  0.00  0.00    +0.044 C 
ATOM     17  C   UNL     1       3.640   2.129   0.236  0.00  0.00    -0.047 A 
ATOM     18  C   UNL     1       3.532   3.507   0.171  0.00  0.00    +0.003 A 
ATOM     19  C   UNL     1       2.315   4.099  -0.116  0.00  0.00    +0.001 A 
ATOM     20  C   UNL     1       1.200   3.317  -0.340  0.00  0.00    +0.013 A 
ATOM     21  C   UNL     1       1.302   1.927  -0.275  0.00  0.00    +0.040 A 
ATOM     22  C   UNL     1       2.532   1.336   0.021  0.00  0.00    -0.035 A 
ATOM     23  C   UNL     1       2.650  -0.164   0.098  0.00  0.00    +0.045 C 
ENDBRANCH   1  21
TORSDOF 2
