REMARK  Name = ZINC10440330
REMARK  10 active torsions:
REMARK  status: ('A' for Active; 'I' for Inactive)
REMARK    1  A    between atoms: C_1  and  C_2
REMARK    2  A    between atoms: C_2  and  C_3
REMARK    3  A    between atoms: C_10  and  C_12
REMARK    4  A    between atoms: C_15  and  S_18
REMARK    5  A    between atoms: N_16  and  C_17
REMARK    6  A    between atoms: S_18  and  C_19
REMARK    7  A    between atoms: C_19  and  C_20
REMARK    8  A    between atoms: N_22  and  C_23
REMARK    9  A    between atoms: C_24  and  C_30
REMARK   10  A    between atoms: C_28  and  C_29
REMARK                            x       y       z     vdW  Elec       q    Type
REMARK                         _______ _______ _______ _____ _____    ______ ____
ROOT
ATOM      1  C   UNL     1      -2.203  -6.858   0.278  0.00  0.00    +0.171 A 
ATOM      2  N   UNL     1      -0.992  -6.449  -0.030  0.00  0.00    -0.128 NA
ATOM      3  N   UNL     1      -0.951  -5.165  -0.038  0.00  0.00    -0.122 NA
ATOM      4  C   UNL     1      -2.128  -4.673   0.272  0.00  0.00    +0.192 A 
ATOM      5  N   UNL     1      -2.968  -5.731   0.481  0.00  0.00    -0.305 N 
ATOM      6  C   UNL     1      -4.386  -5.678   0.846  0.00  0.00    +0.153 C 
ENDROOT
BRANCH   1  13
ATOM      7  C   UNL     1      -3.137 -13.012  -0.358  0.00  0.00    -0.007 C 
ATOM      8  C   UNL     1      -3.859 -13.069   0.991  0.00  0.00    +0.009 C 
ATOM      9  C   UNL     1      -4.702 -11.795   1.154  0.00  0.00    +0.043 C 
ATOM     10  C   UNL     1      -3.848 -10.619   0.802  0.00  0.00    -0.006 A 
ATOM     11  C   UNL     1      -2.652 -10.628   0.147  0.00  0.00    -0.036 A 
ATOM     12  C   UNL     1      -2.047  -9.395  -0.066  0.00  0.00    +0.023 A 
ATOM     13  C   UNL     1      -2.654  -8.254   0.386  0.00  0.00    +0.057 A 
ATOM     14  S   UNL     1      -4.142  -8.903   1.134  0.00  0.00    -0.090 S 
ATOM     15  C   UNL     1      -2.041 -11.946  -0.320  0.00  0.00    +0.039 C 
BRANCH   7  17
ATOM     16  C   UNL     1      -1.907 -14.363  -2.062  0.00  0.00    +0.004 C 
ATOM     17  C   UNL     1      -2.510 -14.375  -0.656  0.00  0.00    +0.000 C 
ENDBRANCH   7  17
ENDBRANCH   1  13
BRANCH   4  18
ATOM     18  S   UNL     1      -2.550  -2.966   0.389  0.00  0.00    -0.077 S 
BRANCH  18  19
ATOM     19  C   UNL     1      -0.951  -2.219  -0.016  0.00  0.00    +0.173 C 
BRANCH  19  20
ATOM     20  C   UNL     1      -1.074  -0.718   0.023  0.00  0.00    +0.228 C 
ATOM     21  O   UNL     1      -2.137  -0.203   0.298  0.00  0.00    -0.275 OA
ATOM     22  N   UNL     1      -0.002   0.053  -0.247  0.00  0.00    -0.284 N 
ATOM     23  H   UNL     1       0.829  -0.355  -0.537  0.00  0.00    +0.155 HD
BRANCH  22  24
ATOM     24  C   UNL     1      -0.087   1.443  -0.110  0.00  0.00    +0.039 A 
ATOM     25  C   UNL     1      -1.057   2.153  -0.806  0.00  0.00    -0.029 A 
ATOM     26  C   UNL     1      -1.142   3.524  -0.664  0.00  0.00    +0.005 A 
ATOM     27  C   UNL     1      -0.255   4.192   0.161  0.00  0.00    +0.001 A 
ATOM     28  C   UNL     1       0.716   3.489   0.850  0.00  0.00    +0.005 A 
ATOM     29  C   UNL     1       0.802   2.117   0.718  0.00  0.00    -0.029 A 
ATOM     30  C   UNL     1       1.860   1.351   1.470  0.00  0.00    +0.045 C 
ATOM     31  C   UNL     1      -2.020   1.427  -1.709  0.00  0.00    +0.045 C 
ENDBRANCH  22  24
ENDBRANCH  19  20
ENDBRANCH  18  19
ENDBRANCH   4  18
TORSDOF 6
