REMARK  Name = ZINC40569053
REMARK  5 active torsions:
REMARK  status: ('A' for Active; 'I' for Inactive)
REMARK    1  A    between atoms: C_4  and  C_7
REMARK    2  A    between atoms: C_7  and  C_9
REMARK    3  A    between atoms: C_10  and  C_30
REMARK    4  A    between atoms: C_17  and  C_23
REMARK    5  A    between atoms: C_20  and  O_22
REMARK                            x       y       z     vdW  Elec       q    Type
REMARK                         _______ _______ _______ _____ _____    ______ ____
ROOT
ATOM      1  C   UNL     1       3.643  -2.112  -0.163  0.00  0.00    +0.060 C 
ATOM      2  C   UNL     1       4.764  -2.801   0.079  0.00  0.00    +0.124 C 
ATOM      3  N   UNL     1       4.801  -4.140   0.278  0.00  0.00    -0.277 N 
ATOM      4  C   UNL     1       3.955  -4.854   1.006  0.00  0.00    +0.250 C 
ATOM      5  O   UNL     1       4.167  -6.047   1.093  0.00  0.00    -0.270 OA
ATOM      6  C   UNL     1       2.785  -4.325   1.714  0.00  0.00    +0.061 A 
ATOM      7  C   UNL     1       2.472  -4.818   2.992  0.00  0.00    +0.017 A 
ATOM      8  C   UNL     1       1.363  -4.315   3.640  0.00  0.00    +0.029 A 
ATOM      9  C   UNL     1       0.592  -3.339   3.008  0.00  0.00    +0.071 A 
ATOM     10  N   UNL     1       0.917  -2.893   1.801  0.00  0.00    -0.248 NA
ATOM     11  C   UNL     1       1.972  -3.344   1.151  0.00  0.00    +0.087 A 
ATOM     12  C   UNL     1       2.296  -2.774  -0.200  0.00  0.00    +0.199 C 
ATOM     13  H   UNL     1       5.520  -4.625  -0.155  0.00  0.00    +0.155 HD
ENDROOT
BRANCH   9  14
ATOM     14  C   UNL     1      -0.605  -2.795   3.691  0.00  0.00    +0.000 A 
ATOM     15  C   UNL     1      -0.954  -3.253   4.962  0.00  0.00    +0.011 A 
ATOM     16  C   UNL     1      -2.069  -2.743   5.594  0.00  0.00    +0.020 A 
ATOM     17  C   UNL     1      -2.841  -1.778   4.969  0.00  0.00    +0.041 A 
ATOM     18  C   UNL     1      -2.499  -1.320   3.708  0.00  0.00    +0.020 A 
ATOM     19  C   UNL     1      -1.383  -1.820   3.069  0.00  0.00    +0.011 A 
ATOM     20 CL   UNL     1      -4.243  -1.141   5.770  0.00  0.00    -0.084 Cl
ENDBRANCH   9  14
BRANCH   2  21
ATOM     21  C   UNL     1       6.065  -2.042   0.132  0.00  0.00    +0.431 C 
ATOM     22  F   UNL     1       6.127  -1.306   1.320  0.00  0.00    -0.165 F 
ATOM     23  F   UNL     1       7.134  -2.943   0.085  0.00  0.00    -0.165 F 
ATOM     24  F   UNL     1       6.141  -1.170  -0.960  0.00  0.00    -0.165 F 
ENDBRANCH   2  21
BRANCH   1  25
ATOM     25  C   UNL     1       3.729  -0.717  -0.386  0.00  0.00    +0.194 C 
ATOM     26  O   UNL     1       4.048   0.026   0.525  0.00  0.00    -0.287 OA
BRANCH  25  30
ATOM     27  C   UNL     1       2.877   0.878  -4.231  0.00  0.00    +0.000 A 
ATOM     28  C   UNL     1       3.105   1.732  -3.166  0.00  0.00    +0.001 A 
ATOM     29  C   UNL     1       3.382   1.220  -1.915  0.00  0.00    +0.012 A 
ATOM     30  C   UNL     1       3.432  -0.162  -1.725  0.00  0.00    +0.022 A 
ATOM     31  C   UNL     1       3.201  -1.017  -2.803  0.00  0.00    +0.012 A 
ATOM     32  C   UNL     1       2.925  -0.493  -4.049  0.00  0.00    +0.001 A 
ENDBRANCH  25  30
ENDBRANCH   1  25
BRANCH  12  33
ATOM     33  O   UNL     1       2.310  -3.827  -1.166  0.00  0.00    -0.381 OA
ATOM     34  H   UNL     1       1.470  -4.301  -1.243  0.00  0.00    +0.211 HD
ENDBRANCH  12  33
TORSDOF 5
