REMARK  Name = ZINC44145072
REMARK  17 active torsions:
REMARK  status: ('A' for Active; 'I' for Inactive)
REMARK    1  A    between atoms: C_1  and  C_2
REMARK    2  A    between atoms: C_2  and  C_3
REMARK    3  A    between atoms: C_3  and  C_4
REMARK    4  A    between atoms: C_4  and  C_6
REMARK    5  A    between atoms: C_4  and  N_14
REMARK    6  A    between atoms: N_8  and  C_9
REMARK    7  A    between atoms: C_9  and  C_10
REMARK    8  A    between atoms: C_10  and  N_11
REMARK    9  A    between atoms: N_11  and  C_12
REMARK   10  A    between atoms: N_11  and  C_13
REMARK   11  A    between atoms: C_15  and  C_36
REMARK   12  A    between atoms: C_16  and  C_33
REMARK   13  A    between atoms: C_18  and  C_19
REMARK   14  A    between atoms: C_25  and  C_31
REMARK   15  A    between atoms: C_25  and  C_32
REMARK   16  A    between atoms: C_28  and  C_29
REMARK   17  A    between atoms: C_28  and  C_30
REMARK                            x       y       z     vdW  Elec       q    Type
REMARK                         _______ _______ _______ _____ _____    ______ ____
ROOT
ATOM      1  N   UNL     1       1.456  -2.577  -2.459  0.00  0.00    -0.331 N 
ATOM      2  C   UNL     1       1.076  -2.371  -3.736  0.00  0.00    +0.029 A 
ATOM      3  C   UNL     1       2.098  -2.787  -4.563  0.00  0.00    +0.058 A 
ATOM      4  C   UNL     1       3.139  -3.265  -3.726  0.00  0.00    +0.041 A 
ATOM      5  C   UNL     1       2.718  -3.119  -2.443  0.00  0.00    +0.051 A 
ATOM      6  C   UNL     1      -0.239  -1.788  -4.183  0.00  0.00    +0.064 C 
ENDROOT
BRANCH   5   7
ATOM      7  C   UNL     1       3.487  -3.483  -1.234  0.00  0.00    -0.001 A 
ATOM      8  C   UNL     1       2.824  -3.874  -0.070  0.00  0.00    +0.010 A 
ATOM      9  C   UNL     1       3.553  -4.208   1.049  0.00  0.00    +0.005 A 
ATOM     10  C   UNL     1       4.943  -4.162   1.032  0.00  0.00    -0.038 A 
ATOM     11  C   UNL     1       5.603  -3.782  -0.116  0.00  0.00    -0.037 A 
ATOM     12  C   UNL     1       4.879  -3.445  -1.249  0.00  0.00    +0.014 A 
ATOM     13  C   UNL     1       7.106  -3.726  -0.206  0.00  0.00    -0.010 C 
ATOM     14  C   UNL     1       7.728  -3.703   1.189  0.00  0.00    +0.012 C 
ATOM     15  C   UNL     1       7.132  -4.857   2.004  0.00  0.00    +0.012 C 
ATOM     16  C   UNL     1       5.669  -4.534   2.299  0.00  0.00    -0.010 C 
ATOM     17  C   UNL     1       5.599  -3.365   3.283  0.00  0.00    +0.016 C 
ATOM     18  C   UNL     1       4.998  -5.759   2.924  0.00  0.00    +0.016 C 
ATOM     19  C   UNL     1       7.612  -4.956  -0.962  0.00  0.00    +0.016 C 
ATOM     20  C   UNL     1       7.520  -2.463  -0.964  0.00  0.00    +0.016 C 
ENDBRANCH   5   7
BRANCH   3  21
ATOM     21  C   UNL     1       2.107  -2.743  -6.035  0.00  0.00    +0.243 C 
ATOM     22  O   UNL     1       1.143  -2.307  -6.636  0.00  0.00    -0.270 OA
ATOM     23  N   UNL     1       3.182  -3.187  -6.716  0.00  0.00    -0.325 N 
ATOM     24  H   UNL     1       3.950  -3.535  -6.236  0.00  0.00    +0.145 HD
ATOM     25  H   UNL     1       3.188  -3.158  -7.686  0.00  0.00    +0.145 HD
ENDBRANCH   3  21
BRANCH   1  26
ATOM     26  C   UNL     1       0.652  -2.267  -1.274  0.00  0.00    +0.173 C 
BRANCH  26  27
ATOM     27  C   UNL     1      -0.553  -3.172  -1.234  0.00  0.00    +0.236 C 
ATOM     28  O   UNL     1      -0.682  -4.047  -2.063  0.00  0.00    -0.274 OA
ATOM     29  N   UNL     1      -1.486  -3.009  -0.276  0.00  0.00    -0.315 N 
ATOM     30  H   UNL     1      -1.421  -2.264   0.343  0.00  0.00    +0.149 HD
BRANCH  29  31
ATOM     31  C   UNL     1      -2.599  -3.955  -0.168  0.00  0.00    +0.086 C 
BRANCH  31  32
ATOM     32  C   UNL     1      -3.508  -3.545   0.992  0.00  0.00    -0.061 C 
BRANCH  32  33
ATOM     33  N   UNL     1      -4.624  -4.494   1.100  0.00  0.00    +0.377 N 
ATOM     34  C   UNL     1      -5.429  -4.171   2.285  0.00  0.00    -0.097 C 
ATOM     35  C   UNL     1      -5.463  -4.402  -0.102  0.00  0.00    -0.097 C 
ATOM     36  H   UNL     1      -4.261  -5.431   1.185  0.00  0.00    -0.083 HD
ENDBRANCH  32  33
ENDBRANCH  31  32
ENDBRANCH  29  31
ENDBRANCH  26  27
BRANCH  26  37
ATOM     37  C   UNL     1       0.192  -0.809  -1.338  0.00  0.00    +0.034 C 
BRANCH  37  39
ATOM     38  C   UNL     1       0.963   1.565  -1.440  0.00  0.00    +0.004 C 
ATOM     39  C   UNL     1       1.410   0.114  -1.259  0.00  0.00    -0.001 C 
ENDBRANCH  37  39
ENDBRANCH  26  37
ENDBRANCH   1  26
TORSDOF 9
