REMARK  Name = ZINC09685047
REMARK  10 active torsions:
REMARK  status: ('A' for Active; 'I' for Inactive)
REMARK    1  A    between atoms: C_1  and  C_2
REMARK    2  A    between atoms: C_3  and  C_34
REMARK    3  A    between atoms: N_20  and  C_21
REMARK    4  A    between atoms: C_21  and  C_22
REMARK    5  A    between atoms: C_22  and  C_24
REMARK    6  A    between atoms: C_22  and  N_61
REMARK    7  A    between atoms: C_27  and  O_30
REMARK    8  A    between atoms: O_30  and  C_31
REMARK    9  A    between atoms: C_32  and  N_61
REMARK   10  A    between atoms: C_33  and  N_61
REMARK                            x       y       z     vdW  Elec       q    Type
REMARK                         _______ _______ _______ _____ _____    ______ ____
ROOT
ATOM      1  C   UNL     1      -1.653  10.486  -0.420  0.00  0.00    +0.045 C 
ATOM      2  C   UNL     1      -0.449   9.668  -0.030  0.00  0.00    -0.026 A 
ATOM      3  C   UNL     1       0.751  10.252   0.109  0.00  0.00    -0.008 A 
ATOM      4  S   UNL     1       1.820   8.900   0.566  0.00  0.00    -0.073 S 
ATOM      5  C   UNL     1       0.625   7.589   0.557  0.00  0.00    +0.116 A 
ATOM      6  C   UNL     1      -0.574   8.239   0.198  0.00  0.00    +0.077 A 
ATOM      7  C   UNL     1      -1.731   7.408   0.113  0.00  0.00    +0.283 A 
ATOM      8  O   UNL     1      -2.810   7.889  -0.191  0.00  0.00    -0.265 OA
ATOM      9  N   UNL     1      -1.625   6.087   0.369  0.00  0.00    -0.175 N 
ATOM     10  C   UNL     1      -0.418   5.543   0.711  0.00  0.00    +0.167 A 
ATOM     11  N   UNL     1       0.669   6.290   0.797  0.00  0.00    -0.220 NA
ATOM     12  C   UNL     1      -0.336   4.101   0.985  0.00  0.00    +0.030 A 
ATOM     13  C   UNL     1       0.865   3.487   1.338  0.00  0.00    +0.012 A 
ATOM     14  C   UNL     1       0.888   2.132   1.585  0.00  0.00    +0.001 A 
ATOM     15  C   UNL     1      -0.272   1.375   1.486  0.00  0.00    +0.001 A 
ATOM     16  C   UNL     1      -1.468   1.961   1.133  0.00  0.00    +0.012 A 
ATOM     17  C   UNL     1      -1.515   3.332   0.883  0.00  0.00    +0.027 A 
ATOM     18  C   UNL     1      -2.764   4.007   0.510  0.00  0.00    +0.148 A 
ATOM     19  N   UNL     1      -2.773   5.291   0.279  0.00  0.00    -0.146 NA
ATOM     20  N   UNL     1      -3.939   3.278   0.402  0.00  0.00    -0.328 N 
ATOM     21  C   UNL     1       1.109  11.704  -0.076  0.00  0.00    +0.052 C 
ATOM     22  H   UNL     1      -3.935   2.323   0.574  0.00  0.00    +0.147 HD
ENDROOT
BRANCH  20  23
ATOM     23  C   UNL     1      -5.187   3.949   0.029  0.00  0.00    +0.092 C 
BRANCH  23  24
ATOM     24  C   UNL     1      -6.278   2.903  -0.208  0.00  0.00    -0.021 C 
BRANCH  24  25
ATOM     25  C   UNL     1      -7.583   3.596  -0.503  0.00  0.00    -0.059 A 
ATOM     26  C   UNL     1      -7.899   3.948  -1.802  0.00  0.00    +0.005 A 
ATOM     27  C   UNL     1      -9.098   4.578  -2.076  0.00  0.00    +0.046 A 
ATOM     28  C   UNL     1      -9.978   4.870  -1.045  0.00  0.00    +0.120 A 
ATOM     29  C   UNL     1      -9.656   4.521   0.259  0.00  0.00    +0.046 A 
ATOM     30  C   UNL     1      -8.459   3.885   0.527  0.00  0.00    +0.005 A 
BRANCH  28  31
ATOM     31  O   UNL     1     -11.155   5.496  -1.310  0.00  0.00    -0.495 OA
ATOM     32  C   UNL     1     -11.421   5.825  -2.675  0.00  0.00    +0.277 C 
ENDBRANCH  28  31
ENDBRANCH  24  25
BRANCH  24  35
ATOM     33  C   UNL     1      -5.056   2.793  -2.296  0.00  0.00    -0.096 C 
ATOM     34  C   UNL     1      -5.242   0.826  -0.897  0.00  0.00    -0.096 C 
ATOM     35  N   UNL     1      -5.928   2.049  -1.363  0.00  0.00    +0.382 N 
ATOM     36  H   UNL     1      -6.790   1.782  -1.853  0.00  0.00    -0.082 HD
ENDBRANCH  24  35
ENDBRANCH  23  24
ENDBRANCH  20  23
TORSDOF 5
