REMARK  Name = ZINC13125712
REMARK  8 active torsions:
REMARK  status: ('A' for Active; 'I' for Inactive)
REMARK    1  A    between atoms: C_1  and  C_2
REMARK    2  A    between atoms: C_3  and  O_27
REMARK    3  A    between atoms: C_6  and  C_9
REMARK    4  A    between atoms: C_7  and  O_8
REMARK    5  A    between atoms: C_10  and  C_16
REMARK    6  A    between atoms: C_11  and  C_15
REMARK    7  A    between atoms: N_19  and  C_21
REMARK    8  A    between atoms: O_27  and  C_28
REMARK                            x       y       z     vdW  Elec       q    Type
REMARK                         _______ _______ _______ _____ _____    ______ ____
ROOT
ATOM      1  C   UNL     1      -0.070  -2.866   2.456  0.00  0.00    +0.077 A 
ATOM      2  C   UNL     1      -1.011  -2.712   3.463  0.00  0.00    +0.033 A 
ATOM      3  C   UNL     1      -0.565  -3.454   4.570  0.00  0.00    +0.068 A 
ATOM      4  N   UNL     1       0.571  -4.021   4.260  0.00  0.00    -0.178 NA
ATOM      5  N   UNL     1       0.909  -3.681   2.945  0.00  0.00    -0.276 N 
ATOM      6  H   UNL     1       1.701  -3.972   2.467  0.00  0.00    +0.189 HD
ATOM      7  C   UNL     1      -1.276  -3.574   5.893  0.00  0.00    +0.068 C 
ENDROOT
BRANCH   1  13
ATOM      8  C   UNL     1      -2.241  -2.487  -2.029  0.00  0.00    +0.051 C 
ATOM      9  C   UNL     1      -1.164  -2.081  -1.056  0.00  0.00    +0.033 A 
ATOM     10  C   UNL     1      -0.215  -1.139  -1.426  0.00  0.00    +0.126 A 
ATOM     11  C   UNL     1       0.780  -0.761  -0.534  0.00  0.00    +0.047 A 
ATOM     12  C   UNL     1       0.831  -1.318   0.726  0.00  0.00    +0.017 A 
ATOM     13  C   UNL     1      -0.120  -2.266   1.107  0.00  0.00    +0.042 A 
ATOM     14  C   UNL     1      -1.126  -2.643   0.207  0.00  0.00    +0.132 A 
BRANCH  14  15
ATOM     15  O   UNL     1      -2.058  -3.561   0.573  0.00  0.00    -0.506 OA
ATOM     16  H   UNL     1      -1.794  -4.476   0.409  0.00  0.00    +0.292 HD
ENDBRANCH  14  15
BRANCH  10  17
ATOM     17  O   UNL     1      -0.258  -0.585  -2.666  0.00  0.00    -0.495 OA
ATOM     18  C   UNL     1       0.750   0.378  -2.982  0.00  0.00    +0.277 C 
ENDBRANCH  10  17
ENDBRANCH   1  13
BRANCH   2  19
ATOM     19  C   UNL     1      -2.259  -1.911   3.386  0.00  0.00    +0.024 A 
ATOM     20  C   UNL     1      -2.343  -0.512   3.250  0.00  0.00    +0.143 A 
ATOM     21  N   UNL     1      -3.606  -0.178   3.219  0.00  0.00    -0.174 NA
ATOM     22  N   UNL     1      -4.378  -1.340   3.332  0.00  0.00    -0.239 N 
ATOM     23  C   UNL     1      -3.533  -2.399   3.428  0.00  0.00    +0.123 A 
BRANCH  22  24
ATOM     24  C   UNL     1      -5.778  -1.401   3.340  0.00  0.00    +0.065 A 
ATOM     25  C   UNL     1      -6.420  -2.626   3.465  0.00  0.00    +0.028 A 
ATOM     26  C   UNL     1      -7.800  -2.683   3.472  0.00  0.00    +0.002 A 
ATOM     27  C   UNL     1      -8.542  -1.522   3.354  0.00  0.00    +0.000 A 
ATOM     28  C   UNL     1      -7.906  -0.301   3.229  0.00  0.00    +0.002 A 
ATOM     29  C   UNL     1      -6.526  -0.237   3.227  0.00  0.00    +0.028 A 
ENDBRANCH  22  24
ENDBRANCH   2  19
TORSDOF 5
