REMARK  Name = ZINC39635094
REMARK  7 active torsions:
REMARK  status: ('A' for Active; 'I' for Inactive)
REMARK    1  A    between atoms: C_1  and  O_2
REMARK    2  A    between atoms: O_2  and  C_3
REMARK    3  A    between atoms: C_6  and  C_9
REMARK    4  A    between atoms: C_9  and  C_10
REMARK    5  A    between atoms: C_10  and  N_11
REMARK    6  A    between atoms: C_12  and  C_14
REMARK    7  A    between atoms: C_25  and  C_27
REMARK                            x       y       z     vdW  Elec       q    Type
REMARK                         _______ _______ _______ _____ _____    ______ ____
ROOT
ATOM      1  C   UNL     1       6.628  -4.377  -6.397  0.00  0.00    +0.100 C 
ATOM      2  C   UNL     1       6.457  -3.487  -7.648  0.00  0.00    +0.121 C 
ATOM      3  N   UNL     1       7.697  -2.679  -7.705  0.00  0.00    -0.297 N 
ATOM      4  C   UNL     1       8.771  -3.622  -7.310  0.00  0.00    +0.115 C 
ATOM      5  C   UNL     1       8.148  -4.466  -6.180  0.00  0.00    -0.004 C 
ATOM      6  C   UNL     1       8.612  -5.915  -6.286  0.00  0.00    -0.010 C 
ATOM      7  C   UNL     1      10.117  -5.986  -6.009  0.00  0.00    -0.082 C 
ATOM      8  N   UNL     1      10.395  -5.459  -4.668  0.00  0.00    +0.379 N 
ATOM      9  C   UNL     1      10.030  -4.038  -4.603  0.00  0.00    -0.082 C 
ATOM     10  C   UNL     1       8.522  -3.885  -4.820  0.00  0.00    -0.010 C 
ATOM     11  C   UNL     1       7.822  -1.379  -8.041  0.00  0.00    +0.260 C 
ATOM     12  O   UNL     1       6.833  -0.709  -8.249  0.00  0.00    -0.271 OA
ATOM     13  H   UNL     1       9.856  -5.974  -3.987  0.00  0.00    -0.086 HD
ATOM     14  H   UNL     1      11.377  -5.562  -4.464  0.00  0.00    -0.086 HD
ENDROOT
BRANCH  11  15
ATOM     15  C   UNL     1       9.191  -0.760  -8.158  0.00  0.00    +0.296 C 
ATOM     16  C   UNL     1       9.920  -1.342  -9.377  0.00  0.00    +0.283 C 
ATOM     17  O   UNL     1      11.208  -0.723  -9.466  0.00  0.00    -0.484 OA
ATOM     18  C   UNL     1      11.247   0.630  -9.325  0.00  0.00    +0.162 A 
ATOM     19  C   UNL     1      12.368   1.327  -9.752  0.00  0.00    +0.049 A 
ATOM     20  C   UNL     1      12.424   2.700  -9.613  0.00  0.00    +0.004 A 
ATOM     21  C   UNL     1      11.363   3.384  -9.048  0.00  0.00    +0.004 A 
ATOM     22  C   UNL     1      10.243   2.696  -8.623  0.00  0.00    +0.049 A 
ATOM     23  C   UNL     1      10.180   1.317  -8.761  0.00  0.00    +0.163 A 
ATOM     24  O   UNL     1       9.066   0.655  -8.344  0.00  0.00    -0.473 OA
ENDBRANCH  11  15
BRANCH   1  26
ATOM     25  N   UNL     1       5.455  -4.508  -4.223  0.00  0.00    -0.315 N 
ATOM     26  C   UNL     1       5.964  -3.738  -5.204  0.00  0.00    +0.218 C 
ATOM     27  O   UNL     1       5.889  -2.530  -5.127  0.00  0.00    -0.275 OA
ATOM     28  H   UNL     1       5.515  -5.475  -4.284  0.00  0.00    +0.149 HD
BRANCH  25  29
ATOM     29  C   UNL     1       4.810  -3.887  -3.063  0.00  0.00    +0.109 C 
BRANCH  29  30
ATOM     30  C   UNL     1       4.323  -4.977  -2.106  0.00  0.00    +0.054 C 
BRANCH  30  34
ATOM     31  C   UNL     1       2.442  -3.165   1.276  0.00  0.00    +0.120 A 
ATOM     32  C   UNL     1       1.692  -3.489   0.155  0.00  0.00    +0.046 A 
ATOM     33  C   UNL     1       2.302  -4.074  -0.937  0.00  0.00    +0.007 A 
ATOM     34  C   UNL     1       3.659  -4.338  -0.913  0.00  0.00    -0.046 A 
ATOM     35  C   UNL     1       4.409  -4.016   0.203  0.00  0.00    +0.007 A 
ATOM     36  C   UNL     1       3.804  -3.424   1.295  0.00  0.00    +0.046 A 
BRANCH  31  38
ATOM     37  C   UNL     1       0.437  -2.350   2.262  0.00  0.00    +0.277 C 
ATOM     38  O   UNL     1       1.844  -2.588   2.352  0.00  0.00    -0.495 OA
ENDBRANCH  31  38
ENDBRANCH  30  34
ENDBRANCH  29  30
ENDBRANCH  25  29
ENDBRANCH   1  26
TORSDOF 6
