REMARK  Name = ZINC56609114
REMARK  10 active torsions:
REMARK  status: ('A' for Active; 'I' for Inactive)
REMARK    1  A    between atoms: C_1  and  C_2
REMARK    2  A    between atoms: C_2  and  N_3
REMARK    3  A    between atoms: N_3  and  C_4
REMARK    4  A    between atoms: C_4  and  C_6
REMARK    5  A    between atoms: C_4  and  C_7
REMARK    6  A    between atoms: N_18  and  C_19
REMARK    7  A    between atoms: C_23  and  N_25
REMARK    8  A    between atoms: C_26  and  C_28
REMARK    9  A    between atoms: C_28  and  C_29
REMARK   10  A    between atoms: C_28  and  C_30
REMARK                            x       y       z     vdW  Elec       q    Type
REMARK                         _______ _______ _______ _____ _____    ______ ____
ROOT
ATOM      1  N   UNL     1      -1.390  -0.524   0.011  0.00  0.00    -0.276 N 
ATOM      2  C   UNL     1      -2.014  -0.751   1.184  0.00  0.00    +0.307 C 
ATOM      3  O   UNL     1      -3.161  -1.155   1.194  0.00  0.00    -0.252 OA
ATOM      4  N   UNL     1      -1.367  -0.530   2.346  0.00  0.00    -0.269 N 
ATOM      5  H   UNL     1      -0.432  -0.272   2.339  0.00  0.00    +0.156 HD
ENDROOT
BRANCH   4   6
ATOM      6  C   UNL     1      -2.044  -0.673   3.562  0.00  0.00    +0.037 A 
ATOM      7  C   UNL     1      -3.014  -1.658   3.707  0.00  0.00    +0.023 A 
ATOM      8  C   UNL     1      -3.683  -1.799   4.907  0.00  0.00    +0.004 A 
ATOM      9  C   UNL     1      -3.390  -0.963   5.967  0.00  0.00    +0.023 A 
ATOM     10  C   UNL     1      -2.422   0.024   5.829  0.00  0.00    +0.035 A 
ATOM     11  C   UNL     1      -1.744   0.165   4.626  0.00  0.00    +0.046 A 
BRANCH  10  12
ATOM     12  N   UNL     1      -2.127   0.871   6.903  0.00  0.00    -0.285 N 
ATOM     13  C   UNL     1      -2.169   0.400   8.165  0.00  0.00    +0.220 C 
ATOM     14  O   UNL     1      -2.542  -0.735   8.376  0.00  0.00    -0.275 OA
ATOM     15  H   UNL     1      -1.893   1.798   6.739  0.00  0.00    +0.155 HD
BRANCH  13  16
ATOM     16  C   UNL     1      -1.751   1.282   9.313  0.00  0.00    +0.069 C 
ATOM     17  C   UNL     1      -2.644   2.523   9.353  0.00  0.00    +0.017 C 
ATOM     18  C   UNL     1      -1.891   0.509  10.626  0.00  0.00    +0.017 C 
ENDBRANCH  13  16
ENDBRANCH  10  12
ENDBRANCH   4   6
BRANCH   1  20
ATOM     19  C   UNL     1      -0.006   1.493   0.003  0.00  0.00    +0.024 C 
ATOM     20  C   UNL     1      -0.008  -0.037  -0.001  0.00  0.00    +0.107 C 
ENDBRANCH   1  20
BRANCH   1  21
ATOM     21  C   UNL     1      -2.093  -0.764  -1.251  0.00  0.00    +0.140 C 
ATOM     22  C   UNL     1      -2.167   0.539  -2.049  0.00  0.00    +0.036 C 
BRANCH  21  23
ATOM     23  C   UNL     1      -1.349  -1.801  -2.051  0.00  0.00    +0.126 A 
ATOM     24  C   UNL     1      -1.925  -2.777  -2.766  0.00  0.00    +0.055 A 
ATOM     25  C   UNL     1      -0.829  -3.542  -3.373  0.00  0.00    +0.020 A 
ATOM     26  C   UNL     1      -0.763  -4.655  -4.210  0.00  0.00    +0.011 A 
ATOM     27  C   UNL     1       0.455  -5.134  -4.605  0.00  0.00    +0.001 A 
ATOM     28  C   UNL     1       1.624  -4.520  -4.179  0.00  0.00    +0.004 A 
ATOM     29  C   UNL     1       1.578  -3.418  -3.352  0.00  0.00    +0.047 A 
ATOM     30  C   UNL     1       0.351  -2.915  -2.938  0.00  0.00    +0.135 A 
ATOM     31  O   UNL     1      -0.011  -1.878  -2.156  0.00  0.00    -0.458 OA
ENDBRANCH  21  23
ENDBRANCH   1  21
TORSDOF 6
