REMARK  Name = ZINC33545992
REMARK  10 active torsions:
REMARK  status: ('A' for Active; 'I' for Inactive)
REMARK    1  A    between atoms: C_1  and  C_2
REMARK    2  A    between atoms: C_2  and  C_3
REMARK    3  A    between atoms: C_3  and  N_4
REMARK    4  A    between atoms: N_4  and  C_5
REMARK    5  A    between atoms: C_5  and  C_6
REMARK    6  A    between atoms: C_6  and  C_8
REMARK    7  A    between atoms: C_9  and  C_21
REMARK    8  A    between atoms: N_11  and  C_14
REMARK    9  A    between atoms: C_12  and  O_13
REMARK   10  A    between atoms: C_27  and  C_29
REMARK                            x       y       z     vdW  Elec       q    Type
REMARK                         _______ _______ _______ _____ _____    ______ ____
ROOT
ATOM      1  C   UNL     1      -1.808  -3.912   3.098  0.00  0.00    +0.108 A 
ATOM      2  C   UNL     1      -2.893  -4.302   4.011  0.00  0.00    +0.107 A 
ATOM      3  N   UNL     1      -2.349  -4.991   4.985  0.00  0.00    -0.162 NA
ATOM      4  N   UNL     1      -0.971  -5.084   4.777  0.00  0.00    -0.199 N 
ATOM      5  C   UNL     1      -0.638  -4.441   3.640  0.00  0.00    +0.227 A 
ENDROOT
BRANCH   4   6
ATOM      6  C   UNL     1      -0.071  -5.749   5.620  0.00  0.00    +0.069 A 
ATOM      7  C   UNL     1       1.029  -6.406   5.084  0.00  0.00    +0.029 A 
ATOM      8  C   UNL     1       1.915  -7.061   5.917  0.00  0.00    +0.022 A 
ATOM      9  C   UNL     1       1.707  -7.062   7.285  0.00  0.00    +0.041 A 
ATOM     10  C   UNL     1       0.612  -6.408   7.822  0.00  0.00    +0.022 A 
ATOM     11  C   UNL     1      -0.274  -5.747   6.994  0.00  0.00    +0.029 A 
ATOM     12 CL   UNL     1       2.822  -7.887   8.330  0.00  0.00    -0.084 Cl
ENDBRANCH   4   6
BRANCH   2  13
ATOM     13  C   UNL     1      -4.331  -3.976   3.859  0.00  0.00    +0.003 A 
ATOM     14  C   UNL     1      -4.960  -4.140   2.625  0.00  0.00    +0.010 A 
ATOM     15  C   UNL     1      -6.299  -3.835   2.490  0.00  0.00    +0.001 A 
ATOM     16  C   UNL     1      -7.017  -3.367   3.575  0.00  0.00    +0.000 A 
ATOM     17  C   UNL     1      -6.399  -3.202   4.802  0.00  0.00    +0.001 A 
ATOM     18  C   UNL     1      -5.062  -3.509   4.951  0.00  0.00    +0.010 A 
ENDBRANCH   2  13
BRANCH   1  19
ATOM     19  C   UNL     1      -1.929  -3.157   1.907  0.00  0.00    +0.188 C 
ATOM     20  O   UNL     1      -2.998  -2.667   1.605  0.00  0.00    -0.290 OA
BRANCH  19  21
ATOM     21  C   UNL     1      -0.731  -2.961   1.015  0.00  0.00    +0.187 C 
BRANCH  21  22
ATOM     22  N   UNL     1      -1.112  -2.151  -0.144  0.00  0.00    -0.290 N 
ATOM     23  C   UNL     1      -1.443  -2.749  -1.306  0.00  0.00    +0.247 C 
ATOM     24  O   UNL     1      -1.665  -2.077  -2.294  0.00  0.00    -0.270 OA
BRANCH  23  25
ATOM     25  C   UNL     1      -1.534  -4.221  -1.378  0.00  0.00    +0.037 A 
ATOM     26  C   UNL     1      -2.222  -4.930  -0.391  0.00  0.00    +0.016 A 
ATOM     27  C   UNL     1      -2.304  -6.304  -0.463  0.00  0.00    +0.039 A 
ATOM     28  C   UNL     1      -1.706  -6.983  -1.513  0.00  0.00    +0.123 A 
ATOM     29  C   UNL     1      -1.022  -6.284  -2.497  0.00  0.00    +0.039 A 
ATOM     30  C   UNL     1      -0.939  -4.910  -2.437  0.00  0.00    +0.016 A 
ATOM     31  F   UNL     1      -1.789  -8.330  -1.579  0.00  0.00    -0.205 F 
ENDBRANCH  23  25
BRANCH  22  32
ATOM     32  C   UNL     1      -1.135  -0.689  -0.041  0.00  0.00    +0.108 C 
BRANCH  32  34
ATOM     33  C   UNL     1       0.237   1.390  -0.226  0.00  0.00    +0.005 C 
ATOM     34  C   UNL     1       0.261  -0.136  -0.334  0.00  0.00    +0.016 C 
ENDBRANCH  32  34
ENDBRANCH  22  32
ENDBRANCH  21  22
ENDBRANCH  19  21
ENDBRANCH   1  19
BRANCH   5  35
ATOM     35  O   UNL     1       0.605  -4.328   3.120  0.00  0.00    -0.492 OA
ATOM     36  H   UNL     1       1.091  -3.551   3.428  0.00  0.00    +0.294 HD
ENDBRANCH   5  35
TORSDOF 9
