REMARK  Name = ZINC22040416
REMARK  5 active torsions:
REMARK  status: ('A' for Active; 'I' for Inactive)
REMARK    1  A    between atoms: C_5  and  C_7
REMARK    2  A    between atoms: C_16  and  C_18
REMARK    3  A    between atoms: C_18  and  N_19
REMARK    4  A    between atoms: N_22  and  C_25
REMARK    5  A    between atoms: C_25  and  C_26
REMARK                            x       y       z     vdW  Elec       q    Type
REMARK                         _______ _______ _______ _____ _____    ______ ____
ROOT
ATOM      1  C   UNL     1      14.305  -2.468   1.182  0.00  0.00    +0.005 A 
ATOM      2  C   UNL     1      14.296  -2.093   2.484  0.00  0.00    +0.056 A 
ATOM      3  S   UNL     1      12.559  -1.994   2.872  0.00  0.00    -0.076 S 
ATOM      4  C   UNL     1      11.892  -2.453   1.294  0.00  0.00    +0.116 A 
ATOM      5  C   UNL     1      13.031  -2.673   0.502  0.00  0.00    +0.080 A 
ATOM      6  C   UNL     1      12.780  -3.063  -0.852  0.00  0.00    +0.260 A 
ATOM      7  O   UNL     1      13.705  -3.276  -1.617  0.00  0.00    -0.267 OA
ATOM      8  N   UNL     1      11.506  -3.192  -1.268  0.00  0.00    -0.312 N 
ATOM      9  H   UNL     1      11.294  -3.491  -2.305  0.00  0.00    +0.170 HD
ATOM     10  C   UNL     1      10.463  -2.958  -0.430  0.00  0.00    +0.094 A 
ATOM     11  N   UNL     1      10.661  -2.596   0.809  0.00  0.00    -0.229 NA
ENDROOT
BRANCH   1  16
ATOM     12  C   UNL     1      17.645  -3.864   0.172  0.00  0.00    +0.001 A 
ATOM     13  C   UNL     1      17.978  -3.034  -0.883  0.00  0.00    +0.001 A 
ATOM     14  C   UNL     1      17.121  -2.020  -1.270  0.00  0.00    +0.020 A 
ATOM     15  C   UNL     1      15.926  -1.831  -0.603  0.00  0.00    +0.049 A 
ATOM     16  C   UNL     1      15.585  -2.665   0.462  0.00  0.00    +0.002 A 
ATOM     17  C   UNL     1      16.457  -3.682   0.850  0.00  0.00    +0.010 A 
ATOM     18 CL   UNL     1      14.851  -0.557  -1.089  0.00  0.00    -0.083 Cl
ENDBRANCH   1  16
BRANCH  10  19
ATOM     19  C   UNL     1       9.054  -3.114  -0.940  0.00  0.00    -0.003 C 
BRANCH  19  20
ATOM     20  N   UNL     1       8.108  -2.670   0.092  0.00  0.00    +0.386 N 
ATOM     21  C   UNL     1       8.225  -1.224   0.326  0.00  0.00    -0.063 C 
ATOM     22  C   UNL     1       7.282  -0.815   1.460  0.00  0.00    +0.066 C 
ATOM     23  N   UNL     1       5.903  -1.178   1.102  0.00  0.00    -0.302 NA
ATOM     24  C   UNL     1       5.786  -2.624   0.868  0.00  0.00    +0.066 C 
ATOM     25  C   UNL     1       6.729  -3.032  -0.266  0.00  0.00    -0.063 C 
ATOM     26  H   UNL     1       8.363  -3.188   1.028  0.00  0.00    -0.081 HD
BRANCH  23  27
ATOM     27  C   UNL     1       4.957  -0.733   2.134  0.00  0.00    +0.119 C 
BRANCH  27  28
ATOM     28  C   UNL     1       3.547  -0.898   1.627  0.00  0.00    -0.030 A 
ATOM     29  C   UNL     1       2.870  -2.083   1.845  0.00  0.00    +0.009 A 
ATOM     30  C   UNL     1       1.577  -2.240   1.381  0.00  0.00    +0.050 A 
ATOM     31  C   UNL     1       0.956  -1.207   0.698  0.00  0.00    +0.166 A 
ATOM     32  C   UNL     1       1.638  -0.012   0.479  0.00  0.00    +0.167 A 
ATOM     33  C   UNL     1       2.934   0.137   0.946  0.00  0.00    +0.054 A 
ATOM     34  O   UNL     1       0.820   0.837  -0.208  0.00  0.00    -0.453 OA
ATOM     35  C   UNL     1      -0.508   0.303  -0.052  0.00  0.00    +0.466 C 
ATOM     36  O   UNL     1      -0.288  -1.106   0.147  0.00  0.00    -0.453 OA
ENDBRANCH  27  28
ENDBRANCH  23  27
ENDBRANCH  19  20
ENDBRANCH  10  19
TORSDOF 5
