REMARK  Name = ZINC23990067
REMARK  9 active torsions:
REMARK  status: ('A' for Active; 'I' for Inactive)
REMARK    1  A    between atoms: C_1  and  C_2
REMARK    2  A    between atoms: C_3  and  C_34
REMARK    3  A    between atoms: C_10  and  C_12
REMARK    4  A    between atoms: C_16  and  N_18
REMARK    5  A    between atoms: C_19  and  C_21
REMARK    6  A    between atoms: C_21  and  N_22
REMARK    7  A    between atoms: N_22  and  C_23
REMARK    8  A    between atoms: N_22  and  C_24
REMARK    9  A    between atoms: C_24  and  C_25
REMARK                            x       y       z     vdW  Elec       q    Type
REMARK                         _______ _______ _______ _____ _____    ______ ____
ROOT
ATOM      1  C   UNL     1      12.473  -3.930  -0.501  0.00  0.00    +0.019 A 
ATOM      2  C   UNL     1      12.045  -4.043  -1.825  0.00  0.00    +0.011 A 
ATOM      3  C   UNL     1      10.775  -3.635  -2.177  0.00  0.00    +0.002 A 
ATOM      4  C   UNL     1       9.919  -3.121  -1.221  0.00  0.00    +0.023 A 
ATOM      5  C   UNL     1      10.336  -3.000   0.099  0.00  0.00    +0.034 A 
ATOM      6  C   UNL     1      11.611  -3.406   0.463  0.00  0.00    +0.034 A 
ENDROOT
BRANCH   1  16
ATOM      7  C   UNL     1      18.730  -6.126   0.292  0.00  0.00    +0.045 C 
ATOM      8  C   UNL     1      17.648  -5.539   1.161  0.00  0.00    -0.026 A 
ATOM      9  C   UNL     1      17.860  -5.347   2.473  0.00  0.00    -0.008 A 
ATOM     10  S   UNL     1      16.321  -4.649   3.042  0.00  0.00    -0.075 S 
ATOM     11  C   UNL     1      15.439  -4.636   1.502  0.00  0.00    +0.092 A 
ATOM     12  C   UNL     1      16.366  -5.174   0.589  0.00  0.00    +0.075 A 
ATOM     13  C   UNL     1      15.913  -5.283  -0.767  0.00  0.00    +0.282 A 
ATOM     14  O   UNL     1      16.646  -5.737  -1.628  0.00  0.00    -0.265 OA
ATOM     15  N   UNL     1      14.668  -4.877  -1.075  0.00  0.00    -0.191 NA
ATOM     16  C   UNL     1      13.833  -4.365  -0.121  0.00  0.00    +0.143 A 
ATOM     17  N   UNL     1      14.226  -4.249   1.129  0.00  0.00    -0.333 N 
ATOM     18  C   UNL     1      19.100  -5.650   3.273  0.00  0.00    +0.052 C 
ATOM     19  H   UNL     1      13.532  -3.825   1.870  0.00  0.00    +0.168 HD
ENDBRANCH   1  16
BRANCH   5  20
ATOM     20  N   UNL     1       9.468  -2.474   1.063  0.00  0.00    -0.287 N 
ATOM     21  C   UNL     1       9.513  -2.929   2.331  0.00  0.00    +0.201 C 
ATOM     22  O   UNL     1      10.238  -3.858   2.616  0.00  0.00    -0.278 OA
ATOM     23  H   UNL     1       8.749  -1.690   0.785  0.00  0.00    +0.155 HD
BRANCH  21  24
ATOM     24  C   UNL     1       8.663  -2.282   3.394  0.00  0.00    +0.019 C 
BRANCH  24  25
ATOM     25  N   UNL     1       8.892  -2.954   4.680  0.00  0.00    +0.386 N 
ATOM     26  C   UNL     1       8.408  -4.341   4.642  0.00  0.00    -0.095 C 
ATOM     27  H   UNL     1       9.976  -2.979   4.860  0.00  0.00    -0.081 HD
BRANCH  25  28
ATOM     28  C   UNL     1       8.268  -2.209   5.781  0.00  0.00    -0.043 C 
BRANCH  28  29
ATOM     29  C   UNL     1       8.724  -2.784   7.098  0.00  0.00    -0.060 A 
ATOM     30  C   UNL     1       9.859  -2.287   7.711  0.00  0.00    +0.005 A 
ATOM     31  C   UNL     1      10.281  -2.811   8.919  0.00  0.00    +0.050 A 
ATOM     32  C   UNL     1       9.567  -3.836   9.517  0.00  0.00    +0.166 A 
ATOM     33  C   UNL     1       8.423  -4.336   8.900  0.00  0.00    +0.166 A 
ATOM     34  C   UNL     1       8.006  -3.806   7.690  0.00  0.00    +0.051 A 
ATOM     35  O   UNL     1       7.905  -5.329   9.680  0.00  0.00    -0.453 OA
ATOM     36  C   UNL     1       8.509  -5.155  10.975  0.00  0.00    +0.466 C 
ATOM     37  O   UNL     1       9.766  -4.516  10.684  0.00  0.00    -0.453 OA
ENDBRANCH  28  29
ENDBRANCH  25  28
ENDBRANCH  24  25
ENDBRANCH  21  24
ENDBRANCH   5  20
TORSDOF 6
