REMARK  Name = ZINC14158487
REMARK  11 active torsions:
REMARK  status: ('A' for Active; 'I' for Inactive)
REMARK    1  A    between atoms: C_1  and  C_2
REMARK    2  A    between atoms: C_2  and  C_28
REMARK    3  A    between atoms: N_5  and  C_9
REMARK    4  A    between atoms: C_9  and  C_10
REMARK    5  A    between atoms: N_15  and  S_18
REMARK    6  A    between atoms: S_18  and  C_21
REMARK    7  A    between atoms: C_21  and  C_22
REMARK    8  A    between atoms: C_31  and  C_34
REMARK    9  A    between atoms: C_34  and  C_35
REMARK   10  A    between atoms: C_34  and  C_36
REMARK   11  A    between atoms: C_34  and  C_37
REMARK                            x       y       z     vdW  Elec       q    Type
REMARK                         _______ _______ _______ _____ _____    ______ ____
ROOT
ATOM      1  C   UNL     1      -5.861   2.654  -9.107  0.00  0.00    +0.047 C 
ATOM      2  C   UNL     1      -5.250   3.578  -8.052  0.00  0.00    +0.135 C 
ATOM      3  C   UNL     1      -4.369   2.793  -7.101  0.00  0.00    +0.251 C 
ATOM      4  O   UNL     1      -3.371   2.163  -7.379  0.00  0.00    -0.272 OA
ATOM      5  N   UNL     1      -4.925   2.941  -5.882  0.00  0.00    -0.215 N 
ATOM      6  C   UNL     1      -6.026   3.699  -5.931  0.00  0.00    +0.310 C 
ATOM      7  O   UNL     1      -6.703   3.971  -4.959  0.00  0.00    -0.252 OA
ATOM      8  N   UNL     1      -6.299   4.129  -7.176  0.00  0.00    -0.281 N 
ATOM      9  H   UNL     1      -7.043   4.691  -7.446  0.00  0.00    +0.152 HD
ENDROOT
BRANCH   2  10
ATOM     10  C   UNL     1      -4.468   4.688  -8.706  0.00  0.00    -0.015 A 
ATOM     11  C   UNL     1      -3.110   4.543  -8.921  0.00  0.00    +0.006 A 
ATOM     12  C   UNL     1      -2.393   5.559  -9.525  0.00  0.00    +0.004 A 
ATOM     13  C   UNL     1      -3.032   6.724  -9.905  0.00  0.00    -0.042 A 
ATOM     14  C   UNL     1      -4.389   6.871  -9.685  0.00  0.00    +0.004 A 
ATOM     15  C   UNL     1      -5.107   5.853  -9.086  0.00  0.00    +0.006 A 
BRANCH  13  16
ATOM     16  C   UNL     1      -2.250   7.834 -10.557  0.00  0.00    -0.013 C 
ATOM     17  C   UNL     1      -2.351   9.100  -9.704  0.00  0.00    +0.015 C 
ATOM     18  C   UNL     1      -0.782   7.419 -10.682  0.00  0.00    +0.015 C 
ATOM     19  C   UNL     1      -2.822   8.111 -11.950  0.00  0.00    +0.015 C 
ENDBRANCH  13  16
ENDBRANCH   2  10
BRANCH   5  20
ATOM     20  C   UNL     1      -4.392   2.341  -4.656  0.00  0.00    +0.213 C 
BRANCH  20  21
ATOM     21  C   UNL     1      -3.416   3.293  -4.015  0.00  0.00    +0.234 C 
ATOM     22  O   UNL     1      -3.187   4.366  -4.530  0.00  0.00    -0.274 OA
ATOM     23  N   UNL     1      -2.797   2.951  -2.867  0.00  0.00    -0.298 N 
ATOM     24  C   UNL     1      -1.842   3.869  -2.230  0.00  0.00    +0.125 C 
ATOM     25  C   UNL     1      -0.510   3.134  -2.036  0.00  0.00    +0.128 C 
ATOM     26  N   UNL     1      -0.778   1.837  -1.400  0.00  0.00    -0.178 NA
ATOM     27  C   UNL     1      -1.728   0.916  -2.040  0.00  0.00    +0.128 C 
ATOM     28  C   UNL     1      -3.065   1.654  -2.231  0.00  0.00    +0.125 C 
BRANCH  26  29
ATOM     29  S   UNL     1      -0.017   1.417   0.010  0.00  0.00    +0.036 S 
ATOM     30  O   UNL     1       0.002  -0.004   0.002  0.00  0.00    -0.158 OA
ATOM     31  O   UNL     1       1.195   2.158   0.002  0.00  0.00    -0.158 OA
BRANCH  29  32
ATOM     32  C   UNL     1      -1.110   2.020   1.327  0.00  0.00    +0.220 C 
BRANCH  32  33
ATOM     33  C   UNL     1      -0.509   1.688   2.668  0.00  0.00    -0.025 A 
ATOM     34  C   UNL     1      -0.817   0.490   3.286  0.00  0.00    +0.005 A 
ATOM     35  C   UNL     1      -0.262   0.184   4.515  0.00  0.00    +0.000 A 
ATOM     36  C   UNL     1       0.592   1.080   5.130  0.00  0.00    +0.000 A 
ATOM     37  C   UNL     1       0.895   2.280   4.515  0.00  0.00    +0.000 A 
ATOM     38  C   UNL     1       0.345   2.584   3.284  0.00  0.00    +0.005 A 
ENDBRANCH  32  33
ENDBRANCH  29  32
ENDBRANCH  26  29
ENDBRANCH  20  21
ENDBRANCH   5  20
TORSDOF 7
