REMARK  Name = ZINC06149265
REMARK  15 active torsions:
REMARK  status: ('A' for Active; 'I' for Inactive)
REMARK    1  A    between atoms: C_1  and  C_2
REMARK    2  A    between atoms: C_2  and  C_3
REMARK    3  A    between atoms: C_3  and  C_4
REMARK    4  A    between atoms: C_3  and  C_5
REMARK    5  A    between atoms: C_3  and  N_6
REMARK    6  A    between atoms: C_7  and  C_11
REMARK    7  A    between atoms: C_11  and  C_13
REMARK    8  A    between atoms: C_11  and  N_77
REMARK    9  A    between atoms: C_18  and  C_25
REMARK   10  A    between atoms: C_26  and  C_27
REMARK   11  A    between atoms: C_26  and  N_77
REMARK   12  A    between atoms: C_30  and  O_33
REMARK   13  A    between atoms: O_33  and  C_34
REMARK   14  A    between atoms: C_35  and  C_36
REMARK   15  A    between atoms: C_35  and  N_77
REMARK                            x       y       z     vdW  Elec       q    Type
REMARK                         _______ _______ _______ _____ _____    ______ ____
ROOT
ATOM      1  C   UNL     1       1.689  -2.199   0.230  0.00  0.00    +0.039 C 
ENDROOT
BRANCH   1   2
ATOM      2  C   UNL     1       1.580  -0.704   0.385  0.00  0.00    +0.011 A 
ATOM      3  C   UNL     1       1.449   0.081  -0.713  0.00  0.00    +0.017 A 
ATOM      4  C   UNL     1       1.346   1.530  -0.529  0.00  0.00    -0.001 A 
ATOM      5  C   UNL     1       1.208   2.391  -1.622  0.00  0.00    +0.010 A 
ATOM      6  C   UNL     1       1.112   3.738  -1.416  0.00  0.00    +0.004 A 
ATOM      7  C   UNL     1       1.153   4.260  -0.131  0.00  0.00    -0.048 A 
ATOM      8  C   UNL     1       1.288   3.431   0.962  0.00  0.00    +0.029 A 
ATOM      9  C   UNL     1       1.386   2.056   0.776  0.00  0.00    +0.049 A 
ATOM     10  N   UNL     1       1.522   1.203   1.851  0.00  0.00    -0.322 N 
ATOM     11  H   UNL     1       1.551   1.579   2.778  0.00  0.00    +0.169 HD
ATOM     12  C   UNL     1       1.616  -0.126   1.672  0.00  0.00    +0.251 A 
ATOM     13  O   UNL     1       1.736  -0.850   2.645  0.00  0.00    -0.268 OA
ATOM     14  C   UNL     1       1.046   5.750   0.072  0.00  0.00    +0.044 C 
ENDBRANCH   1   2
BRANCH   1  16
ATOM     15  N   UNL     1       1.825  -3.284  -2.074  0.00  0.00    -0.225 N 
ATOM     16  C   UNL     1       1.160  -2.604  -1.122  0.00  0.00    +0.143 A 
ATOM     17  N   UNL     1      -0.039  -2.367  -1.596  0.00  0.00    -0.115 NA
ATOM     18  N   UNL     1      -0.104  -2.868  -2.781  0.00  0.00    -0.023 NA
ATOM     19  N   UNL     1       1.019  -3.426  -3.072  0.00  0.00    -0.043 NA
BRANCH  15  20
ATOM     20  C   UNL     1       3.204  -3.772  -1.993  0.00  0.00    +0.061 C 
ATOM     21  C   UNL     1       4.147  -2.596  -1.734  0.00  0.00    +0.036 C 
ATOM     22  C   UNL     1       3.321  -4.782  -0.849  0.00  0.00    +0.036 C 
BRANCH  20  24
ATOM     23  C   UNL     1       5.024  -4.959  -3.226  0.00  0.00    +0.006 C 
ATOM     24  C   UNL     1       3.584  -4.449  -3.311  0.00  0.00    +0.026 C 
ENDBRANCH  20  24
ENDBRANCH  15  20
ENDBRANCH   1  16
BRANCH   1  25
ATOM     25  N   UNL     1       0.907  -2.845   1.305  0.00  0.00    +0.394 N 
ATOM     26  H   UNL     1       1.066  -2.337   2.184  0.00  0.00    -0.080 HD
BRANCH  25  27
ATOM     27  C   UNL     1       1.343  -4.246   1.476  0.00  0.00    -0.041 C 
BRANCH  27  28
ATOM     28  C   UNL     1       0.648  -4.830   2.679  0.00  0.00    -0.064 A 
ATOM     29  C   UNL     1       1.160  -4.612   3.945  0.00  0.00    +0.005 A 
ATOM     30  C   UNL     1       0.522  -5.141   5.050  0.00  0.00    +0.046 A 
ATOM     31  C   UNL     1      -0.627  -5.902   4.887  0.00  0.00    +0.120 A 
ATOM     32  C   UNL     1      -1.135  -6.124   3.616  0.00  0.00    +0.046 A 
ATOM     33  C   UNL     1      -0.496  -5.588   2.514  0.00  0.00    +0.005 A 
BRANCH  31  34
ATOM     34  O   UNL     1      -1.253  -6.429   5.972  0.00  0.00    -0.495 OA
ATOM     35  C   UNL     1      -0.673  -6.159   7.250  0.00  0.00    +0.277 C 
ENDBRANCH  31  34
ENDBRANCH  27  28
ENDBRANCH  25  27
BRANCH  25  36
ATOM     36  C   UNL     1      -0.534  -2.800   0.979  0.00  0.00    -0.045 C 
BRANCH  36  37
ATOM     37  C   UNL     1      -1.070  -1.407   1.317  0.00  0.00    +0.102 C 
ATOM     38  C   UNL     1      -2.614  -1.417   1.340  0.00  0.00    +0.032 C 
ATOM     39  C   UNL     1      -3.007  -0.049   0.739  0.00  0.00    +0.030 C 
ATOM     40  C   UNL     1      -1.653   0.625   0.424  0.00  0.00    +0.160 C 
ATOM     41  O   UNL     1      -0.720  -0.468   0.278  0.00  0.00    -0.378 OA
ENDBRANCH  36  37
ENDBRANCH  25  36
ENDBRANCH   1  25
TORSDOF 10
