REMARK  Name = ZINC12479751
REMARK  14 active torsions:
REMARK  status: ('A' for Active; 'I' for Inactive)
REMARK    1  A    between atoms: C_1  and  C_2
REMARK    2  A    between atoms: C_5  and  C_37
REMARK    3  A    between atoms: C_6  and  N_8
REMARK    4  A    between atoms: N_8  and  C_9
REMARK    5  A    between atoms: C_9  and  C_11
REMARK    6  A    between atoms: C_9  and  C_18
REMARK    7  A    between atoms: N_20  and  C_21
REMARK    8  A    between atoms: C_21  and  C_22
REMARK    9  A    between atoms: C_22  and  C_23
REMARK   10  A    between atoms: C_23  and  C_24
REMARK   11  A    between atoms: C_23  and  C_25
REMARK   12  A    between atoms: C_26  and  C_28
REMARK   13  A    between atoms: C_29  and  N_36
REMARK   14  A    between atoms: C_30  and  C_33
REMARK                            x       y       z     vdW  Elec       q    Type
REMARK                         _______ _______ _______ _____ _____    ______ ____
ROOT
ATOM      1  N   UNL     1      -4.418   2.696   2.433  0.00  0.00    -0.251 N 
ATOM      2  C   UNL     1      -4.522   3.217   1.195  0.00  0.00    +0.262 C 
ATOM      3  O   UNL     1      -5.171   2.638   0.343  0.00  0.00    -0.269 OA
ENDROOT
BRANCH   1   9
ATOM      4  C   UNL     1      -0.084   3.580   4.577  0.00  0.00    +0.044 C 
ATOM      5  C   UNL     1      -1.570   3.809   4.473  0.00  0.00    -0.049 A 
ATOM      6  C   UNL     1      -2.197   4.678   5.347  0.00  0.00    +0.004 A 
ATOM      7  C   UNL     1      -3.560   4.891   5.255  0.00  0.00    +0.005 A 
ATOM      8  C   UNL     1      -4.300   4.235   4.290  0.00  0.00    -0.029 A 
ATOM      9  C   UNL     1      -3.673   3.361   3.412  0.00  0.00    +0.041 A 
ATOM     10  C   UNL     1      -2.302   3.154   3.503  0.00  0.00    +0.027 A 
ATOM     11  C   UNL     1      -5.785   4.468   4.190  0.00  0.00    +0.045 C 
ENDBRANCH   1   9
BRANCH   2  12
ATOM     12  C   UNL     1      -3.853   4.479   0.873  0.00  0.00    +0.116 A 
ATOM     13  C   UNL     1      -3.825   5.184  -0.332  0.00  0.00    +0.076 A 
ATOM     14  C   UNL     1      -3.078   6.359  -0.245  0.00  0.00    +0.155 A 
ATOM     15  N   UNL     1      -2.496   6.670   0.892  0.00  0.00    -0.203 NA
ATOM     16  S   UNL     1      -2.853   5.523   1.913  0.00  0.00    +0.019 S 
BRANCH  14  17
ATOM     17  C   UNL     1      -2.938   7.240  -1.419  0.00  0.00    +0.262 C 
ATOM     18  O   UNL     1      -3.478   6.947  -2.468  0.00  0.00    -0.269 OA
ATOM     19  N   UNL     1      -2.210   8.371  -1.330  0.00  0.00    -0.324 N 
ATOM     20  H   UNL     1      -1.778   8.605  -0.493  0.00  0.00    +0.145 HD
ATOM     21  H   UNL     1      -2.117   8.951  -2.102  0.00  0.00    +0.145 HD
ENDBRANCH  14  17
BRANCH  13  22
ATOM     22  N   UNL     1      -4.471   4.764  -1.486  0.00  0.00    -0.355 N 
ATOM     23  H   UNL     1      -4.979   3.938  -1.485  0.00  0.00    +0.142 HD
ATOM     24  H   UNL     1      -4.415   5.297  -2.295  0.00  0.00    +0.142 HD
ENDBRANCH  13  22
ENDBRANCH   2  12
BRANCH   1  25
ATOM     25  C   UNL     1      -5.087   1.433   2.755  0.00  0.00    +0.197 C 
BRANCH  25  26
ATOM     26  C   UNL     1      -4.941   1.148   4.227  0.00  0.00    -0.018 A 
ATOM     27  C   UNL     1      -3.684   0.966   4.774  0.00  0.00    +0.007 A 
ATOM     28  C   UNL     1      -3.550   0.710   6.126  0.00  0.00    +0.020 A 
ATOM     29  C   UNL     1      -4.673   0.624   6.929  0.00  0.00    +0.041 A 
ATOM     30  C   UNL     1      -5.930   0.800   6.380  0.00  0.00    +0.020 A 
ATOM     31  C   UNL     1      -6.064   1.062   5.029  0.00  0.00    +0.007 A 
ATOM     32 CL   UNL     1      -4.504   0.296   8.625  0.00  0.00    -0.084 Cl
ENDBRANCH  25  26
BRANCH  25  33
ATOM     33  C   UNL     1      -4.459   0.316   1.962  0.00  0.00    +0.238 C 
ATOM     34  O   UNL     1      -3.542   0.552   1.203  0.00  0.00    -0.273 OA
ATOM     35  N   UNL     1      -4.915  -0.945   2.096  0.00  0.00    -0.313 N 
ATOM     36  H   UNL     1      -5.648  -1.134   2.703  0.00  0.00    +0.149 HD
BRANCH  35  37
ATOM     37  C   UNL     1      -4.304  -2.031   1.325  0.00  0.00    +0.104 C 
BRANCH  37  38
ATOM     38  C   UNL     1      -5.002  -3.350   1.661  0.00  0.00    +0.022 C 
BRANCH  38  39
ATOM     39  C   UNL     1      -4.364  -4.484   0.856  0.00  0.00    -0.016 C 
ATOM     40  C   UNL     1      -4.977  -5.820   1.282  0.00  0.00    +0.007 C 
ATOM     41  C   UNL     1      -4.621  -4.258  -0.635  0.00  0.00    +0.007 C 
ENDBRANCH  38  39
ENDBRANCH  37  38
ENDBRANCH  35  37
ENDBRANCH  25  33
ENDBRANCH   1  25
TORSDOF 10
