REMARK  Name = ZINC02492909
REMARK  5 active torsions:
REMARK  status: ('A' for Active; 'I' for Inactive)
REMARK    1  A    between atoms: C_1  and  C_2
REMARK    2  A    between atoms: C_14  and  C_17
REMARK    3  A    between atoms: C_20  and  N_23
REMARK    4  A    between atoms: N_23  and  C_24
REMARK    5  A    between atoms: N_23  and  C_25
REMARK                            x       y       z     vdW  Elec       q    Type
REMARK                         _______ _______ _______ _____ _____    ______ ____
ROOT
ATOM      1  C   UNL     1      -0.013   1.528   0.114  0.00  0.00    +0.008 C 
ATOM      2  C   UNL     1       0.007  -0.002   0.088  0.00  0.00    -0.009 C 
ATOM      3  C   UNL     1       0.725  -0.483  -1.176  0.00  0.00    +0.008 C 
ATOM      4  C   UNL     1       0.536  -1.993  -1.337  0.00  0.00    +0.037 C 
ATOM      5  C   UNL     1       0.943  -2.678  -0.040  0.00  0.00    -0.023 A 
ATOM      6  C   UNL     1       1.029  -1.987   1.118  0.00  0.00    -0.004 A 
ATOM      7  S   UNL     1       1.527  -3.184   2.326  0.00  0.00    -0.078 S 
ATOM      8  C   UNL     1       1.622  -4.528   1.358  0.00  0.00    +0.080 A 
ATOM      9  C   UNL     1       1.265  -4.090   0.075  0.00  0.00    +0.068 A 
ATOM     10  C   UNL     1       1.245  -5.094  -1.014  0.00  0.00    +0.248 C 
ATOM     11  O   UNL     1       0.776  -4.834  -2.107  0.00  0.00    -0.270 OA
ATOM     12  N   UNL     1       1.768  -6.309  -0.744  0.00  0.00    -0.289 N 
ATOM     13  C   UNL     1       2.480  -6.622   0.490  0.00  0.00    +0.190 C 
ATOM     14  N   UNL     1       1.965  -5.832   1.622  0.00  0.00    -0.316 N 
ATOM     15  C   UNL     1       0.757  -0.528   1.320  0.00  0.00    +0.046 C 
ATOM     16  H   UNL     1       1.664  -7.011  -1.405  0.00  0.00    +0.151 HD
ATOM     17  H   UNL     1       1.874  -6.213   2.510  0.00  0.00    +0.149 HD
ENDROOT
BRANCH  13  18
ATOM     18  C   UNL     1       3.945  -6.319   0.304  0.00  0.00    -0.009 A 
ATOM     19  C   UNL     1       4.713  -5.935   1.388  0.00  0.00    +0.009 A 
ATOM     20  C   UNL     1       6.055  -5.657   1.222  0.00  0.00    +0.023 A 
ATOM     21  C   UNL     1       6.634  -5.763  -0.037  0.00  0.00    +0.029 A 
ATOM     22  C   UNL     1       5.860  -6.150  -1.123  0.00  0.00    +0.023 A 
ATOM     23  C   UNL     1       4.519  -6.432  -0.949  0.00  0.00    +0.009 A 
BRANCH  21  24
ATOM     24  N   UNL     1       7.991  -5.482  -0.209  0.00  0.00    -0.336 N 
ATOM     25  C   UNL     1       8.777  -4.955   0.909  0.00  0.00    +0.129 C 
ATOM     26  C   UNL     1       8.629  -5.715  -1.507  0.00  0.00    +0.129 C 
ENDBRANCH  21  24
ENDBRANCH  13  18
TORSDOF 2
