REMARK  Name = ZINC19973400
REMARK  11 active torsions:
REMARK  status: ('A' for Active; 'I' for Inactive)
REMARK    1  A    between atoms: C_1  and  C_2
REMARK    2  A    between atoms: C_2  and  C_3
REMARK    3  A    between atoms: C_2  and  C_4
REMARK    4  A    between atoms: C_2  and  N_5
REMARK    5  A    between atoms: C_6  and  C_10
REMARK    6  A    between atoms: C_10  and  C_12
REMARK    7  A    between atoms: C_10  and  N_27
REMARK    8  A    between atoms: N_27  and  C_28
REMARK    9  A    between atoms: N_27  and  C_35
REMARK   10  A    between atoms: C_28  and  C_29
REMARK   11  A    between atoms: C_35  and  C_36
REMARK                            x       y       z     vdW  Elec       q    Type
REMARK                         _______ _______ _______ _____ _____    ______ ____
ROOT
ATOM      1  C   UNL     1      -3.757   1.550   0.483  0.00  0.00    +0.163 C 
ENDROOT
BRANCH   1   2
ATOM      2  C   UNL     1      -2.976   0.298   0.792  0.00  0.00    +0.042 A 
ATOM      3  C   UNL     1      -1.666   0.386   1.136  0.00  0.00    +0.021 A 
ATOM      4  C   UNL     1      -0.934  -0.847   1.423  0.00  0.00    +0.003 A 
ATOM      5  C   UNL     1       0.420  -0.817   1.779  0.00  0.00    +0.059 A 
ATOM      6  C   UNL     1       1.081  -1.995   2.051  0.00  0.00    +0.167 A 
ATOM      7  C   UNL     1       0.404  -3.218   1.972  0.00  0.00    +0.168 A 
ATOM      8  C   UNL     1      -0.933  -3.257   1.620  0.00  0.00    +0.075 A 
ATOM      9  C   UNL     1      -1.614  -2.078   1.344  0.00  0.00    +0.053 A 
ATOM     10  N   UNL     1      -2.949  -2.098   0.994  0.00  0.00    -0.322 N 
ATOM     11  H   UNL     1      -3.486  -3.056   0.929  0.00  0.00    +0.169 HD
ATOM     12  C   UNL     1      -3.611  -0.959   0.727  0.00  0.00    +0.254 A 
ATOM     13  O   UNL     1      -4.790  -1.014   0.421  0.00  0.00    -0.268 OA
ATOM     14  O   UNL     1       1.278  -4.217   2.286  0.00  0.00    -0.453 OA
ATOM     15  C   UNL     1       2.377  -3.572   2.956  0.00  0.00    +0.466 C 
ATOM     16  O   UNL     1       2.375  -2.238   2.415  0.00  0.00    -0.453 OA
ENDBRANCH   1   2
BRANCH   1  18
ATOM     17  N   UNL     1      -3.736   2.309  -1.952  0.00  0.00    -0.222 N 
ATOM     18  C   UNL     1      -4.196   1.525  -0.959  0.00  0.00    +0.174 A 
ATOM     19  N   UNL     1      -5.103   0.741  -1.487  0.00  0.00    -0.111 NA
ATOM     20  N   UNL     1      -5.192   1.024  -2.741  0.00  0.00    -0.023 NA
ATOM     21  N   UNL     1      -4.365   1.969  -3.026  0.00  0.00    -0.043 NA
BRANCH  17  23
ATOM     22  C   UNL     1      -1.426   2.739  -1.274  0.00  0.00    +0.036 C 
ATOM     23  C   UNL     1      -2.711   3.349  -1.836  0.00  0.00    +0.059 C 
ATOM     24  C   UNL     1      -2.431   3.945  -3.217  0.00  0.00    +0.036 C 
ATOM     25  C   UNL     1      -3.206   4.451  -0.897  0.00  0.00    +0.036 C 
ENDBRANCH  17  23
ENDBRANCH   1  18
BRANCH   1  26
ATOM     26  N   UNL     1      -4.938   1.617   1.353  0.00  0.00    -0.277 NA
BRANCH  26  27
ATOM     27  C   UNL     1      -4.573   1.377   2.756  0.00  0.00    +0.121 C 
BRANCH  27  28
ATOM     28  C   UNL     1      -5.811   1.042   3.547  0.00  0.00    -0.033 A 
ATOM     29  C   UNL     1      -6.515   2.045   4.187  0.00  0.00    +0.005 A 
ATOM     30  C   UNL     1      -7.653   1.738   4.909  0.00  0.00    +0.000 A 
ATOM     31  C   UNL     1      -8.082   0.427   4.999  0.00  0.00    +0.000 A 
ATOM     32  C   UNL     1      -7.375  -0.577   4.363  0.00  0.00    +0.000 A 
ATOM     33  C   UNL     1      -6.240  -0.269   3.637  0.00  0.00    +0.005 A 
ENDBRANCH  27  28
ENDBRANCH  26  27
BRANCH  26  34
ATOM     34  C   UNL     1      -5.630   2.904   1.203  0.00  0.00    +0.160 C 
BRANCH  34  35
ATOM     35  C   UNL     1      -6.442   2.892  -0.067  0.00  0.00    +0.119 A 
ATOM     36  C   UNL     1      -7.672   2.367  -0.209  0.00  0.00    +0.046 A 
ATOM     37  C   UNL     1      -8.054   2.575  -1.554  0.00  0.00    +0.041 A 
ATOM     38  C   UNL     1      -7.034   3.215  -2.154  0.00  0.00    +0.195 A 
ATOM     39  O   UNL     1      -6.063   3.409  -1.247  0.00  0.00    -0.467 OA
ENDBRANCH  34  35
ENDBRANCH  26  34
ENDBRANCH   1  26
TORSDOF 8
