REMARK  Name = ZINC22679986
REMARK  12 active torsions:
REMARK  status: ('A' for Active; 'I' for Inactive)
REMARK    1  A    between atoms: C_1  and  C_2
REMARK    2  A    between atoms: C_2  and  C_3
REMARK    3  A    between atoms: C_2  and  C_4
REMARK    4  A    between atoms: C_4  and  C_5
REMARK    5  A    between atoms: C_5  and  C_7
REMARK    6  A    between atoms: C_5  and  N_26
REMARK    7  A    between atoms: N_9  and  C_10
REMARK    8  A    between atoms: C_10  and  C_11
REMARK    9  A    between atoms: C_11  and  C_13
REMARK   10  A    between atoms: C_11  and  N_21
REMARK   11  A    between atoms: C_18  and  O_19
REMARK   12  A    between atoms: O_19  and  C_20
REMARK                            x       y       z     vdW  Elec       q    Type
REMARK                         _______ _______ _______ _____ _____    ______ ____
ROOT
ATOM      1  C   UNL     1      -0.015   1.243  -0.139  0.00  0.00    +0.234 C 
ATOM      2  O   UNL     1       0.019   0.032  -0.081  0.00  0.00    -0.274 OA
ATOM      3  N   UNL     1      -1.198   1.887  -0.100  0.00  0.00    -0.315 N 
ATOM      4  H   UNL     1      -1.229   2.985  -0.152  0.00  0.00    +0.149 HD
ENDROOT
BRANCH   1   5
ATOM      5  C   UNL     1       1.266   2.027  -0.260  0.00  0.00    +0.170 C 
BRANCH   5   6
ATOM      6  N   UNL     1       2.403   1.104  -0.288  0.00  0.00    -0.230 N 
ATOM      7  C   UNL     1       2.554   0.152  -1.229  0.00  0.00    +0.227 C 
ATOM      8  O   UNL     1       1.922   0.052  -2.259  0.00  0.00    -0.275 OA
ATOM      9  C   UNL     1       3.678  -0.783  -0.755  0.00  0.00    +0.091 C 
ATOM     10  C   UNL     1       2.971  -1.828   0.112  0.00  0.00    +0.040 C 
ATOM     11  C   UNL     1       3.791  -2.290   1.267  0.00  0.00    -0.030 C 
ATOM     12  C   UNL     1       4.823  -1.670   1.734  0.00  0.00    -0.030 C 
ATOM     13  C   UNL     1       5.359  -0.423   1.135  0.00  0.00    +0.040 C 
ATOM     14  C   UNL     1       4.465   0.207   0.117  0.00  0.00    +0.091 C 
ATOM     15  C   UNL     1       3.394   1.127   0.631  0.00  0.00    +0.227 C 
ATOM     16  O   UNL     1       3.415   1.762   1.663  0.00  0.00    -0.275 OA
ENDBRANCH   5   6
BRANCH   5  17
ATOM     17  C   UNL     1       1.242   2.846  -1.552  0.00  0.00    +0.035 C 
BRANCH  17  19
ATOM     18  C   UNL     1       2.525   4.462  -2.962  0.00  0.00    +0.007 C 
ATOM     19  C   UNL     1       2.485   3.736  -1.615  0.00  0.00    -0.015 C 
ATOM     20  C   UNL     1       2.433   4.765  -0.484  0.00  0.00    +0.007 C 
ENDBRANCH  17  19
ENDBRANCH   5  17
ENDBRANCH   1   5
BRANCH   3  21
ATOM     21  C   UNL     1      -2.444   1.124   0.013  0.00  0.00    +0.093 C 
BRANCH  21  22
ATOM     22  C   UNL     1      -3.622   2.090   0.156  0.00  0.00    -0.017 C 
BRANCH  22  23
ATOM     23  C   UNL     1      -3.773   2.890  -1.112  0.00  0.00    -0.018 A 
ATOM     24  C   UNL     1      -3.194   4.141  -1.213  0.00  0.00    +0.005 A 
ATOM     25  C   UNL     1      -3.329   4.874  -2.377  0.00  0.00    +0.000 A 
ATOM     26  C   UNL     1      -4.051   4.362  -3.440  0.00  0.00    +0.004 A 
ATOM     27  C   UNL     1      -4.635   3.114  -3.342  0.00  0.00    +0.046 A 
ATOM     28  C   UNL     1      -4.498   2.375  -2.176  0.00  0.00    +0.122 A 
BRANCH  28  29
ATOM     29  O   UNL     1      -5.072   1.147  -2.077  0.00  0.00    -0.495 OA
ATOM     30  C   UNL     1      -5.803   0.679  -3.212  0.00  0.00    +0.277 C 
ENDBRANCH  28  29
ENDBRANCH  22  23
BRANCH  22  31
ATOM     31  N   UNL     1      -3.375   2.999   1.283  0.00  0.00    +0.385 N 
ATOM     32  C   UNL     1      -4.523   3.920   1.486  0.00  0.00    -0.078 C 
ATOM     33  C   UNL     1      -4.342   4.396   2.949  0.00  0.00    -0.020 C 
ATOM     34  C   UNL     1      -3.829   3.126   3.665  0.00  0.00    -0.020 C 
ATOM     35  C   UNL     1      -3.232   2.248   2.549  0.00  0.00    -0.078 C 
ATOM     36  H   UNL     1      -2.454   3.545   1.031  0.00  0.00    -0.081 HD
ENDBRANCH  22  31
ENDBRANCH  21  22
ENDBRANCH   3  21
TORSDOF 9
