REMARK  Name = ZINC39314343
REMARK  12 active torsions:
REMARK  status: ('A' for Active; 'I' for Inactive)
REMARK    1  A    between atoms: C_1  and  C_2
REMARK    2  A    between atoms: C_2  and  O_3
REMARK    3  A    between atoms: O_3  and  C_4
REMARK    4  A    between atoms: C_4  and  C_5
REMARK    5  A    between atoms: C_5  and  O_6
REMARK    6  A    between atoms: O_6  and  C_7
REMARK    7  A    between atoms: C_7  and  C_9
REMARK    8  A    between atoms: C_13  and  C_15
REMARK    9  A    between atoms: C_19  and  C_22
REMARK   10  A    between atoms: C_25  and  N_28
REMARK   11  A    between atoms: N_28  and  C_29
REMARK   12  A    between atoms: N_28  and  C_30
REMARK                            x       y       z     vdW  Elec       q    Type
REMARK                         _______ _______ _______ _____ _____    ______ ____
ROOT
ATOM      1  C   UNL     1       0.591  -1.758   6.103  0.00  0.00    +0.132 C 
ATOM      2  N   UNL     1      -0.560  -1.150   6.172  0.00  0.00    -0.248 NA
ATOM      3  C   UNL     1      -0.975  -0.913   7.415  0.00  0.00    +0.050 C 
ATOM      4  C   UNL     1      -0.075  -1.380   8.333  0.00  0.00    +0.025 C 
ATOM      5  C   UNL     1       1.046  -1.987   7.535  0.00  0.00    +0.077 C 
ATOM      6  C   UNL     1       1.179  -3.482   7.831  0.00  0.00    +0.019 C 
ATOM      7  C   UNL     1      -0.255  -1.277   9.727  0.00  0.00    +0.162 C 
ATOM      8  O   UNL     1       0.586  -1.685  10.502  0.00  0.00    -0.292 OA
ATOM      9  C   UNL     1      -1.535  -0.638  10.224  0.00  0.00    +0.088 C 
ATOM     10  C   UNL     1      -2.009   0.414   9.221  0.00  0.00    +0.032 C 
ATOM     11  C   UNL     1      -2.252  -0.224   7.849  0.00  0.00    +0.064 C 
ENDROOT
BRANCH  10  12
ATOM     12  C   UNL     1      -3.292   1.030   9.714  0.00  0.00    -0.043 A 
ATOM     13  C   UNL     1      -4.403   0.234   9.925  0.00  0.00    +0.006 A 
ATOM     14  C   UNL     1      -5.582   0.796  10.377  0.00  0.00    +0.023 A 
ATOM     15  C   UNL     1      -5.650   2.162  10.620  0.00  0.00    +0.029 A 
ATOM     16  C   UNL     1      -4.532   2.958  10.407  0.00  0.00    +0.023 A 
ATOM     17  C   UNL     1      -3.355   2.390   9.960  0.00  0.00    +0.006 A 
BRANCH  15  18
ATOM     18  N   UNL     1      -6.840   2.733  11.076  0.00  0.00    -0.336 N 
ATOM     19  C   UNL     1      -8.018   1.891  11.300  0.00  0.00    +0.129 C 
ATOM     20  C   UNL     1      -6.910   4.173  11.332  0.00  0.00    +0.129 C 
ENDBRANCH  15  18
ENDBRANCH  10  12
BRANCH   1  21
ATOM     21  C   UNL     1       1.309  -2.154   4.874  0.00  0.00    +0.354 C 
ATOM     22  O   UNL     1       2.379  -2.724   4.952  0.00  0.00    -0.244 OA
BRANCH  21  23
ATOM     23  O   UNL     1       0.778  -1.882   3.666  0.00  0.00    -0.458 OA
BRANCH  23  24
ATOM     24  C   UNL     1       1.526  -2.293   2.520  0.00  0.00    +0.260 C 
BRANCH  24  25
ATOM     25  C   UNL     1       0.770  -1.902   1.249  0.00  0.00    +0.201 C 
BRANCH  25  26
ATOM     26  O   UNL     1       0.693  -0.477   1.160  0.00  0.00    -0.377 OA
BRANCH  26  28
ATOM     27  C   UNL     1      -0.019   1.526   0.010  0.00  0.00    +0.034 C 
ATOM     28  C   UNL     1       0.002  -0.004   0.002  0.00  0.00    +0.156 C 
ENDBRANCH  26  28
ENDBRANCH  25  26
ENDBRANCH  24  25
ENDBRANCH  23  24
ENDBRANCH  21  23
ENDBRANCH   1  21
TORSDOF 8
