REMARK  Name = ZINC57651964
REMARK  9 active torsions:
REMARK  status: ('A' for Active; 'I' for Inactive)
REMARK    1  A    between atoms: C_1  and  C_2
REMARK    2  A    between atoms: C_4  and  C_29
REMARK    3  A    between atoms: C_8  and  N_28
REMARK    4  A    between atoms: C_9  and  C_11
REMARK    5  A    between atoms: C_11  and  O_13
REMARK    6  A    between atoms: O_13  and  C_14
REMARK    7  A    between atoms: C_14  and  C_15
REMARK    8  A    between atoms: C_15  and  C_16
REMARK    9  A    between atoms: C_16  and  N_17
REMARK                            x       y       z     vdW  Elec       q    Type
REMARK                         _______ _______ _______ _____ _____    ______ ____
ROOT
ATOM      1  C   UNL     1       1.979  -0.745   4.319  0.00  0.00    +0.348 C 
ATOM      2  O   UNL     1       2.116   0.412   4.672  0.00  0.00    -0.244 OA
ENDROOT
BRANCH   1  11
ATOM      3  C   UNL     1      -1.696   1.372   0.766  0.00  0.00    +0.044 C 
ATOM      4  C   UNL     1      -1.521  -0.123   0.688  0.00  0.00    -0.037 A 
ATOM      5  C   UNL     1      -2.240  -0.864  -0.221  0.00  0.00    +0.025 A 
ATOM      6  C   UNL     1      -2.078  -2.239  -0.290  0.00  0.00    +0.014 A 
ATOM      7  N   UNL     1      -1.231  -2.853   0.513  0.00  0.00    -0.353 N 
ATOM      8  C   UNL     1      -0.520  -2.189   1.399  0.00  0.00    +0.088 A 
ATOM      9  C   UNL     1      -0.609  -0.786   1.546  0.00  0.00    +0.030 A 
ATOM     10  C   UNL     1       0.254  -0.216   2.569  0.00  0.00    +0.055 A 
ATOM     11  C   UNL     1       1.067  -1.067   3.287  0.00  0.00    +0.119 A 
ATOM     12  S   UNL     1       0.683  -2.671   2.612  0.00  0.00    -0.062 S 
ATOM     13  C   UNL     1      -2.873  -3.037  -1.291  0.00  0.00    +0.063 C 
ATOM     14  H   UNL     1      -1.131  -3.816   0.450  0.00  0.00    +0.166 HD
BRANCH  10  15
ATOM     15  N   UNL     1       0.258   1.149   2.816  0.00  0.00    -0.356 N 
ATOM     16  H   UNL     1       0.106   1.774   2.090  0.00  0.00    +0.142 HD
ATOM     17  H   UNL     1       0.414   1.479   3.715  0.00  0.00    +0.142 HD
ENDBRANCH  10  15
ENDBRANCH   1  11
BRANCH   1  18
ATOM     18  O   UNL     1       2.697  -1.721   4.914  0.00  0.00    -0.461 OA
BRANCH  18  19
ATOM     19  C   UNL     1       3.599  -1.324   5.949  0.00  0.00    +0.234 C 
BRANCH  19  20
ATOM     20  C   UNL     1       4.319  -2.558   6.499  0.00  0.00    +0.060 C 
BRANCH  20  21
ATOM     21  C   UNL     1       5.284  -2.133   7.607  0.00  0.00    +0.120 C 
BRANCH  21  22
ATOM     22  N   UNL     1       5.973  -3.314   8.134  0.00  0.00    -0.234 N 
ATOM     23  C   UNL     1       5.524  -4.064   9.156  0.00  0.00    +0.254 C 
ATOM     24  O   UNL     1       4.499  -3.873   9.779  0.00  0.00    -0.270 OA
ATOM     25  C   UNL     1       6.486  -5.161   9.393  0.00  0.00    +0.049 A 
ATOM     26  C   UNL     1       6.550  -6.215  10.290  0.00  0.00    +0.014 A 
ATOM     27  C   UNL     1       7.622  -7.092  10.245  0.00  0.00    +0.001 A 
ATOM     28  C   UNL     1       8.628  -6.921   9.312  0.00  0.00    +0.001 A 
ATOM     29  C   UNL     1       8.578  -5.871   8.409  0.00  0.00    +0.014 A 
ATOM     30  C   UNL     1       7.512  -4.987   8.442  0.00  0.00    +0.049 A 
ATOM     31  C   UNL     1       7.135  -3.793   7.655  0.00  0.00    +0.254 C 
ATOM     32  O   UNL     1       7.770  -3.324   6.732  0.00  0.00    -0.270 OA
ENDBRANCH  21  22
ENDBRANCH  20  21
ENDBRANCH  19  20
ENDBRANCH  18  19
ENDBRANCH   1  18
TORSDOF 7
