REMARK  Name = ZINC64084201
REMARK  5 active torsions:
REMARK  status: ('A' for Active; 'I' for Inactive)
REMARK    1  A    between atoms: C_1  and  C_2
REMARK    2  A    between atoms: C_6  and  C_26
REMARK    3  A    between atoms: C_18  and  C_21
REMARK    4  A    between atoms: N_28  and  C_29
REMARK    5  A    between atoms: C_29  and  C_30
REMARK                            x       y       z     vdW  Elec       q    Type
REMARK                         _______ _______ _______ _____ _____    ______ ____
ROOT
ATOM      1  C   UNL     1      -0.078   1.496  -0.217  0.00  0.00    +0.061 C 
ATOM      2  C   UNL     1      -0.039  -0.009  -0.153  0.00  0.00    +0.012 C 
ATOM      3  C   UNL     1      -0.130  -0.730  -1.295  0.00  0.00    +0.065 C 
ATOM      4  C   UNL     1      -0.155  -2.128  -1.262  0.00  0.00    +0.171 C 
ATOM      5  O   UNL     1      -0.177  -2.755  -2.303  0.00  0.00    -0.292 OA
ATOM      6  C   UNL     1      -0.154  -2.861   0.054  0.00  0.00    +0.166 C 
ATOM      7  C   UNL     1       0.526  -2.021   1.126  0.00  0.00    +0.099 C 
ATOM      8  N   UNL     1       0.093  -0.627   1.053  0.00  0.00    -0.299 N 
ATOM      9  C   UNL     1      -0.140   0.072   2.236  0.00  0.00    +0.048 A 
ATOM     10  C   UNL     1      -1.431   0.379   2.641  0.00  0.00    +0.024 A 
ATOM     11  C   UNL     1      -1.636   1.024   3.847  0.00  0.00    +0.002 A 
ATOM     12  C   UNL     1      -0.567   1.363   4.656  0.00  0.00    +0.001 A 
ATOM     13  C   UNL     1       0.727   1.079   4.251  0.00  0.00    +0.016 A 
ATOM     14  C   UNL     1       0.932   0.458   3.035  0.00  0.00    +0.030 A 
ATOM     15  S   UNL     1       2.576   0.189   2.419  0.00  0.00    -0.115 S 
ATOM     16  C   UNL     1       2.712  -1.620   2.361  0.00  0.00    +0.084 C 
ATOM     17  C   UNL     1       2.018  -2.146   1.106  0.00  0.00    +0.043 C 
ENDROOT
BRANCH  16  18
ATOM     18  C   UNL     1       4.167  -2.011   2.334  0.00  0.00    -0.027 A 
ATOM     19  C   UNL     1       4.698  -2.805   3.334  0.00  0.00    +0.012 A 
ATOM     20  C   UNL     1       6.011  -3.139   3.280  0.00  0.00    +0.045 A 
ATOM     21  S   UNL     1       6.539  -2.321   1.784  0.00  0.00    -0.105 S 
ATOM     22  C   UNL     1       4.973  -1.595   1.327  0.00  0.00    +0.050 A 
ENDBRANCH  16  18
BRANCH   6  23
ATOM     23  C   UNL     1       0.590  -4.162  -0.101  0.00  0.00    +0.226 C 
ATOM     24  O   UNL     1       1.503  -4.249  -0.895  0.00  0.00    -0.275 OA
ATOM     25  N   UNL     1       0.240  -5.231   0.642  0.00  0.00    -0.311 N 
ATOM     26  H   UNL     1      -0.491  -5.162   1.276  0.00  0.00    +0.149 HD
BRANCH  25  27
ATOM     27  C   UNL     1       0.962  -6.497   0.491  0.00  0.00    +0.151 C 
BRANCH  27  28
ATOM     28  C   UNL     1       0.370  -7.538   1.443  0.00  0.00    +0.191 C 
ATOM     29  N   UNL     1      -1.065  -7.701   1.182  0.00  0.00    -0.362 N 
ATOM     30  C   UNL     1      -1.699  -7.378   2.273  0.00  0.00    +0.060 A 
ATOM     31  C   UNL     1      -3.125  -7.339   2.625  0.00  0.00    +0.027 A 
ATOM     32  C   UNL     1      -3.494  -6.954   3.863  0.00  0.00    +0.002 A 
ATOM     33  C   UNL     1      -2.564  -6.581   4.850  0.00  0.00    +0.002 A 
ATOM     34  C   UNL     1      -1.234  -6.580   4.631  0.00  0.00    +0.027 A 
ATOM     35  C   UNL     1      -0.715  -6.983   3.317  0.00  0.00    +0.060 A 
ATOM     36  N   UNL     1       0.490  -7.077   2.832  0.00  0.00    -0.362 N 
ATOM     37  H   UNL     1      -1.468  -7.994   0.350  0.00  0.00    +0.162 HD
ATOM     38  H   UNL     1       1.315  -6.879   3.302  0.00  0.00    +0.162 HD
ENDBRANCH  27  28
ENDBRANCH  25  27
ENDBRANCH   6  23
TORSDOF 4
