REMARK  Name = ZINC63270994
REMARK  9 active torsions:
REMARK  status: ('A' for Active; 'I' for Inactive)
REMARK    1  A    between atoms: C_1  and  C_2
REMARK    2  A    between atoms: C_2  and  C_4
REMARK    3  A    between atoms: C_2  and  N_23
REMARK    4  A    between atoms: N_6  and  C_7
REMARK    5  A    between atoms: C_7  and  C_8
REMARK    6  A    between atoms: C_8  and  C_9
REMARK    7  A    between atoms: N_11  and  C_12
REMARK    8  A    between atoms: C_12  and  C_13
REMARK    9  A    between atoms: C_13  and  C_14
REMARK                            x       y       z     vdW  Elec       q    Type
REMARK                         _______ _______ _______ _____ _____    ______ ____
ROOT
ATOM      1  C   UNL     1       0.731  -0.503   1.223  0.00  0.00    +0.233 C 
ATOM      2  O   UNL     1       1.725  -1.187   1.099  0.00  0.00    -0.274 OA
ATOM      3  N   UNL     1       0.278  -0.191   2.453  0.00  0.00    -0.313 N 
ATOM      4  H   UNL     1      -0.517   0.356   2.553  0.00  0.00    +0.149 HD
ENDROOT
BRANCH   1   6
ATOM      5  C   UNL     1      -0.019   1.526   0.010  0.00  0.00    +0.038 C 
ATOM      6  C   UNL     1       0.002  -0.004   0.002  0.00  0.00    +0.161 C 
BRANCH   6   7
ATOM      7  N   UNL     1       0.688  -0.476  -1.203  0.00  0.00    -0.271 N 
ATOM      8  C   UNL     1      -0.035  -1.317  -2.159  0.00  0.00    +0.214 C 
ATOM      9  N   UNL     1       0.434  -1.055  -3.524  0.00  0.00    -0.328 N 
ATOM     10  C   UNL     1       1.801  -0.929  -3.750  0.00  0.00    +0.040 A 
ATOM     11  C   UNL     1       2.372  -1.263  -4.966  0.00  0.00    +0.024 A 
ATOM     12  C   UNL     1       3.733  -1.110  -5.147  0.00  0.00    +0.002 A 
ATOM     13  C   UNL     1       4.530  -0.626  -4.122  0.00  0.00    +0.001 A 
ATOM     14  C   UNL     1       3.978  -0.294  -2.903  0.00  0.00    +0.015 A 
ATOM     15  C   UNL     1       2.607  -0.447  -2.705  0.00  0.00    +0.058 A 
ATOM     16  C   UNL     1       1.972  -0.125  -1.415  0.00  0.00    +0.250 C 
ATOM     17  O   UNL     1       2.602   0.450  -0.548  0.00  0.00    -0.270 OA
ATOM     18  H   UNL     1      -0.197  -0.971  -4.256  0.00  0.00    +0.148 HD
ENDBRANCH   6   7
ENDBRANCH   1   6
BRANCH   3  19
ATOM     19  C   UNL     1       0.986  -0.676   3.640  0.00  0.00    +0.113 C 
BRANCH  19  20
ATOM     20  C   UNL     1       0.270  -0.182   4.899  0.00  0.00    +0.114 C 
BRANCH  20  21
ATOM     21  C   UNL     1       0.999  -0.682   6.120  0.00  0.00    +0.215 C 
ATOM     22  O   UNL     1       1.993  -1.365   5.995  0.00  0.00    -0.276 OA
ATOM     23  N   UNL     1       0.546  -0.369   7.350  0.00  0.00    -0.315 N 
ATOM     24  H   UNL     1      -0.249   0.177   7.449  0.00  0.00    +0.149 HD
BRANCH  23  25
ATOM     25  C   UNL     1       1.254  -0.854   8.537  0.00  0.00    +0.108 C 
BRANCH  25  26
ATOM     26  C   UNL     1       0.538  -0.361   9.796  0.00  0.00    +0.052 C 
BRANCH  26  27
ATOM     27  C   UNL     1       1.267  -0.860  11.016  0.00  0.00    -0.040 C 
ATOM     28  C   UNL     1       2.203  -0.197  11.733  0.00  0.00    -0.001 A 
ATOM     29  C   UNL     1       2.801   1.137  11.594  0.00  0.00    +0.010 A 
ATOM     30  C   UNL     1       3.738   1.532  12.486  0.00  0.00    +0.001 A 
ATOM     31  C   UNL     1       4.152   0.701  13.536  0.00  0.00    +0.002 A 
ATOM     32  C   UNL     1       3.649  -0.537  13.729  0.00  0.00    +0.026 A 
ATOM     33  C   UNL     1       2.657  -1.054  12.851  0.00  0.00    +0.043 A 
ATOM     34  N   UNL     1       2.026  -2.203  12.827  0.00  0.00    -0.380 N 
ATOM     35  C   UNL     1       1.095  -2.202  11.693  0.00  0.00    +0.144 C 
ATOM     36  H   UNL     1       2.151  -2.931  13.456  0.00  0.00    +0.160 HD
ENDBRANCH  26  27
ENDBRANCH  25  26
ENDBRANCH  23  25
ENDBRANCH  20  21
ENDBRANCH  19  20
ENDBRANCH   3  19
TORSDOF 8
