REMARK  Name = ZINC20599612
REMARK  6 active torsions:
REMARK  status: ('A' for Active; 'I' for Inactive)
REMARK    1  A    between atoms: C_5  and  C_7
REMARK    2  A    between atoms: C_7  and  C_8
REMARK    3  A    between atoms: C_8  and  C_15
REMARK    4  A    between atoms: N_18  and  C_21
REMARK    5  A    between atoms: C_21  and  C_22
REMARK    6  A    between atoms: C_27  and  C_28
REMARK                            x       y       z     vdW  Elec       q    Type
REMARK                         _______ _______ _______ _____ _____    ______ ____
ROOT
ATOM      1  C   UNL     1      -0.013   1.086   0.008  0.00  0.00    +0.018 C 
ATOM      2  C   UNL     1      -0.732   1.581   1.266  0.00  0.00    -0.013 C 
ATOM      3  C   UNL     1      -2.185   1.096   1.239  0.00  0.00    -0.078 C 
ATOM      4  N   UNL     1      -2.852   1.610   0.036  0.00  0.00    +0.382 N 
ATOM      5  C   UNL     1      -2.207   1.109  -1.184  0.00  0.00    -0.078 C 
ATOM      6  C   UNL     1      -0.756   1.594  -1.230  0.00  0.00    -0.013 C 
ATOM      7  H   UNL     1      -2.756   2.705   0.042  0.00  0.00    -0.081 HD
ENDROOT
BRANCH   1   8
ATOM      8  C   UNL     1       1.422   1.617  -0.003  0.00  0.00    +0.119 C 
ATOM      9  C   UNL     1       2.151   1.157  -1.250  0.00  0.00    +0.245 C 
ATOM     10  O   UNL     1       2.385   0.015  -1.582  0.00  0.00    -0.273 OA
ATOM     11  N   UNL     1       2.485   2.282  -1.912  0.00  0.00    -0.238 N 
ATOM     12  C   UNL     1       2.073   3.377  -1.264  0.00  0.00    +0.307 C 
ATOM     13  O   UNL     1       2.257   4.510  -1.665  0.00  0.00    -0.252 OA
ATOM     14  N   UNL     1       1.431   3.085  -0.118  0.00  0.00    -0.284 N 
ATOM     15  H   UNL     1       3.031   2.218  -2.865  0.00  0.00    +0.159 HD
ATOM     16  H   UNL     1       0.961   3.701   0.663  0.00  0.00    +0.151 HD
BRANCH   8  17
ATOM     17  C   UNL     1       2.170   1.168   1.254  0.00  0.00    +0.073 C 
BRANCH  17  22
ATOM     18  C   UNL     1       5.881   1.696   0.807  0.00  0.00    +0.000 A 
ATOM     19  C   UNL     1       6.045   2.968   1.325  0.00  0.00    +0.003 A 
ATOM     20  C   UNL     1       4.955   3.658   1.821  0.00  0.00    +0.038 A 
ATOM     21  C   UNL     1       3.699   3.076   1.798  0.00  0.00    +0.127 A 
ATOM     22  C   UNL     1       3.537   1.803   1.280  0.00  0.00    -0.010 A 
ATOM     23  C   UNL     1       4.629   1.112   0.790  0.00  0.00    +0.006 A 
ATOM     24  F   UNL     1       2.633   3.750   2.282  0.00  0.00    -0.205 F 
ENDBRANCH  17  22
ENDBRANCH   8  17
ENDBRANCH   1   8
BRANCH   4  25
ATOM     25  C   UNL     1      -4.284   1.280   0.048  0.00  0.00    -0.039 C 
BRANCH  25  26
ATOM     26  C   UNL     1      -4.859   1.585   1.406  0.00  0.00    -0.019 A 
ATOM     27  C   UNL     1      -5.100   0.689   2.388  0.00  0.00    +0.107 A 
ATOM     28  N   UNL     1      -5.614   1.356   3.444  0.00  0.00    -0.284 N 
ATOM     29  H   UNL     1      -5.885   0.810   4.360  0.00  0.00    +0.188 HD
ATOM     30  N   UNL     1      -5.695   2.713   3.106  0.00  0.00    -0.174 NA
ATOM     31  C   UNL     1      -5.235   2.857   1.881  0.00  0.00    +0.094 A 
BRANCH  31  32
ATOM     32  C   UNL     1      -5.135   4.134   1.131  0.00  0.00    +0.002 A 
ATOM     33  C   UNL     1      -4.072   4.349   0.256  0.00  0.00    +0.011 A 
ATOM     34  C   UNL     1      -3.986   5.536  -0.442  0.00  0.00    +0.020 A 
ATOM     35  C   UNL     1      -4.948   6.516  -0.267  0.00  0.00    +0.041 A 
ATOM     36  C   UNL     1      -6.003   6.309   0.605  0.00  0.00    +0.020 A 
ATOM     37  C   UNL     1      -6.101   5.123   1.304  0.00  0.00    +0.011 A 
ATOM     38 CL   UNL     1      -4.830   8.010  -1.144  0.00  0.00    -0.084 Cl
ENDBRANCH  31  32
ENDBRANCH  25  26
ENDBRANCH   4  25
TORSDOF 6
