REMARK  Name = ZINC39541549
REMARK  11 active torsions:
REMARK  status: ('A' for Active; 'I' for Inactive)
REMARK    1  A    between atoms: C_1  and  C_2
REMARK    2  A    between atoms: C_2  and  C_3
REMARK    3  A    between atoms: C_2  and  C_4
REMARK    4  A    between atoms: C_4  and  C_5
REMARK    5  A    between atoms: C_7  and  C_11
REMARK    6  A    between atoms: N_13  and  C_14
REMARK    7  A    between atoms: N_13  and  C_15
REMARK    8  A    between atoms: C_15  and  C_16
REMARK    9  A    between atoms: N_21  and  C_23
REMARK   10  A    between atoms: C_23  and  C_24
REMARK   11  A    between atoms: C_24  and  C_25
REMARK                            x       y       z     vdW  Elec       q    Type
REMARK                         _______ _______ _______ _____ _____    ______ ____
ROOT
ATOM      1  C   UNL     1      -3.837  -7.872   1.587  0.00  0.00    -0.010 C 
ATOM      2  C   UNL     1      -2.732  -8.538   2.411  0.00  0.00    +0.001 C 
ATOM      3  C   UNL     1      -2.617 -10.008   1.998  0.00  0.00    -0.018 C 
ATOM      4  C   UNL     1      -3.973 -10.693   2.186  0.00  0.00    -0.079 C 
ATOM      5  N   UNL     1      -4.980 -10.027   1.352  0.00  0.00    +0.380 N 
ATOM      6  C   UNL     1      -5.148  -8.635   1.788  0.00  0.00    -0.074 C 
ATOM      7  H   UNL     1      -4.681 -10.041   0.388  0.00  0.00    -0.082 HD
ENDROOT
BRANCH   1   8
ATOM      8  C   UNL     1      -4.014  -6.423   2.046  0.00  0.00    +0.109 C 
BRANCH   8  11
ATOM      9  C   UNL     1      -2.671  -5.035   0.559  0.00  0.00    +0.246 C 
ATOM     10  O   UNL     1      -3.565  -5.099  -0.259  0.00  0.00    -0.273 OA
ATOM     11  N   UNL     1      -2.797  -5.664   1.745  0.00  0.00    -0.302 N 
ATOM     12  C   UNL     1      -1.718  -5.587   2.733  0.00  0.00    +0.132 C 
BRANCH   9  15
ATOM     13  C   UNL     1      -1.416  -2.035  -0.119  0.00  0.00    +0.062 C 
ATOM     14  C   UNL     1      -1.465  -2.886   0.907  0.00  0.00    +0.035 C 
ATOM     15  C   UNL     1      -1.420  -4.254   0.250  0.00  0.00    +0.238 C 
ATOM     16  N   UNL     1      -1.346  -3.930  -1.185  0.00  0.00    -0.170 NA
ATOM     17  N   UNL     1      -1.355  -2.701  -1.293  0.00  0.00    -0.158 NA
BRANCH  13  18
ATOM     18  C   UNL     1      -1.433  -0.534   0.013  0.00  0.00    +0.060 C 
BRANCH  18  20
ATOM     19  C   UNL     1      -0.019   1.526   0.010  0.00  0.00    +0.007 C 
ATOM     20  C   UNL     1       0.002  -0.004   0.002  0.00  0.00    -0.011 C 
ATOM     21  C   UNL     1       0.742  -0.511   1.242  0.00  0.00    +0.007 C 
ENDBRANCH  18  20
ENDBRANCH  13  18
ENDBRANCH   9  15
ENDBRANCH   8  11
ENDBRANCH   1   8
BRANCH   5  22
ATOM     22  C   UNL     1      -6.261 -10.735   1.475  0.00  0.00    -0.074 C 
BRANCH  22  23
ATOM     23  C   UNL     1      -6.123 -12.144   0.896  0.00  0.00    +0.019 C 
BRANCH  23  24
ATOM     24  C   UNL     1      -7.438 -12.870   1.022  0.00  0.00    -0.014 A 
ATOM     25  C   UNL     1      -7.672 -13.691   2.109  0.00  0.00    +0.006 A 
ATOM     26  C   UNL     1      -8.877 -14.357   2.225  0.00  0.00    +0.000 A 
ATOM     27  C   UNL     1      -9.850 -14.204   1.254  0.00  0.00    +0.003 A 
ATOM     28  C   UNL     1      -9.618 -13.383   0.167  0.00  0.00    +0.038 A 
ATOM     29  C   UNL     1      -8.413 -12.711   0.052  0.00  0.00    +0.126 A 
ATOM     30  F   UNL     1      -8.187 -11.904  -1.008  0.00  0.00    -0.205 F 
ENDBRANCH  23  24
ENDBRANCH  22  23
ENDBRANCH   5  22
TORSDOF 8
