REMARK  Name = ZINC39710793
REMARK  9 active torsions:
REMARK  status: ('A' for Active; 'I' for Inactive)
REMARK    1  A    between atoms: C_1  and  C_2
REMARK    2  A    between atoms: C_8  and  C_14
REMARK    3  A    between atoms: C_14  and  C_16
REMARK    4  A    between atoms: C_14  and  N_25
REMARK    5  A    between atoms: N_20  and  C_21
REMARK    6  A    between atoms: C_21  and  C_22
REMARK    7  A    between atoms: C_22  and  O_23
REMARK    8  A    between atoms: O_23  and  C_24
REMARK    9  A    between atoms: N_28  and  C_31
REMARK                            x       y       z     vdW  Elec       q    Type
REMARK                         _______ _______ _______ _____ _____    ______ ____
ROOT
ATOM      1  C   UNL     1       1.295  -2.566   4.414  0.00  0.00    +0.142 C 
ENDROOT
BRANCH   1   9
ATOM      2  C   UNL     1      -2.693  -6.078   1.343  0.00  0.00    +0.045 C 
ATOM      3  C   UNL     1      -2.765  -5.449   2.710  0.00  0.00    -0.029 A 
ATOM      4  C   UNL     1      -3.699  -5.876   3.600  0.00  0.00    +0.005 A 
ATOM      5  C   UNL     1      -3.819  -5.338   4.882  0.00  0.00    +0.001 A 
ATOM      6  C   UNL     1      -2.998  -4.345   5.312  0.00  0.00    +0.009 A 
ATOM      7  C   UNL     1      -1.969  -3.837   4.403  0.00  0.00    -0.007 A 
ATOM      8  C   UNL     1      -1.123  -2.842   4.792  0.00  0.00    -0.003 C 
ATOM      9  C   UNL     1      -0.087  -2.378   3.786  0.00  0.00    +0.123 C 
ATOM     10  C   UNL     1      -0.078  -3.056   2.435  0.00  0.00    +0.226 C 
ATOM     11  O   UNL     1       0.732  -2.724   1.590  0.00  0.00    -0.275 OA
ATOM     12  N   UNL     1      -0.953  -4.013   2.175  0.00  0.00    -0.284 N 
ATOM     13  C   UNL     1      -1.861  -4.428   3.058  0.00  0.00    +0.043 A 
ATOM     14  H   UNL     1      -0.930  -4.436   1.302  0.00  0.00    +0.155 HD
ENDBRANCH   1   9
BRANCH   1  15
ATOM     15  N   UNL     1       1.390  -1.760   5.639  0.00  0.00    -0.295 NA
ATOM     16  C   UNL     1       1.279  -0.326   5.336  0.00  0.00    +0.066 C 
ATOM     17  C   UNL     1       1.322   0.472   6.641  0.00  0.00    -0.059 C 
ATOM     18  N   UNL     1       2.584   0.199   7.341  0.00  0.00    +0.400 N 
ATOM     19  C   UNL     1       2.669  -1.233   7.658  0.00  0.00    -0.059 C 
ATOM     20  C   UNL     1       2.637  -2.046   6.362  0.00  0.00    +0.066 C 
ATOM     21  H   UNL     1       3.360   0.459   6.750  0.00  0.00    -0.078 HD
BRANCH  18  22
ATOM     22  C   UNL     1       2.633   0.979   8.584  0.00  0.00    +0.081 C 
ATOM     23  N   UNL     1       3.846   0.671   9.354  0.00  0.00    -0.347 N 
ATOM     24  C   UNL     1       3.681   0.117  10.622  0.00  0.00    +0.040 A 
ATOM     25  C   UNL     1       4.720  -0.243  11.500  0.00  0.00    +0.024 A 
ATOM     26  C   UNL     1       4.453  -0.786  12.735  0.00  0.00    +0.002 A 
ATOM     27  C   UNL     1       3.153  -0.998  13.155  0.00  0.00    +0.001 A 
ATOM     28  C   UNL     1       2.110  -0.654  12.312  0.00  0.00    +0.016 A 
ATOM     29  C   UNL     1       2.378  -0.110  11.076  0.00  0.00    +0.029 A 
ATOM     30  S   UNL     1       1.323   0.442   9.754  0.00  0.00    -0.120 S 
ATOM     31  H   UNL     1       4.729   0.848   8.993  0.00  0.00    +0.145 HD
ENDBRANCH  18  22
ENDBRANCH   1  15
BRANCH   1  32
ATOM     32  C   UNL     1       1.500  -4.020   4.752  0.00  0.00    +0.170 A 
ATOM     33  N   UNL     1       0.956  -4.676   5.749  0.00  0.00    -0.112 NA
ATOM     34  N   UNL     1       1.376  -5.893   5.701  0.00  0.00    -0.023 NA
ATOM     35  N   UNL     1       2.173  -6.030   4.699  0.00  0.00    -0.044 NA
ATOM     36  N   UNL     1       2.271  -4.899   4.086  0.00  0.00    -0.225 N 
BRANCH  36  37
ATOM     37  C   UNL     1       3.073  -4.623   2.892  0.00  0.00    +0.175 C 
BRANCH  37  38
ATOM     38  C   UNL     1       4.475  -4.175   3.312  0.00  0.00    +0.183 C 
BRANCH  38  39
ATOM     39  O   UNL     1       5.257  -3.905   2.147  0.00  0.00    -0.381 OA
ATOM     40  C   UNL     1       6.591  -3.477   2.429  0.00  0.00    +0.194 C 
ENDBRANCH  38  39
ENDBRANCH  37  38
ENDBRANCH  36  37
ENDBRANCH   1  32
TORSDOF 7
