REMARK  Name = ZINC08872076
REMARK  8 active torsions:
REMARK  status: ('A' for Active; 'I' for Inactive)
REMARK    1  A    between atoms: C_4  and  C_7
REMARK    2  A    between atoms: C_7  and  N_8
REMARK    3  A    between atoms: C_9  and  C_11
REMARK    4  A    between atoms: C_16  and  N_17
REMARK    5  A    between atoms: N_17  and  N_18
REMARK    6  A    between atoms: C_20  and  C_31
REMARK    7  A    between atoms: N_22  and  C_25
REMARK    8  A    between atoms: C_34  and  N_37
REMARK                            x       y       z     vdW  Elec       q    Type
REMARK                         _______ _______ _______ _____ _____    ______ ____
ROOT
ATOM      1  N   UNL     1       8.822  -3.605   2.397  0.00  0.00    -0.175 NA
ATOM      2  C   UNL     1       9.665  -3.837   1.410  0.00  0.00    +0.173 C 
ATOM      3  C   UNL     1       9.512  -3.463  -0.012  0.00  0.00    +0.122 C 
ATOM      4  N   UNL     1      10.577  -3.884  -0.641  0.00  0.00    -0.170 NA
ATOM      5  N   UNL     1      11.460  -4.522   0.229  0.00  0.00    -0.155 N 
ATOM      6  C   UNL     1      10.967  -4.521   1.483  0.00  0.00    +0.292 C 
ATOM      7  O   UNL     1      11.492  -4.993   2.476  0.00  0.00    -0.266 OA
ENDROOT
BRANCH   5   8
ATOM      8  C   UNL     1      12.688  -5.081  -0.147  0.00  0.00    +0.060 A 
ATOM      9  C   UNL     1      13.490  -5.701   0.803  0.00  0.00    +0.025 A 
ATOM     10  C   UNL     1      14.700  -6.251   0.429  0.00  0.00    +0.002 A 
ATOM     11  C   UNL     1      15.114  -6.184  -0.889  0.00  0.00    +0.000 A 
ATOM     12  C   UNL     1      14.319  -5.567  -1.837  0.00  0.00    +0.002 A 
ATOM     13  C   UNL     1      13.104  -5.021  -1.471  0.00  0.00    +0.025 A 
ENDBRANCH   5   8
BRANCH   3  14
ATOM     14  C   UNL     1       8.365  -2.744  -0.612  0.00  0.00    +0.004 A 
ATOM     15  C   UNL     1       8.421  -1.362  -0.793  0.00  0.00    +0.012 A 
ATOM     16  C   UNL     1       7.349  -0.698  -1.353  0.00  0.00    +0.033 A 
ATOM     17  C   UNL     1       6.220  -1.400  -1.735  0.00  0.00    +0.126 A 
ATOM     18  C   UNL     1       6.158  -2.771  -1.559  0.00  0.00    +0.033 A 
ATOM     19  C   UNL     1       7.226  -3.447  -1.005  0.00  0.00    +0.012 A 
BRANCH  17  20
ATOM     20  N   UNL     1       5.073  -0.682  -2.335  0.00  0.00    +0.056 N 
ATOM     21  O   UNL     1       5.157   0.501  -2.569  0.00  0.00    -0.126 OA
ATOM     22  O   UNL     1       4.053  -1.278  -2.590  0.00  0.00    -0.126 OA
ENDBRANCH  17  20
ENDBRANCH   3  14
BRANCH   1  23
ATOM     23  N   UNL     1       7.799  -2.843   2.206  0.00  0.00    -0.236 N 
ATOM     24  H   UNL     1       7.696  -2.372   1.365  0.00  0.00    +0.174 HD
BRANCH  23  30
ATOM     25  C   UNL     1       5.779  -1.800   3.039  0.00  0.00    +0.059 A 
ATOM     26  C   UNL     1       4.824  -1.667   4.048  0.00  0.00    +0.015 A 
ATOM     27  C   UNL     1       4.935  -2.412   5.203  0.00  0.00    +0.001 A 
ATOM     28  C   UNL     1       5.992  -3.293   5.368  0.00  0.00    +0.002 A 
ATOM     29  C   UNL     1       6.944  -3.435   4.379  0.00  0.00    +0.025 A 
ATOM     30  C   UNL     1       6.845  -2.697   3.206  0.00  0.00    +0.060 A 
BRANCH  25  32
ATOM     31  N   UNL     1       4.755  -0.015   1.716  0.00  0.00    -0.307 N 
ATOM     32  C   UNL     1       5.665  -1.005   1.800  0.00  0.00    +0.246 C 
ATOM     33  O   UNL     1       6.393  -1.244   0.856  0.00  0.00    -0.270 OA
ATOM     34  H   UNL     1       4.217   0.217   2.490  0.00  0.00    +0.149 HD
BRANCH  31  35
ATOM     35  C   UNL     1       4.577   0.712   0.457  0.00  0.00    +0.139 C 
BRANCH  35  39
ATOM     36  C   UNL     1       1.347   3.479   0.850  0.00  0.00    +0.000 A 
ATOM     37  C   UNL     1       2.635   3.871   1.164  0.00  0.00    +0.000 A 
ATOM     38  C   UNL     1       3.680   2.975   1.036  0.00  0.00    +0.005 A 
ATOM     39  C   UNL     1       3.437   1.688   0.596  0.00  0.00    -0.030 A 
ATOM     40  C   UNL     1       2.149   1.296   0.283  0.00  0.00    +0.005 A 
ATOM     41  C   UNL     1       1.104   2.192   0.409  0.00  0.00    +0.000 A 
ENDBRANCH  35  39
ENDBRANCH  31  35
ENDBRANCH  25  32
ENDBRANCH  23  30
ENDBRANCH   1  23
TORSDOF 8
