REMARK  Name = ZINC54645030
REMARK  6 active torsions:
REMARK  status: ('A' for Active; 'I' for Inactive)
REMARK    1  A    between atoms: C_1  and  C_2
REMARK    2  A    between atoms: C_7  and  C_8
REMARK    3  A    between atoms: C_7  and  C_9
REMARK    4  A    between atoms: N_12  and  C_15
REMARK    5  A    between atoms: C_15  and  C_16
REMARK    6  A    between atoms: N_18  and  C_19
REMARK                            x       y       z     vdW  Elec       q    Type
REMARK                         _______ _______ _______ _____ _____    ______ ____
ROOT
ATOM      1  C   UNL     1      -0.019   1.526   0.010  0.00  0.00    +0.021 C 
ATOM      2  C   UNL     1       0.002  -0.004   0.002  0.00  0.00    +0.051 C 
ATOM      3  C   UNL     1      -1.410  -0.632   0.090  0.00  0.00    +0.017 C 
ATOM      4  C   UNL     1      -1.232  -1.978   0.818  0.00  0.00    +0.014 C 
ATOM      5  C   UNL     1       0.279  -2.095   1.133  0.00  0.00    +0.082 C 
ATOM      6  C   UNL     1       0.737  -0.613   1.230  0.00  0.00    -0.010 C 
ATOM      7  C   UNL     1       0.259   0.029   2.534  0.00  0.00    +0.012 C 
ATOM      8  C   UNL     1       2.255  -0.492   1.081  0.00  0.00    +0.012 C 
ATOM      9  C   UNL     1       0.943  -2.678  -0.102  0.00  0.00    +0.226 C 
ATOM     10  O   UNL     1       1.316  -3.831  -0.107  0.00  0.00    -0.275 OA
ATOM     11  N   UNL     1       1.116  -1.905  -1.190  0.00  0.00    -0.233 N 
ATOM     12  C   UNL     1       0.688  -0.582  -1.223  0.00  0.00    +0.229 C 
ATOM     13  O   UNL     1       0.821   0.092  -2.222  0.00  0.00    -0.275 OA
ENDROOT
BRANCH  11  14
ATOM     14  C   UNL     1       1.806  -2.467  -2.354  0.00  0.00    +0.212 C 
BRANCH  14  15
ATOM     15  C   UNL     1       0.800  -3.112  -3.272  0.00  0.00    +0.231 C 
ATOM     16  O   UNL     1      -0.378  -3.105  -2.982  0.00  0.00    -0.274 OA
ATOM     17  N   UNL     1       1.208  -3.698  -4.415  0.00  0.00    -0.311 N 
ATOM     18  H   UNL     1       2.150  -3.705  -4.647  0.00  0.00    +0.149 HD
BRANCH  17  19
ATOM     19  C   UNL     1       0.230  -4.326  -5.307  0.00  0.00    +0.073 C 
ATOM     20  C   UNL     1      -0.086  -5.742  -4.783  0.00  0.00    +0.022 C 
ATOM     21  C   UNL     1      -1.408  -6.178  -5.354  0.00  0.00    +0.002 C 
ATOM     22  C   UNL     1      -1.250  -7.001  -6.646  0.00  0.00    +0.000 C 
ATOM     23  C   UNL     1      -0.176  -6.429  -7.592  0.00  0.00    +0.000 C 
ATOM     24  C   UNL     1      -0.228  -4.928  -7.681  0.00  0.00    +0.002 C 
ATOM     25  C   UNL     1       0.768  -4.341  -6.659  0.00  0.00    +0.022 C 
ENDBRANCH  17  19
ENDBRANCH  14  15
ENDBRANCH  11  14
TORSDOF 3
