REMARK  Name = ZINC02343077
REMARK  16 active torsions:
REMARK  status: ('A' for Active; 'I' for Inactive)
REMARK    1  A    between atoms: C_1  and  C_2
REMARK    2  A    between atoms: C_3  and  C_14
REMARK    3  A    between atoms: C_4  and  O_13
REMARK    4  A    between atoms: N_5  and  C_7
REMARK    5  A    between atoms: N_15  and  N_16
REMARK    6  A    between atoms: C_17  and  C_19
REMARK    7  A    between atoms: C_19  and  O_20
REMARK    8  A    between atoms: O_20  and  C_21
REMARK    9  A    between atoms: C_24  and  C_27
REMARK   10  A    between atoms: C_27  and  C_28
REMARK   11  A    between atoms: C_27  and  C_29
REMARK   12  A    between atoms: C_27  and  C_30
REMARK   13  A    between atoms: C_30  and  C_31
REMARK   14  A    between atoms: C_31  and  C_32
REMARK   15  A    between atoms: C_31  and  C_33
REMARK   16  A    between atoms: C_31  and  C_34
REMARK                            x       y       z     vdW  Elec       q    Type
REMARK                         _______ _______ _______ _____ _____    ______ ____
ROOT
ATOM      1  N   UNL     1       2.212   6.649   2.606  0.00  0.00    -0.204 N 
ATOM      2  C   UNL     1       1.379   5.848   1.915  0.00  0.00    +0.270 C 
ATOM      3  O   UNL     1       0.332   6.286   1.486  0.00  0.00    -0.270 OA
ATOM      4  H   UNL     1       3.049   6.299   2.949  0.00  0.00    +0.177 HD
ENDROOT
BRANCH   1   6
ATOM      5  C   UNL     1       2.674   8.762   3.496  0.00  0.00    +0.145 C 
ATOM      6  N   UNL     1       1.871   7.990   2.830  0.00  0.00    -0.187 NA
BRANCH   5   9
ATOM      7  C   UNL     1       4.421  10.882   5.079  0.00  0.00    +0.068 C 
ATOM      8  C   UNL     1       3.082  11.127   4.434  0.00  0.00    +0.073 A 
ATOM      9  C   UNL     1       2.315  10.171   3.731  0.00  0.00    +0.079 A 
ATOM     10  C   UNL     1       1.162  10.810   3.299  0.00  0.00    +0.225 A 
ATOM     11  N   UNL     1       1.230  12.090   3.730  0.00  0.00    -0.200 N 
ATOM     12  N   UNL     1       2.431  12.258   4.427  0.00  0.00    -0.168 NA
BRANCH  11  13
ATOM     13  C   UNL     1       0.263  13.081   3.511  0.00  0.00    +0.069 A 
ATOM     14  C   UNL     1      -0.450  13.107   2.320  0.00  0.00    +0.028 A 
ATOM     15  C   UNL     1      -1.405  14.081   2.109  0.00  0.00    +0.002 A 
ATOM     16  C   UNL     1      -1.645  15.038   3.078  0.00  0.00    +0.000 A 
ATOM     17  C   UNL     1      -0.933  15.018   4.263  0.00  0.00    +0.002 A 
ATOM     18  C   UNL     1       0.020  14.043   4.482  0.00  0.00    +0.028 A 
ENDBRANCH  11  13
BRANCH  10  19
ATOM     19  O   UNL     1       0.156  10.255   2.581  0.00  0.00    -0.492 OA
ATOM     20  H   UNL     1      -0.545   9.865   3.122  0.00  0.00    +0.294 HD
ENDBRANCH  10  19
ENDBRANCH   5   9
ENDBRANCH   1   6
BRANCH   2  21
ATOM     21  C   UNL     1       1.746   4.406   1.674  0.00  0.00    +0.326 C 
BRANCH  21  22
ATOM     22  O   UNL     1       0.710   3.769   0.924  0.00  0.00    -0.483 OA
BRANCH  22  23
ATOM     23  C   UNL     1       0.887   2.456   0.620  0.00  0.00    +0.121 A 
ATOM     24  C   UNL     1      -0.080   1.775  -0.106  0.00  0.00    +0.046 A 
ATOM     25  C   UNL     1       0.102   0.441  -0.414  0.00  0.00    +0.008 A 
ATOM     26  C   UNL     1       1.246  -0.216   0.000  0.00  0.00    -0.041 A 
ATOM     27  C   UNL     1       2.211   0.461   0.724  0.00  0.00    +0.008 A 
ATOM     28  C   UNL     1       2.034   1.795   1.035  0.00  0.00    +0.046 A 
BRANCH  26  29
ATOM     29  C   UNL     1       1.442  -1.671  -0.337  0.00  0.00    -0.009 C 
ATOM     30  C   UNL     1       0.303  -2.493   0.270  0.00  0.00    +0.016 C 
ATOM     31  C   UNL     1       1.444  -1.847  -1.857  0.00  0.00    +0.016 C 
BRANCH  29  32
ATOM     32  C   UNL     1       2.778  -2.152   0.234  0.00  0.00    +0.017 C 
BRANCH  32  33
ATOM     33  C   UNL     1       2.800  -3.682   0.260  0.00  0.00    -0.037 C 
ATOM     34  C   UNL     1       2.228  -4.223  -1.052  0.00  0.00    +0.010 C 
ATOM     35  C   UNL     1       4.242  -4.168   0.426  0.00  0.00    +0.010 C 
ATOM     36  C   UNL     1       1.954  -4.184   1.431  0.00  0.00    +0.010 C 
ENDBRANCH  32  33
ENDBRANCH  29  32
ENDBRANCH  26  29
ENDBRANCH  22  23
ENDBRANCH  21  22
ENDBRANCH   2  21
TORSDOF 10
