REMARK  Name = ZINC58465457
REMARK  7 active torsions:
REMARK  status: ('A' for Active; 'I' for Inactive)
REMARK    1  A    between atoms: C_1  and  C_2
REMARK    2  A    between atoms: C_7  and  C_8
REMARK    3  A    between atoms: C_8  and  O_9
REMARK    4  A    between atoms: O_9  and  C_10
REMARK    5  A    between atoms: C_10  and  C_12
REMARK    6  A    between atoms: C_12  and  C_13
REMARK    7  A    between atoms: C_16  and  C_18
REMARK                            x       y       z     vdW  Elec       q    Type
REMARK                         _______ _______ _______ _____ _____    ______ ____
ROOT
ATOM      1  C   UNL     1       0.077  -1.307   6.018  0.00  0.00    +0.176 C 
ENDROOT
BRANCH   1   2
ATOM      2  C   UNL     1       0.078  -0.493   7.287  0.00  0.00    +0.060 A 
ATOM      3  C   UNL     1      -0.872  -0.710   8.237  0.00  0.00    +0.071 A 
ATOM      4  S   UNL     1      -0.390   0.496   9.466  0.00  0.00    -0.074 S 
ATOM      5  C   UNL     1       1.018   1.155   8.583  0.00  0.00    +0.127 A 
ATOM      6  N   UNL     1       0.997   0.421   7.479  0.00  0.00    -0.242 NA
BRANCH   5   7
ATOM      7  C   UNL     1       1.957   2.226   8.980  0.00  0.00    +0.096 A 
ATOM      8  C   UNL     1       1.798   2.866  10.210  0.00  0.00    +0.030 A 
ATOM      9  C   UNL     1       2.685   3.865  10.567  0.00  0.00    +0.004 A 
ATOM     10  C   UNL     1       3.704   4.194   9.684  0.00  0.00    +0.020 A 
ATOM     11  C   UNL     1       3.804   3.519   8.481  0.00  0.00    +0.111 A 
ATOM     12  N   UNL     1       2.950   2.567   8.166  0.00  0.00    -0.253 NA
ENDBRANCH   5   7
ENDBRANCH   1   2
BRANCH   1  13
ATOM     13  C   UNL     1       0.053  -0.383   4.828  0.00  0.00    +0.313 C 
ATOM     14  O   UNL     1       0.038   0.814   4.993  0.00  0.00    -0.250 OA
BRANCH  13  15
ATOM     15  O   UNL     1       0.048  -0.889   3.585  0.00  0.00    -0.460 OA
BRANCH  15  16
ATOM     16  C   UNL     1       0.025   0.045   2.504  0.00  0.00    +0.268 C 
BRANCH  16  23
ATOM     17  C   UNL     1      -0.018   1.503   0.010  0.00  0.00    +0.044 C 
ATOM     18  C   UNL     1       0.002  -0.004   0.002  0.00  0.00    -0.044 A 
ATOM     19  C   UNL     1       0.006  -0.689  -1.199  0.00  0.00    +0.004 A 
ATOM     20  C   UNL     1       0.025  -2.071  -1.207  0.00  0.00    +0.000 A 
ATOM     21  C   UNL     1       0.040  -2.768  -0.013  0.00  0.00    +0.000 A 
ATOM     22  C   UNL     1       0.037  -2.084   1.188  0.00  0.00    +0.007 A 
ATOM     23  C   UNL     1       0.023  -0.702   1.195  0.00  0.00    -0.007 A 
ENDBRANCH  16  23
ENDBRANCH  15  16
ENDBRANCH  13  15
ENDBRANCH   1  13
TORSDOF 6
