REMARK  Name = ZINC17281639
REMARK  7 active torsions:
REMARK  status: ('A' for Active; 'I' for Inactive)
REMARK    1  A    between atoms: C_1  and  C_2
REMARK    2  A    between atoms: C_2  and  C_4
REMARK    3  A    between atoms: C_2  and  N_14
REMARK    4  A    between atoms: N_14  and  C_15
REMARK    5  A    between atoms: C_18  and  N_25
REMARK    6  A    between atoms: C_20  and  S_21
REMARK    7  A    between atoms: S_21  and  N_24
REMARK                            x       y       z     vdW  Elec       q    Type
REMARK                         _______ _______ _______ _____ _____    ______ ____
ROOT
ATOM      1  C   UNL     1       0.027  -0.639   2.398  0.00  0.00    +0.054 A 
ATOM      2  C   UNL     1      -1.326  -0.333   2.475  0.00  0.00    +0.027 A 
ATOM      3  C   UNL     1      -1.998  -0.482   3.672  0.00  0.00    +0.034 A 
ATOM      4  C   UNL     1      -1.327  -0.935   4.793  0.00  0.00    +0.128 A 
ATOM      5  C   UNL     1       0.020  -1.240   4.719  0.00  0.00    +0.063 A 
ATOM      6  C   UNL     1       0.698  -1.099   3.524  0.00  0.00    +0.128 A 
ENDROOT
BRANCH   6   7
ATOM      7  S   UNL     1       2.412  -1.494   3.430  0.00  0.00    +0.058 S 
ATOM      8  O   UNL     1       3.048  -0.394   2.795  0.00  0.00    -0.153 OA
ATOM      9  O   UNL     1       2.794  -1.955   4.719  0.00  0.00    -0.153 OA
BRANCH   7  10
ATOM     10  N   UNL     1       2.561  -2.785   2.403  0.00  0.00    -0.203 NA
ATOM     11  H   UNL     1       1.772  -3.168   1.988  0.00  0.00    +0.144 HD
ATOM     12  H   UNL     1       3.437  -3.157   2.216  0.00  0.00    +0.144 HD
ENDBRANCH   7  10
ENDBRANCH   6   7
BRANCH   4  13
ATOM     13  N   UNL     1      -2.051  -1.094   6.074  0.00  0.00    +0.056 N 
ATOM     14  O   UNL     1      -3.228  -0.828   6.139  0.00  0.00    -0.126 OA
ATOM     15  O   UNL     1      -1.465  -1.490   7.054  0.00  0.00    -0.126 OA
ENDBRANCH   4  13
BRANCH   1  16
ATOM     16  N   UNL     1       0.711  -0.489   1.189  0.00  0.00    -0.336 N 
ATOM     17  H   UNL     1       1.654  -0.707   1.135  0.00  0.00    +0.147 HD
BRANCH  16  19
ATOM     18  C   UNL     1      -0.019   1.526   0.010  0.00  0.00    +0.033 C 
ATOM     19  C   UNL     1       0.002  -0.004   0.002  0.00  0.00    +0.098 C 
BRANCH  19  20
ATOM     20  C   UNL     1       0.707  -0.490  -1.238  0.00  0.00    -0.027 A 
ATOM     21  C   UNL     1       2.089  -0.512  -1.286  0.00  0.00    +0.006 A 
ATOM     22  C   UNL     1       2.727  -0.955  -2.426  0.00  0.00    +0.004 A 
ATOM     23  C   UNL     1       1.994  -1.382  -3.526  0.00  0.00    -0.044 A 
ATOM     24  C   UNL     1       0.618  -1.365  -3.475  0.00  0.00    -0.044 A 
ATOM     25  C   UNL     1      -0.023  -0.920  -2.326  0.00  0.00    +0.009 A 
ATOM     26  C   UNL     1      -0.241  -1.828  -4.623  0.00  0.00    +0.035 C 
ATOM     27  C   UNL     1       0.570  -1.873  -5.917  0.00  0.00    +0.005 C 
ATOM     28  C   UNL     1       1.853  -2.670  -5.656  0.00  0.00    +0.005 C 
ATOM     29  C   UNL     1       2.755  -1.846  -4.740  0.00  0.00    +0.035 C 
ENDBRANCH  19  20
ENDBRANCH  16  19
ENDBRANCH   1  16
TORSDOF 6
