REMARK  Name = ZINC20864025
REMARK  8 active torsions:
REMARK  status: ('A' for Active; 'I' for Inactive)
REMARK    1  A    between atoms: C_1  and  C_2
REMARK    2  A    between atoms: C_5  and  S_8
REMARK    3  A    between atoms: S_8  and  N_11
REMARK    4  A    between atoms: N_15  and  C_27
REMARK    5  A    between atoms: C_16  and  C_18
REMARK    6  A    between atoms: C_16  and  C_19
REMARK    7  A    between atoms: N_21  and  C_22
REMARK    8  A    between atoms: C_30  and  C_34
REMARK                            x       y       z     vdW  Elec       q    Type
REMARK                         _______ _______ _______ _____ _____    ______ ____
ROOT
ATOM      1  N   UNL     1       1.390   6.094   0.445  0.00  0.00    -0.165 NA
ATOM      2  C   UNL     1      -0.009   5.655   0.330  0.00  0.00    +0.205 C 
ATOM      3  C   UNL     1      -0.043   4.152   0.262  0.00  0.00    +0.236 C 
ATOM      4  O   UNL     1      -1.109   3.591   0.400  0.00  0.00    -0.274 OA
ATOM      5  N   UNL     1       1.045   3.409   0.057  0.00  0.00    -0.254 N 
ATOM      6  C   UNL     1       2.401   3.934  -0.031  0.00  0.00    +0.129 C 
ATOM      7  C   UNL     1       2.382   5.418  -0.408  0.00  0.00    +0.145 C 
ATOM      8  C   UNL     1       3.175   3.155  -1.097  0.00  0.00    +0.043 C 
ENDROOT
BRANCH   5   9
ATOM      9  C   UNL     1       0.873   2.027  -0.078  0.00  0.00    +0.040 A 
ATOM     10  C   UNL     1       0.488   1.264   1.017  0.00  0.00    +0.024 A 
ATOM     11  C   UNL     1       0.319  -0.101   0.882  0.00  0.00    +0.008 A 
ATOM     12  C   UNL     1       0.532  -0.708  -0.342  0.00  0.00    -0.015 A 
ATOM     13  C   UNL     1       0.916   0.049  -1.436  0.00  0.00    +0.128 A 
ATOM     14  C   UNL     1       1.086   1.416  -1.306  0.00  0.00    +0.062 A 
ATOM     15  F   UNL     1       1.123  -0.547  -2.630  0.00  0.00    -0.205 F 
ATOM     16  C   UNL     1       0.346  -2.196  -0.485  0.00  0.00    +0.047 C 
ENDBRANCH   5   9
BRANCH   6  17
ATOM     17  C   UNL     1       3.086   3.765   1.301  0.00  0.00    +0.238 C 
ATOM     18  O   UNL     1       3.801   4.644   1.731  0.00  0.00    -0.273 OA
ATOM     19  N   UNL     1       2.903   2.636   2.014  0.00  0.00    -0.311 N 
ATOM     20  H   UNL     1       2.254   1.838   1.624  0.00  0.00    +0.149 HD
BRANCH  19  21
ATOM     21  C   UNL     1       3.569   2.471   3.308  0.00  0.00    +0.073 C 
ATOM     22  C   UNL     1       4.970   1.859   3.108  0.00  0.00    +0.022 C 
ATOM     23  C   UNL     1       5.145   0.907   4.317  0.00  0.00    +0.002 C 
ATOM     24  C   UNL     1       3.728   0.306   4.487  0.00  0.00    +0.002 C 
ATOM     25  C   UNL     1       2.779   1.484   4.186  0.00  0.00    +0.022 C 
ENDBRANCH  19  21
ENDBRANCH   6  17
BRANCH   1  26
ATOM     26  S   UNL     1       1.831   7.300   1.490  0.00  0.00    +0.061 S 
ATOM     27  O   UNL     1       0.925   7.242   2.583  0.00  0.00    -0.153 OA
ATOM     28  O   UNL     1       3.238   7.196   1.660  0.00  0.00    -0.153 OA
BRANCH  26  33
ATOM     29  C   UNL     1       0.819  12.547  -1.311  0.00  0.00    +0.044 C 
ATOM     30  C   UNL     1       1.072  11.237  -0.611  0.00  0.00    -0.050 A 
ATOM     31  C   UNL     1       0.115  10.710   0.236  0.00  0.00    +0.005 A 
ATOM     32  C   UNL     1       0.347   9.508   0.877  0.00  0.00    +0.029 A 
ATOM     33  C   UNL     1       1.536   8.833   0.672  0.00  0.00    +0.106 A 
ATOM     34  C   UNL     1       2.495   9.363  -0.171  0.00  0.00    +0.029 A 
ATOM     35  C   UNL     1       2.260  10.562  -0.817  0.00  0.00    +0.005 A 
ENDBRANCH  26  33
ENDBRANCH   1  26
TORSDOF 5
