REMARK  Name = ZINC09278391
REMARK  11 active torsions:
REMARK  status: ('A' for Active; 'I' for Inactive)
REMARK    1  A    between atoms: C_1  and  C_2
REMARK    2  A    between atoms: C_2  and  C_3
REMARK    3  A    between atoms: C_3  and  N_54
REMARK    4  A    between atoms: C_4  and  C_5
REMARK    5  A    between atoms: C_4  and  N_54
REMARK    6  A    between atoms: C_5  and  C_6
REMARK    7  A    between atoms: C_7  and  C_8
REMARK    8  A    between atoms: C_7  and  N_54
REMARK    9  A    between atoms: N_12  and  C_13
REMARK   10  A    between atoms: C_13  and  C_14
REMARK   11  A    between atoms: N_28  and  C_29
REMARK                            x       y       z     vdW  Elec       q    Type
REMARK                         _______ _______ _______ _____ _____    ______ ____
ROOT
ATOM      1  C   UNL     1       3.920   3.302  -2.122  0.00  0.00    +0.096 A 
ATOM      2  N   UNL     1       4.324   3.659  -3.314  0.00  0.00    -0.216 NA
ATOM      3  C   UNL     1       3.933   4.911  -3.569  0.00  0.00    +0.168 A 
ATOM      4  C   UNL     1       3.233   5.358  -2.455  0.00  0.00    +0.152 A 
ATOM      5  N   UNL     1       3.237   4.314  -1.552  0.00  0.00    -0.319 N 
ATOM      6  C   UNL     1       2.701   6.665  -2.456  0.00  0.00    +0.280 A 
ATOM      7  O   UNL     1       2.083   7.080  -1.492  0.00  0.00    -0.265 OA
ATOM      8  N   UNL     1       2.887   7.451  -3.538  0.00  0.00    -0.273 N 
ATOM      9  H   UNL     1       2.513   8.378  -3.542  0.00  0.00    +0.173 HD
ATOM     10  C   UNL     1       3.566   7.005  -4.608  0.00  0.00    +0.331 A 
ATOM     11  O   UNL     1       3.713   7.741  -5.565  0.00  0.00    -0.246 OA
ATOM     12  N   UNL     1       4.089   5.765  -4.648  0.00  0.00    -0.280 N 
ATOM     13  C   UNL     1       4.823   5.319  -5.834  0.00  0.00    +0.155 C 
ENDROOT
BRANCH   1  14
ATOM     14  C   UNL     1       4.177   1.961  -1.484  0.00  0.00    -0.003 C 
BRANCH  14  15
ATOM     15  N   UNL     1       5.365   2.070  -0.612  0.00  0.00    +0.384 N 
ATOM     16  H   UNL     1       5.275   2.911  -0.029  0.00  0.00    -0.081 HD
BRANCH  15  17
ATOM     17  C   UNL     1       5.457   0.885   0.267  0.00  0.00    -0.079 C 
BRANCH  17  19
ATOM     18  C   UNL     1       6.623  -0.063   2.263  0.00  0.00    +0.002 C 
ATOM     19  C   UNL     1       6.446   1.185   1.395  0.00  0.00    -0.022 C 
ENDBRANCH  17  19
ENDBRANCH  15  17
BRANCH  15  20
ATOM     20  C   UNL     1       6.587   2.184  -1.434  0.00  0.00    -0.079 C 
BRANCH  20  21
ATOM     21  C   UNL     1       6.681   1.019  -2.421  0.00  0.00    -0.022 C 
ATOM     22  C   UNL     1       8.011   1.093  -3.174  0.00  0.00    +0.002 C 
ENDBRANCH  20  21
ENDBRANCH  15  20
ENDBRANCH  14  15
ENDBRANCH   1  14
BRANCH   5  23
ATOM     23  C   UNL     1       2.620   4.309  -0.223  0.00  0.00    +0.158 C 
BRANCH  23  24
ATOM     24  C   UNL     1       1.189   3.852  -0.334  0.00  0.00    -0.026 A 
ATOM     25  C   UNL     1       0.882   2.508  -0.227  0.00  0.00    +0.007 A 
ATOM     26  C   UNL     1      -0.430   2.087  -0.329  0.00  0.00    +0.022 A 
ATOM     27  C   UNL     1      -1.438   3.010  -0.545  0.00  0.00    +0.059 A 
ATOM     28  C   UNL     1      -1.131   4.357  -0.647  0.00  0.00    +0.060 A 
ATOM     29  C   UNL     1       0.183   4.776  -0.544  0.00  0.00    +0.026 A 
ATOM     30 CL   UNL     1      -2.395   5.517  -0.911  0.00  0.00    -0.082 Cl
ATOM     31 CL   UNL     1      -3.085   2.482  -0.681  0.00  0.00    -0.082 Cl
ENDBRANCH  23  24
ENDBRANCH   5  23
TORSDOF 8
