REMARK  Name = ZINC46175655
REMARK  4 active torsions:
REMARK  status: ('A' for Active; 'I' for Inactive)
REMARK    1  A    between atoms: C_4  and  S_7
REMARK    2  A    between atoms: S_7  and  C_10
REMARK    3  A    between atoms: C_10  and  C_11
REMARK    4  A    between atoms: C_13  and  C_16
REMARK                            x       y       z     vdW  Elec       q    Type
REMARK                         _______ _______ _______ _____ _____    ______ ____
ROOT
ATOM      1  C   UNL     1       5.482  -2.034   1.812  0.00  0.00    +0.193 A 
ATOM      2  N   UNL     1       5.558  -3.365   1.861  0.00  0.00    -0.190 NA
ATOM      3  C   UNL     1       6.815  -3.740   1.950  0.00  0.00    +0.259 A 
ATOM      4  O   UNL     1       7.579  -2.634   1.960  0.00  0.00    -0.333 OA
ATOM      5  N   UNL     1       6.685  -1.535   1.863  0.00  0.00    -0.059 NA
ENDROOT
BRANCH   3   6
ATOM      6  C   UNL     1       7.302  -5.134   2.026  0.00  0.00    +0.040 A 
ATOM      7  C   UNL     1       6.396  -6.195   2.001  0.00  0.00    +0.015 A 
ATOM      8  C   UNL     1       6.856  -7.493   2.072  0.00  0.00    +0.021 A 
ATOM      9  C   UNL     1       8.215  -7.744   2.169  0.00  0.00    +0.041 A 
ATOM     10  C   UNL     1       9.119  -6.695   2.195  0.00  0.00    +0.021 A 
ATOM     11  C   UNL     1       8.670  -5.393   2.118  0.00  0.00    +0.015 A 
ATOM     12 CL   UNL     1       8.787  -9.381   2.260  0.00  0.00    -0.084 Cl
ENDBRANCH   3   6
BRANCH   1  13
ATOM     13  C   UNL     1       4.209  -1.234   1.708  0.00  0.00    +0.253 C 
BRANCH  13  14
ATOM     14  S   UNL     1       3.797  -0.977  -0.039  0.00  0.00    +0.022 S 
ATOM     15  O   UNL     1       3.442  -2.212  -0.646  0.00  0.00    -0.167 OA
ATOM     16  O   UNL     1       4.755  -0.121  -0.647  0.00  0.00    -0.167 OA
BRANCH  14  20
ATOM     17  C   UNL     1      -0.017   1.378   0.010  0.00  0.00    +0.021 A 
ATOM     18  C   UNL     1       1.185   2.070   0.002  0.00  0.00    +0.025 A 
ATOM     19  C   UNL     1       2.366   1.342  -0.013  0.00  0.00    +0.084 A 
ATOM     20  C   UNL     1       2.305  -0.040  -0.020  0.00  0.00    +0.195 A 
ATOM     21  N   UNL     1       1.144  -0.664  -0.013  0.00  0.00    -0.236 NA
ATOM     22  C   UNL     1       0.002  -0.004   0.002  0.00  0.00    +0.113 A 
ATOM     23 CL   UNL     1       3.899   2.156  -0.024  0.00  0.00    -0.080 Cl
ENDBRANCH  14  20
ENDBRANCH  13  14
ENDBRANCH   1  13
TORSDOF 4
