REMARK  Name = ZINC27550712
REMARK  9 active torsions:
REMARK  status: ('A' for Active; 'I' for Inactive)
REMARK    1  A    between atoms: C_1  and  C_2
REMARK    2  A    between atoms: C_4  and  C_8
REMARK    3  A    between atoms: C_5  and  C_7
REMARK    4  A    between atoms: C_10  and  C_32
REMARK    5  A    between atoms: C_11  and  N_31
REMARK    6  A    between atoms: N_12  and  C_22
REMARK    7  A    between atoms: C_18  and  C_20
REMARK    8  A    between atoms: C_18  and  C_21
REMARK    9  A    between atoms: C_25  and  N_28
REMARK                            x       y       z     vdW  Elec       q    Type
REMARK                         _______ _______ _______ _____ _____    ______ ____
ROOT
ATOM      1  C   UNL     1      -2.871   0.893  -0.359  0.00  0.00    +0.098 C 
ATOM      2  C   UNL     1      -2.287   0.398   0.931  0.00  0.00    +0.077 C 
ATOM      3  C   UNL     1      -1.800  -0.866   1.042  0.00  0.00    +0.107 C 
ATOM      4  N   UNL     1      -1.842  -1.719  -0.037  0.00  0.00    -0.260 N 
ATOM      5  C   UNL     1      -2.700  -1.482  -1.079  0.00  0.00    +0.025 C 
ATOM      6  C   UNL     1      -3.226  -0.254  -1.272  0.00  0.00    +0.025 C 
ATOM      7  C   UNL     1      -4.122  -0.006  -2.327  0.00  0.00    +0.162 C 
ATOM      8  O   UNL     1      -4.569   1.113  -2.479  0.00  0.00    -0.292 OA
ATOM      9  C   UNL     1      -4.536  -1.101  -3.271  0.00  0.00    +0.086 C 
ATOM     10  C   UNL     1      -4.463  -2.445  -2.539  0.00  0.00    -0.023 C 
ATOM     11  C   UNL     1      -3.043  -2.627  -1.999  0.00  0.00    +0.058 C 
ATOM     12  C   UNL     1      -5.460  -2.452  -1.378  0.00  0.00    +0.011 C 
ATOM     13  C   UNL     1      -4.798  -3.579  -3.511  0.00  0.00    +0.011 C 
ENDROOT
BRANCH   1  17
ATOM     14  C   UNL     1       1.618   1.792  -2.589  0.00  0.00    +0.051 C 
ATOM     15  C   UNL     1       0.239   2.099  -2.065  0.00  0.00    -0.013 A 
ATOM     16  C   UNL     1      -0.640   1.276  -1.442  0.00  0.00    +0.015 A 
ATOM     17  C   UNL     1      -1.866   1.779  -1.048  0.00  0.00    -0.025 A 
ATOM     18  C   UNL     1      -2.148   3.084  -1.285  0.00  0.00    -0.009 A 
ATOM     19  S   UNL     1      -0.661   3.640  -2.102  0.00  0.00    -0.098 S 
ATOM     20  C   UNL     1      -3.395   3.861  -0.952  0.00  0.00    +0.052 C 
ENDBRANCH   1  17
BRANCH   4  21
ATOM     21  C   UNL     1      -1.001  -2.837  -0.071  0.00  0.00    +0.040 A 
ATOM     22  C   UNL     1       0.238  -2.758  -0.695  0.00  0.00    +0.026 A 
ATOM     23  C   UNL     1       1.067  -3.863  -0.722  0.00  0.00    +0.034 A 
ATOM     24  C   UNL     1       0.661  -5.049  -0.139  0.00  0.00    +0.126 A 
ATOM     25  C   UNL     1      -0.574  -5.132   0.478  0.00  0.00    +0.034 A 
ATOM     26  C   UNL     1      -1.406  -4.030   0.514  0.00  0.00    +0.026 A 
BRANCH  24  27
ATOM     27  N   UNL     1       1.549  -6.232  -0.176  0.00  0.00    +0.056 N 
ATOM     28  O   UNL     1       1.193  -7.278   0.337  0.00  0.00    -0.126 OA
ATOM     29  O   UNL     1       2.637  -6.160  -0.720  0.00  0.00    -0.126 OA
ENDBRANCH  24  27
ENDBRANCH   4  21
BRANCH   3  30
ATOM     30  N   UNL     1      -1.264  -1.292   2.233  0.00  0.00    -0.345 N 
ATOM     31  H   UNL     1      -0.869  -2.315   2.324  0.00  0.00    +0.144 HD
ATOM     32  H   UNL     1      -1.229  -0.611   3.096  0.00  0.00    +0.144 HD
ENDBRANCH   3  30
BRANCH   2  33
ATOM     33  C   UNL     1      -2.243   1.271   2.065  0.00  0.00    +0.099 C 
ATOM     34  N   UNL     1      -2.209   1.964   2.965  0.00  0.00    -0.191 NA
ENDBRANCH   2  33
TORSDOF 5
