REMARK  Name = ZINC39684703
REMARK  10 active torsions:
REMARK  status: ('A' for Active; 'I' for Inactive)
REMARK    1  A    between atoms: C_1  and  C_2
REMARK    2  A    between atoms: C_5  and  C_12
REMARK    3  A    between atoms: N_9  and  C_11
REMARK    4  A    between atoms: C_16  and  C_25
REMARK    5  A    between atoms: N_27  and  C_28
REMARK    6  A    between atoms: C_28  and  C_30
REMARK    7  A    between atoms: C_28  and  C_31
REMARK    8  A    between atoms: C_31  and  C_32
REMARK    9  A    between atoms: C_31  and  C_33
REMARK   10  A    between atoms: C_31  and  C_34
REMARK                            x       y       z     vdW  Elec       q    Type
REMARK                         _______ _______ _______ _____ _____    ______ ____
ROOT
ATOM      1  C   UNL     1      -0.083  -1.618  -4.672  0.00  0.00    +0.250 C 
ATOM      2  O   UNL     1      -0.118  -0.478  -5.094  0.00  0.00    -0.270 OA
ATOM      3  N   UNL     1       0.086  -2.647  -5.526  0.00  0.00    -0.296 N 
ATOM      4  C   UNL     1       0.049  -4.096  -5.219  0.00  0.00    +0.121 C 
ATOM      5  C   UNL     1      -0.687  -4.731  -6.421  0.00  0.00    +0.100 C 
ATOM      6  C   UNL     1      -0.483  -3.735  -7.575  0.00  0.00    -0.004 C 
ATOM      7  C   UNL     1       0.345  -2.585  -6.984  0.00  0.00    +0.115 C 
ATOM      8  C   UNL     1       0.276  -4.401  -8.719  0.00  0.00    -0.010 C 
ATOM      9  C   UNL     1       0.415  -3.409  -9.878  0.00  0.00    -0.082 C 
ATOM     10  N   UNL     1      -0.918  -2.990 -10.328  0.00  0.00    +0.379 N 
ATOM     11  C   UNL     1      -1.606  -2.268  -9.250  0.00  0.00    -0.082 C 
ATOM     12  C   UNL     1      -1.830  -3.212  -8.065  0.00  0.00    -0.010 C 
ATOM     13  H   UNL     1      -0.825  -2.384 -11.130  0.00  0.00    -0.086 HD
ATOM     14  H   UNL     1      -1.457  -3.803 -10.584  0.00  0.00    -0.086 HD
ENDROOT
BRANCH   1  19
ATOM     15  C   UNL     1      -2.860   0.382  -0.049  0.00  0.00    +0.068 C 
ATOM     16  C   UNL     1      -1.916  -0.790   0.029  0.00  0.00    +0.071 A 
ATOM     17  C   UNL     1      -1.167  -1.369  -1.082  0.00  0.00    +0.060 A 
ATOM     18  C   UNL     1      -1.071  -1.080  -2.447  0.00  0.00    +0.067 A 
ATOM     19  C   UNL     1      -0.227  -1.874  -3.226  0.00  0.00    +0.074 A 
ATOM     20  C   UNL     1       0.482  -2.919  -2.617  0.00  0.00    +0.127 A 
ATOM     21  N   UNL     1       0.369  -3.164  -1.333  0.00  0.00    -0.235 NA
ATOM     22  C   UNL     1      -0.421  -2.438  -0.546  0.00  0.00    +0.160 A 
ATOM     23  N   UNL     1      -0.710  -2.485   0.788  0.00  0.00    -0.249 N 
ATOM     24  N   UNL     1      -1.616  -1.467   1.100  0.00  0.00    -0.174 NA
ATOM     25  C   UNL     1      -0.154  -3.446   1.743  0.00  0.00    +0.174 C 
ATOM     26 CL   UNL     1      -1.972   0.227  -3.150  0.00  0.00    -0.082 Cl
ENDBRANCH   1  19
BRANCH   5  27
ATOM     27  C   UNL     1      -0.078  -6.066  -6.763  0.00  0.00    +0.218 C 
ATOM     28  O   UNL     1       1.104  -6.260  -6.576  0.00  0.00    -0.275 OA
ATOM     29  N   UNL     1      -0.848  -7.046  -7.277  0.00  0.00    -0.312 N 
ATOM     30  H   UNL     1      -1.794  -6.891  -7.427  0.00  0.00    +0.149 HD
BRANCH  29  31
ATOM     31  C   UNL     1      -0.257  -8.344  -7.610  0.00  0.00    +0.075 C 
ATOM     32  C   UNL     1      -0.226  -9.226  -6.360  0.00  0.00    +0.028 C 
BRANCH  31  33
ATOM     33  C   UNL     1      -1.096  -9.025  -8.693  0.00  0.00    -0.020 C 
ATOM     34  C   UNL     1      -1.127  -8.143  -9.943  0.00  0.00    +0.012 C 
ATOM     35  C   UNL     1      -0.478 -10.380  -9.040  0.00  0.00    +0.012 C 
ATOM     36  C   UNL     1      -2.522  -9.231  -8.179  0.00  0.00    +0.012 C 
ENDBRANCH  31  33
ENDBRANCH  29  31
ENDBRANCH   5  27
TORSDOF 4
