REMARK  Name = ZINC23576328
REMARK  10 active torsions:
REMARK  status: ('A' for Active; 'I' for Inactive)
REMARK    1  A    between atoms: C_1  and  C_2
REMARK    2  A    between atoms: C_3  and  N_14
REMARK    3  A    between atoms: C_4  and  C_13
REMARK    4  A    between atoms: N_5  and  C_7
REMARK    5  A    between atoms: C_15  and  C_17
REMARK    6  A    between atoms: C_17  and  O_18
REMARK    7  A    between atoms: O_18  and  C_19
REMARK    8  A    between atoms: C_19  and  C_21
REMARK    9  A    between atoms: C_24  and  N_26
REMARK   10  A    between atoms: C_27  and  C_29
REMARK                            x       y       z     vdW  Elec       q    Type
REMARK                         _______ _______ _______ _____ _____    ______ ____
ROOT
ATOM      1  C   UNL     1       1.376   9.362   1.169  0.00  0.00    +0.328 C 
ENDROOT
BRANCH   1   3
ATOM      2  N   UNL     1       1.817   6.948   0.856  0.00  0.00    -0.280 N 
ATOM      3  C   UNL     1       0.943   7.971   0.783  0.00  0.00    +0.255 C 
ATOM      4  O   UNL     1      -0.193   7.772   0.406  0.00  0.00    -0.272 OA
ATOM      5  H   UNL     1       2.825   7.114   1.265  0.00  0.00    +0.155 HD
BRANCH   2   8
ATOM      6  C   UNL     1       1.408   6.169  -2.132  0.00  0.00    +0.069 C 
ATOM      7  C   UNL     1       1.248   5.281  -0.924  0.00  0.00    +0.082 A 
ATOM      8  C   UNL     1       1.441   5.668   0.411  0.00  0.00    +0.078 A 
ATOM      9  C   UNL     1       1.195   4.588   1.196  0.00  0.00    +0.063 A 
ATOM     10  N   UNL     1       0.866   3.552   0.378  0.00  0.00    -0.235 N 
ATOM     11  N   UNL     1       0.904   4.019  -0.943  0.00  0.00    -0.170 NA
ATOM     12  C   UNL     1       1.274   4.545   2.700  0.00  0.00    +0.068 C 
BRANCH  10  13
ATOM     13  C   UNL     1       0.540   2.251   0.784  0.00  0.00    +0.066 A 
ATOM     14  C   UNL     1      -0.418   1.525   0.089  0.00  0.00    +0.028 A 
ATOM     15  C   UNL     1      -0.737   0.242   0.492  0.00  0.00    +0.002 A 
ATOM     16  C   UNL     1      -0.103  -0.318   1.585  0.00  0.00    +0.000 A 
ATOM     17  C   UNL     1       0.852   0.403   2.279  0.00  0.00    +0.002 A 
ATOM     18  C   UNL     1       1.175   1.685   1.881  0.00  0.00    +0.028 A 
ENDBRANCH  10  13
ENDBRANCH   2   8
ENDBRANCH   1   3
BRANCH   1  19
ATOM     19  O   UNL     1       0.280  10.265   1.006  0.00  0.00    -0.451 OA
BRANCH  19  20
ATOM     20  C   UNL     1       0.503  11.560   1.312  0.00  0.00    +0.346 C 
ATOM     21  O   UNL     1       1.599  11.913   1.705  0.00  0.00    -0.244 OA
BRANCH  20  22
ATOM     22  C   UNL     1      -0.539  12.509   1.174  0.00  0.00    +0.098 A 
ATOM     23  C   UNL     1      -0.516  13.874   1.432  0.00  0.00    +0.024 A 
ATOM     24  C   UNL     1      -1.672  14.573   1.214  0.00  0.00    +0.032 A 
ATOM     25  C   UNL     1      -2.782  13.894   0.756  0.00  0.00    +0.073 A 
ATOM     26  S   UNL     1      -2.216  12.261   0.618  0.00  0.00    -0.067 S 
BRANCH  25  27
ATOM     27  N   UNL     1      -4.044  14.396   0.470  0.00  0.00    -0.273 N 
ATOM     28  C   UNL     1      -5.013  13.571   0.027  0.00  0.00    +0.284 C 
ATOM     29  O   UNL     1      -4.782  12.386  -0.122  0.00  0.00    -0.266 OA
ATOM     30  H   UNL     1      -4.252  15.468   0.604  0.00  0.00    +0.156 HD
BRANCH  28  31
ATOM     31  C   UNL     1      -6.346  14.102  -0.276  0.00  0.00    +0.189 A 
ATOM     32  C   UNL     1      -7.413  13.380  -0.729  0.00  0.00    +0.054 A 
ATOM     33  C   UNL     1      -8.476  14.285  -0.881  0.00  0.00    +0.042 A 
ATOM     34  C   UNL     1      -8.017  15.503  -0.518  0.00  0.00    +0.196 A 
ATOM     35  O   UNL     1      -6.734  15.388  -0.150  0.00  0.00    -0.458 OA
ENDBRANCH  28  31
ENDBRANCH  25  27
ENDBRANCH  20  22
ENDBRANCH  19  20
ENDBRANCH   1  19
TORSDOF 8
