REMARK  Name = ZINC63425543
REMARK  8 active torsions:
REMARK  status: ('A' for Active; 'I' for Inactive)
REMARK    1  A    between atoms: C_1  and  O_2
REMARK    2  A    between atoms: O_2  and  C_3
REMARK    3  A    between atoms: C_3  and  C_5
REMARK    4  A    between atoms: C_5  and  C_7
REMARK    5  A    between atoms: C_5  and  N_17
REMARK    6  A    between atoms: C_7  and  C_8
REMARK    7  A    between atoms: N_17  and  C_18
REMARK    8  A    between atoms: N_25  and  C_28
REMARK                            x       y       z     vdW  Elec       q    Type
REMARK                         _______ _______ _______ _____ _____    ______ ____
ROOT
ATOM      1  N   UNL     1       1.359  -2.487  -2.346  0.00  0.00    -0.336 N 
ATOM      2  H   UNL     1       0.847  -2.738  -3.131  0.00  0.00    +0.146 HD
ENDROOT
BRANCH   1   3
ATOM      3  C   UNL     1       2.706  -2.531  -2.378  0.00  0.00    +0.086 C 
ATOM      4  C   UNL     1       3.355  -3.030  -3.493  0.00  0.00    +0.113 C 
ATOM      5  C   UNL     1       2.617  -3.382  -4.719  0.00  0.00    +0.258 C 
ATOM      6  O   UNL     1       1.411  -3.241  -4.784  0.00  0.00    -0.270 OA
ATOM      7  N   UNL     1       3.316  -3.863  -5.768  0.00  0.00    -0.235 N 
ATOM      8  C   UNL     1       4.646  -4.023  -5.709  0.00  0.00    +0.320 C 
ATOM      9  O   UNL     1       5.216  -4.461  -6.689  0.00  0.00    -0.251 OA
ATOM     10  N   UNL     1       5.380  -3.724  -4.628  0.00  0.00    -0.190 N 
ATOM     11  C   UNL     1       4.815  -3.228  -3.508  0.00  0.00    +0.265 C 
ATOM     12  O   UNL     1       5.493  -2.956  -2.535  0.00  0.00    -0.269 OA
ATOM     13  H   UNL     1       2.846  -4.100  -6.582  0.00  0.00    +0.159 HD
BRANCH  10  14
ATOM     14  C   UNL     1       6.766  -3.927  -4.664  0.00  0.00    +0.046 A 
ATOM     15  C   UNL     1       7.350  -4.892  -3.855  0.00  0.00    +0.025 A 
ATOM     16  C   UNL     1       8.716  -5.090  -3.893  0.00  0.00    +0.022 A 
ATOM     17  C   UNL     1       9.504  -4.327  -4.737  0.00  0.00    +0.041 A 
ATOM     18  C   UNL     1       8.925  -3.364  -5.545  0.00  0.00    +0.022 A 
ATOM     19  C   UNL     1       7.558  -3.166  -5.514  0.00  0.00    +0.025 A 
ATOM     20 CL   UNL     1      11.221  -4.577  -4.782  0.00  0.00    -0.084 Cl
ENDBRANCH  10  14
ENDBRANCH   1   3
BRANCH   1  21
ATOM     21  C   UNL     1       0.669  -2.060  -1.126  0.00  0.00    +0.184 C 
BRANCH  21  22
ATOM     22  C   UNL     1       0.575  -0.556  -1.102  0.00  0.00    +0.328 C 
ATOM     23  O   UNL     1       1.037   0.092  -2.011  0.00  0.00    -0.249 OA
BRANCH  22  25
ATOM     24  C   UNL     1      -0.075   1.490  -0.115  0.00  0.00    +0.280 C 
ATOM     25  O   UNL     1      -0.022   0.062  -0.072  0.00  0.00    -0.467 OA
ENDBRANCH  22  25
ENDBRANCH  21  22
BRANCH  21  26
ATOM     26  C   UNL     1      -0.738  -2.660  -1.100  0.00  0.00    +0.066 C 
BRANCH  26  27
ATOM     27  C   UNL     1      -0.643  -4.160  -1.000  0.00  0.00    -0.039 C 
ATOM     28  C   UNL     1      -0.702  -4.906   0.127  0.00  0.00    -0.001 A 
ATOM     29  C   UNL     1      -0.864  -4.556   1.543  0.00  0.00    +0.010 A 
ATOM     30  C   UNL     1      -0.884  -5.545   2.465  0.00  0.00    +0.001 A 
ATOM     31  C   UNL     1      -0.755  -6.893   2.103  0.00  0.00    +0.002 A 
ATOM     32  C   UNL     1      -0.602  -7.292   0.823  0.00  0.00    +0.026 A 
ATOM     33  C   UNL     1      -0.567  -6.336  -0.229  0.00  0.00    +0.043 A 
ATOM     34  N   UNL     1      -0.431  -6.470  -1.526  0.00  0.00    -0.380 N 
ATOM     35  C   UNL     1      -0.470  -5.139  -2.141  0.00  0.00    +0.144 C 
ATOM     36  H   UNL     1      -0.326  -7.310  -2.001  0.00  0.00    +0.160 HD
ENDBRANCH  26  27
ENDBRANCH  21  26
ENDBRANCH   1  21
TORSDOF 7
