REMARK  Name = ZINC40172844
REMARK  10 active torsions:
REMARK  status: ('A' for Active; 'I' for Inactive)
REMARK    1  A    between atoms: C_1  and  C_2
REMARK    2  A    between atoms: C_2  and  C_3
REMARK    3  A    between atoms: C_8  and  N_9
REMARK    4  A    between atoms: C_10  and  C_12
REMARK    5  A    between atoms: C_12  and  C_14
REMARK    6  A    between atoms: C_12  and  N_16
REMARK    7  A    between atoms: C_14  and  C_15
REMARK    8  A    between atoms: C_20  and  S_21
REMARK    9  A    between atoms: S_21  and  C_22
REMARK   10  A    between atoms: C_22  and  C_23
REMARK                            x       y       z     vdW  Elec       q    Type
REMARK                         _______ _______ _______ _____ _____    ______ ____
ROOT
ATOM      1  N   UNL     1      -3.979  -0.678   5.031  0.00  0.00    -0.279 N 
ATOM      2  C   UNL     1      -3.885  -1.895   5.644  0.00  0.00    +0.216 A 
ATOM      3  N   UNL     1      -4.445  -1.797   6.825  0.00  0.00    -0.113 NA
ATOM      4  N   UNL     1      -4.910  -0.484   6.977  0.00  0.00    -0.121 NA
ATOM      5  C   UNL     1      -4.615   0.178   5.885  0.00  0.00    +0.194 A 
ATOM      6  N   UNL     1      -3.301  -3.036   5.110  0.00  0.00    -0.328 N 
ATOM      7  H   UNL     1      -2.910  -3.010   4.222  0.00  0.00    +0.145 HD
ATOM      8  H   UNL     1      -3.283  -3.858   5.625  0.00  0.00    +0.145 HD
ENDROOT
BRANCH   1   9
ATOM      9  C   UNL     1      -3.478  -0.347   3.694  0.00  0.00    +0.178 C 
BRANCH   9  11
ATOM     10  N   UNL     1      -1.309  -0.339   2.505  0.00  0.00    -0.284 N 
ATOM     11  C   UNL     1      -1.990  -0.578   3.643  0.00  0.00    +0.240 C 
ATOM     12  O   UNL     1      -1.405  -0.980   4.627  0.00  0.00    -0.273 OA
ATOM     13  H   UNL     1      -1.764   0.044   1.739  0.00  0.00    +0.155 HD
BRANCH  10  19
ATOM     14  C   UNL     1       0.600  -1.099   1.236  0.00  0.00    -0.026 A 
ATOM     15  C   UNL     1       1.948  -1.393   1.163  0.00  0.00    +0.005 A 
ATOM     16  C   UNL     1       2.753  -1.237   2.276  0.00  0.00    +0.000 A 
ATOM     17  C   UNL     1       2.212  -0.786   3.466  0.00  0.00    +0.002 A 
ATOM     18  C   UNL     1       0.865  -0.491   3.546  0.00  0.00    +0.023 A 
ATOM     19  C   UNL     1       0.055  -0.642   2.429  0.00  0.00    +0.037 A 
BRANCH  14  21
ATOM     20  C   UNL     1      -0.393   0.066  -0.714  0.00  0.00    +0.009 C 
ATOM     21  C   UNL     1      -0.277  -1.270   0.022  0.00  0.00    +0.033 C 
ENDBRANCH  14  21
ENDBRANCH  10  19
ENDBRANCH   9  11
BRANCH   9  22
ATOM     22  C   UNL     1      -4.168  -1.235   2.657  0.00  0.00    +0.031 C 
ATOM     23  C   UNL     1      -5.663  -0.911   2.621  0.00  0.00    +0.006 C 
ENDBRANCH   9  22
ENDBRANCH   1   9
BRANCH   5  24
ATOM     24  S   UNL     1      -4.979   1.874   5.572  0.00  0.00    -0.081 S 
BRANCH  24  25
ATOM     25  C   UNL     1      -5.819   2.428   7.081  0.00  0.00    +0.112 C 
BRANCH  25  26
ATOM     26  C   UNL     1      -6.190   3.883   6.944  0.00  0.00    -0.037 A 
ATOM     27  C   UNL     1      -5.303   4.863   7.348  0.00  0.00    +0.004 A 
ATOM     28  C   UNL     1      -5.643   6.197   7.223  0.00  0.00    +0.000 A 
ATOM     29  C   UNL     1      -6.870   6.551   6.693  0.00  0.00    +0.000 A 
ATOM     30  C   UNL     1      -7.756   5.570   6.288  0.00  0.00    +0.000 A 
ATOM     31  C   UNL     1      -7.415   4.236   6.409  0.00  0.00    +0.004 A 
ENDBRANCH  25  26
ENDBRANCH  24  25
ENDBRANCH   5  24
TORSDOF 8
