REMARK  Name = ZINC09410759
REMARK  8 active torsions:
REMARK  status: ('A' for Active; 'I' for Inactive)
REMARK    1  A    between atoms: C_1  and  C_2
REMARK    2  A    between atoms: C_7  and  C_8
REMARK    3  A    between atoms: N_10  and  C_11
REMARK    4  A    between atoms: C_12  and  C_24
REMARK    5  A    between atoms: C_13  and  C_23
REMARK    6  A    between atoms: C_14  and  C_22
REMARK    7  A    between atoms: N_15  and  C_16
REMARK    8  A    between atoms: C_16  and  C_17
REMARK                            x       y       z     vdW  Elec       q    Type
REMARK                         _______ _______ _______ _____ _____    ______ ____
ROOT
ATOM      1  C   UNL     1       1.338   2.336  -0.693  0.00  0.00    +0.117 A 
ATOM      2  C   UNL     1       2.510   1.643  -0.438  0.00  0.00    +0.060 A 
ATOM      3  C   UNL     1       3.490   2.647  -0.013  0.00  0.00    -0.017 A 
ATOM      4  C   UNL     1       2.864   3.836  -0.040  0.00  0.00    +0.021 A 
ATOM      5  N   UNL     1       1.571   3.655  -0.453  0.00  0.00    -0.325 N 
ATOM      6  C   UNL     1       3.487   5.159   0.323  0.00  0.00    +0.064 C 
ATOM      7  C   UNL     1       4.924   2.394   0.379  0.00  0.00    +0.046 C 
ENDROOT
BRANCH   2   8
ATOM      8  C   UNL     1       2.726   0.192  -0.568  0.00  0.00    +0.143 A 
ATOM      9  N   UNL     1       3.905  -0.456  -0.305  0.00  0.00    -0.338 N 
ATOM     10  H   UNL     1       4.757  -0.035   0.005  0.00  0.00    +0.167 HD
ATOM     11  C   UNL     1       3.694  -1.802  -0.548  0.00  0.00    +0.066 A 
ATOM     12  C   UNL     1       4.496  -2.931  -0.462  0.00  0.00    +0.028 A 
ATOM     13  C   UNL     1       3.977  -4.168  -0.782  0.00  0.00    +0.002 A 
ATOM     14  C   UNL     1       2.657  -4.293  -1.191  0.00  0.00    +0.002 A 
ATOM     15  C   UNL     1       1.846  -3.184  -1.283  0.00  0.00    +0.030 A 
ATOM     16  C   UNL     1       2.356  -1.922  -0.962  0.00  0.00    +0.089 A 
ATOM     17  N   UNL     1       1.818  -0.677  -0.948  0.00  0.00    -0.228 NA
ENDBRANCH   2   8
BRANCH   1  20
ATOM     18  C   UNL     1      -0.962   1.882  -0.352  0.00  0.00    +0.250 C 
ATOM     19  O   UNL     1      -0.930   2.531   0.675  0.00  0.00    -0.270 OA
ATOM     20  N   UNL     1       0.140   1.784  -1.123  0.00  0.00    -0.267 N 
ATOM     21  H   UNL     1       0.094   1.332  -1.980  0.00  0.00    +0.157 HD
BRANCH  18  28
ATOM     22  C   UNL     1      -2.913   1.157   1.658  0.00  0.00    +0.044 C 
ATOM     23  C   UNL     1      -3.158   0.845   0.204  0.00  0.00    -0.038 A 
ATOM     24  C   UNL     1      -4.320   0.209  -0.180  0.00  0.00    +0.004 A 
ATOM     25  C   UNL     1      -4.546  -0.078  -1.514  0.00  0.00    +0.000 A 
ATOM     26  C   UNL     1      -3.611   0.271  -2.472  0.00  0.00    +0.001 A 
ATOM     27  C   UNL     1      -2.447   0.912  -2.102  0.00  0.00    +0.013 A 
ATOM     28  C   UNL     1      -2.209   1.200  -0.756  0.00  0.00    +0.040 A 
ENDBRANCH  18  28
ENDBRANCH   1  20
BRANCH   5  29
ATOM     29  C   UNL     1       0.583   4.724  -0.611  0.00  0.00    +0.197 C 
BRANCH  29  30
ATOM     30  C   UNL     1       0.237   5.292   0.742  0.00  0.00    +0.124 A 
ATOM     31  C   UNL     1       0.770   6.399   1.290  0.00  0.00    +0.046 A 
ATOM     32  C   UNL     1       0.161   6.563   2.555  0.00  0.00    +0.041 A 
ATOM     33  C   UNL     1      -0.701   5.542   2.709  0.00  0.00    +0.195 A 
ATOM     34  O   UNL     1      -0.651   4.775   1.607  0.00  0.00    -0.466 OA
ENDBRANCH  29  30
ENDBRANCH   5  29
TORSDOF 5
