REMARK  Name = ZINC00930969
REMARK  10 active torsions:
REMARK  status: ('A' for Active; 'I' for Inactive)
REMARK    1  A    between atoms: C_1  and  O_2
REMARK    2  A    between atoms: O_2  and  C_3
REMARK    3  A    between atoms: C_6  and  N_11
REMARK    4  A    between atoms: C_8  and  O_9
REMARK    5  A    between atoms: O_9  and  C_10
REMARK    6  A    between atoms: N_11  and  C_12
REMARK    7  A    between atoms: C_12  and  C_14
REMARK    8  A    between atoms: C_12  and  C_19
REMARK    9  A    between atoms: N_21  and  C_22
REMARK   10  A    between atoms: C_28  and  C_30
REMARK                            x       y       z     vdW  Elec       q    Type
REMARK                         _______ _______ _______ _____ _____    ______ ____
ROOT
ATOM      1  N   UNL     1       3.048  -3.170  -8.835  0.00  0.00    -0.252 N 
ATOM      2  C   UNL     1       1.977  -2.399  -9.109  0.00  0.00    +0.265 C 
ATOM      3  O   UNL     1       1.161  -2.164  -8.243  0.00  0.00    -0.271 OA
ENDROOT
BRANCH   2   4
ATOM      4  C   UNL     1       1.795  -1.828 -10.492  0.00  0.00    +0.296 C 
ATOM      5  C   UNL     1       1.355  -0.361 -10.392  0.00  0.00    +0.283 C 
ATOM      6  O   UNL     1       1.177   0.145 -11.720  0.00  0.00    -0.484 OA
ATOM      7  C   UNL     1       0.480  -0.641 -12.585  0.00  0.00    +0.162 A 
ATOM      8  C   UNL     1      -0.039  -0.083 -13.745  0.00  0.00    +0.049 A 
ATOM      9  C   UNL     1      -0.747  -0.868 -14.634  0.00  0.00    +0.004 A 
ATOM     10  C   UNL     1      -0.940  -2.212 -14.372  0.00  0.00    +0.004 A 
ATOM     11  C   UNL     1      -0.427  -2.774 -13.218  0.00  0.00    +0.049 A 
ATOM     12  C   UNL     1       0.283  -1.991 -12.320  0.00  0.00    +0.163 A 
ATOM     13  O   UNL     1       0.775  -2.557 -11.184  0.00  0.00    -0.472 OA
ENDBRANCH   2   4
BRANCH   1  17
ATOM     14  C   UNL     1       5.912  -3.891 -11.783  0.00  0.00    +0.162 A 
ATOM     15  C   UNL     1       6.059  -2.817 -10.920  0.00  0.00    +0.051 A 
ATOM     16  C   UNL     1       5.111  -2.578  -9.944  0.00  0.00    +0.027 A 
ATOM     17  C   UNL     1       4.008  -3.414  -9.825  0.00  0.00    +0.041 A 
ATOM     18  C   UNL     1       3.858  -4.491 -10.688  0.00  0.00    +0.073 A 
ATOM     19  C   UNL     1       4.805  -4.727 -11.670  0.00  0.00    +0.163 A 
BRANCH  14  21
ATOM     20  C   UNL     1       7.955  -3.227 -12.803  0.00  0.00    +0.277 C 
ATOM     21  O   UNL     1       6.846  -4.125 -12.744  0.00  0.00    -0.491 OA
ENDBRANCH  14  21
BRANCH  19  22
ATOM     22  O   UNL     1       4.657  -5.779 -12.520  0.00  0.00    -0.491 OA
ATOM     23  C   UNL     1       3.632  -6.725 -12.208  0.00  0.00    +0.277 C 
ENDBRANCH  19  22
ENDBRANCH   1  17
BRANCH   1  24
ATOM     24  C   UNL     1       3.208  -3.753  -7.500  0.00  0.00    +0.204 C 
BRANCH  24  25
ATOM     25  C   UNL     1       2.032  -4.645  -7.198  0.00  0.00    +0.019 A 
ATOM     26  C   UNL     1       1.588  -5.732  -7.875  0.00  0.00    +0.013 A 
ATOM     27  C   UNL     1       0.475  -6.405  -7.407  0.00  0.00    +0.008 A 
ATOM     28  C   UNL     1      -0.140  -5.958  -6.285  0.00  0.00    +0.045 A 
ATOM     29  S   UNL     1       0.865  -4.549  -5.849  0.00  0.00    -0.099 S 
ENDBRANCH  24  25
BRANCH  24  30
ATOM     30  C   UNL     1       4.478  -4.563  -7.455  0.00  0.00    +0.239 C 
ATOM     31  O   UNL     1       5.180  -4.646  -8.440  0.00  0.00    -0.273 OA
ATOM     32  N   UNL     1       4.833  -5.197  -6.319  0.00  0.00    -0.311 N 
ATOM     33  H   UNL     1       4.271  -5.131  -5.531  0.00  0.00    +0.149 HD
BRANCH  32  34
ATOM     34  C   UNL     1       6.067  -5.984  -6.275  0.00  0.00    +0.073 C 
ATOM     35  C   UNL     1       5.791  -7.394  -6.802  0.00  0.00    +0.022 C 
ATOM     36  C   UNL     1       7.080  -8.217  -6.756  0.00  0.00    +0.002 C 
ATOM     37  C   UNL     1       7.581  -8.300  -5.312  0.00  0.00    +0.000 C 
ATOM     38  C   UNL     1       7.857  -6.891  -4.786  0.00  0.00    +0.002 C 
ATOM     39  C   UNL     1       6.568  -6.068  -4.832  0.00  0.00    +0.022 C 
ENDBRANCH  32  34
ENDBRANCH  24  30
ENDBRANCH   1  24
TORSDOF 8
