REMARK  Name = ZINC09492067
REMARK  9 active torsions:
REMARK  status: ('A' for Active; 'I' for Inactive)
REMARK    1  A    between atoms: C_1  and  C_2
REMARK    2  A    between atoms: C_2  and  C_29
REMARK    3  A    between atoms: N_5  and  N_9
REMARK    4  A    between atoms: C_10  and  C_12
REMARK    5  A    between atoms: C_12  and  S_13
REMARK    6  A    between atoms: S_13  and  C_14
REMARK    7  A    between atoms: C_17  and  C_22
REMARK    8  A    between atoms: N_18  and  C_19
REMARK    9  A    between atoms: C_19  and  C_20
REMARK                            x       y       z     vdW  Elec       q    Type
REMARK                         _______ _______ _______ _____ _____    ______ ____
ROOT
ATOM      1  N   UNL     1      -0.552   4.864   6.564  0.00  0.00    -0.223 N 
ATOM      2  C   UNL     1      -0.304   4.421   5.315  0.00  0.00    +0.240 C 
ATOM      3  O   UNL     1       0.671   4.820   4.713  0.00  0.00    -0.273 OA
ATOM      4  H   UNL     1      -1.331   4.545   7.045  0.00  0.00    +0.174 HD
ENDROOT
BRANCH   1   9
ATOM      5  C   UNL     1       1.895   8.762   7.139  0.00  0.00    +0.047 C 
ATOM      6  C   UNL     1       1.249   7.688   8.016  0.00  0.00    +0.137 C 
ATOM      7  C   UNL     1       0.038   7.094   7.325  0.00  0.00    +0.267 C 
ATOM      8  O   UNL     1      -0.970   7.675   6.986  0.00  0.00    -0.271 OA
ATOM      9  N   UNL     1       0.315   5.784   7.166  0.00  0.00    -0.137 N 
ATOM     10  C   UNL     1       1.519   5.471   7.660  0.00  0.00    +0.327 C 
ATOM     11  O   UNL     1       1.988   4.350   7.637  0.00  0.00    -0.251 OA
ATOM     12  N   UNL     1       2.153   6.537   8.182  0.00  0.00    -0.280 N 
ATOM     13  H   UNL     1       3.033   6.545   8.590  0.00  0.00    +0.152 HD
BRANCH   6  14
ATOM     14  C   UNL     1       0.867   8.260   9.357  0.00  0.00    -0.015 A 
ATOM     15  C   UNL     1      -0.403   8.769   9.555  0.00  0.00    +0.006 A 
ATOM     16  C   UNL     1      -0.754   9.289  10.787  0.00  0.00    +0.000 A 
ATOM     17  C   UNL     1       0.167   9.308  11.817  0.00  0.00    +0.000 A 
ATOM     18  C   UNL     1       1.438   8.804  11.618  0.00  0.00    +0.000 A 
ATOM     19  C   UNL     1       1.788   8.280  10.387  0.00  0.00    +0.006 A 
ENDBRANCH   6  14
ENDBRANCH   1   9
BRANCH   2  20
ATOM     20  C   UNL     1      -1.236   3.430   4.667  0.00  0.00    +0.174 C 
BRANCH  20  21
ATOM     21  S   UNL     1      -0.637   3.034   3.006  0.00  0.00    -0.078 S 
BRANCH  21  22
ATOM     22  C   UNL     1      -1.878   1.892   2.497  0.00  0.00    +0.170 A 
ATOM     23  N   UNL     1      -2.909   1.510   3.216  0.00  0.00    -0.230 NA
ATOM     24  C   UNL     1      -3.645   0.636   2.518  0.00  0.00    +0.140 A 
ATOM     25  C   UNL     1      -3.059   0.460   1.305  0.00  0.00    +0.070 A 
ATOM     26  N   UNL     1      -1.927   1.258   1.293  0.00  0.00    -0.315 N 
BRANCH  25  27
ATOM     27  C   UNL     1      -3.535  -0.414   0.213  0.00  0.00    +0.000 A 
ATOM     28  C   UNL     1      -4.874  -0.806   0.162  0.00  0.00    +0.011 A 
ATOM     29  C   UNL     1      -5.313  -1.617  -0.864  0.00  0.00    +0.020 A 
ATOM     30  C   UNL     1      -4.427  -2.052  -1.835  0.00  0.00    +0.041 A 
ATOM     31  C   UNL     1      -3.096  -1.671  -1.786  0.00  0.00    +0.020 A 
ATOM     32  C   UNL     1      -2.646  -0.855  -0.769  0.00  0.00    +0.011 A 
ATOM     33 CL   UNL     1      -4.986  -3.078  -3.118  0.00  0.00    -0.084 Cl
ENDBRANCH  25  27
BRANCH  26  34
ATOM     34  C   UNL     1      -0.970   1.398   0.193  0.00  0.00    +0.151 C 
BRANCH  34  35
ATOM     35  C   UNL     1       0.182   0.451   0.407  0.00  0.00    -0.013 C 
ATOM     36  C   UNL     1       1.402   0.917   0.518  0.00  0.00    +0.005 C 
ENDBRANCH  34  35
ENDBRANCH  26  34
ENDBRANCH  21  22
ENDBRANCH  20  21
ENDBRANCH   2  20
TORSDOF 8
