REMARK  Name = ZINC50397253
REMARK  4 active torsions:
REMARK  status: ('A' for Active; 'I' for Inactive)
REMARK    1  A    between atoms: C_3  and  S_9
REMARK    2  A    between atoms: C_6  and  N_7
REMARK    3  A    between atoms: S_9  and  N_12
REMARK    4  A    between atoms: N_12  and  C_13
REMARK                            x       y       z     vdW  Elec       q    Type
REMARK                         _______ _______ _______ _____ _____    ______ ____
ROOT
ATOM      1  S   UNL     1       3.950   2.339  -0.047  0.00  0.00    +0.060 S 
ATOM      2  O   UNL     1       4.897   1.845  -0.984  0.00  0.00    -0.153 OA
ATOM      3  O   UNL     1       3.478   3.679  -0.076  0.00  0.00    -0.153 OA
ENDROOT
BRANCH   1   6
ATOM      4  C   UNL     1       1.394  -0.538  -1.199  0.00  0.00    +0.025 A 
ATOM      5  C   UNL     1       2.505   0.277  -1.099  0.00  0.00    +0.031 A 
ATOM      6  C   UNL     1       2.531   1.302  -0.171  0.00  0.00    +0.119 A 
ATOM      7  C   UNL     1       1.445   1.515   0.660  0.00  0.00    +0.046 A 
ATOM      8  C   UNL     1       0.331   0.703   0.565  0.00  0.00    +0.040 A 
ATOM      9  C   UNL     1       0.302  -0.327  -0.366  0.00  0.00    +0.026 A 
ATOM     10 BR   UNL     1       1.486   2.918   1.927  0.00  0.00    -0.048 Br
BRANCH   9  11
ATOM     11  N   UNL     1      -0.823  -1.149  -0.465  0.00  0.00    -0.358 N 
ATOM     12  H   UNL     1      -0.842  -1.869  -1.116  0.00  0.00    +0.142 HD
ATOM     13  H   UNL     1      -1.584  -1.001   0.116  0.00  0.00    +0.142 HD
ENDBRANCH   9  11
ENDBRANCH   1   6
BRANCH   1  14
ATOM     14  N   UNL     1       4.602   2.099   1.456  0.00  0.00    -0.178 NA
ATOM     15  H   UNL     1       4.617   2.825   2.099  0.00  0.00    +0.149 HD
BRANCH  14  16
ATOM     16  C   UNL     1       5.156   0.791   1.814  0.00  0.00    +0.162 C 
ATOM     17  C   UNL     1       4.832   0.486   3.279  0.00  0.00    +0.031 C 
ATOM     18  C   UNL     1       5.645  -0.741   3.709  0.00  0.00    +0.021 C 
ATOM     19  C   UNL     1       7.127  -0.365   3.727  0.00  0.00    +0.104 C 
ATOM     20  N   UNL     1       7.509   0.266   2.470  0.00  0.00    -0.314 N 
ATOM     21  C   UNL     1       6.644   0.808   1.614  0.00  0.00    +0.232 C 
ATOM     22  O   UNL     1       7.083   1.342   0.617  0.00  0.00    -0.274 OA
ATOM     23  H   UNL     1       8.452   0.294   2.243  0.00  0.00    +0.149 HD
ENDBRANCH  14  16
ENDBRANCH   1  14
TORSDOF 4
