REMARK  Name = ZINC04933383
REMARK  4 active torsions:
REMARK  status: ('A' for Active; 'I' for Inactive)
REMARK    1  A    between atoms: C_1  and  C_2
REMARK    2  A    between atoms: C_7  and  C_8
REMARK    3  A    between atoms: C_17  and  C_19
REMARK    4  A    between atoms: C_20  and  C_25
REMARK                            x       y       z     vdW  Elec       q    Type
REMARK                         _______ _______ _______ _____ _____    ______ ____
ROOT
ATOM      1  C   UNL     1      -0.081   0.026   2.304  0.00  0.00    +0.251 C 
ATOM      2  O   UNL     1       0.034  -0.504   1.216  0.00  0.00    -0.270 OA
ATOM      3  N   UNL     1      -0.238  -0.730   3.408  0.00  0.00    -0.267 N 
ATOM      4  C   UNL     1      -0.488  -0.208   4.754  0.00  0.00    +0.118 C 
ATOM      5  C   UNL     1      -0.592  -1.448   5.656  0.00  0.00    +0.056 C 
ATOM      6  C   UNL     1      -0.386  -2.618   4.719  0.00  0.00    -0.024 A 
ATOM      7  C   UNL     1      -0.193  -2.127   3.436  0.00  0.00    +0.040 A 
ATOM      8  C   UNL     1       0.027  -3.024   2.388  0.00  0.00    +0.024 A 
ATOM      9  C   UNL     1       0.041  -4.380   2.622  0.00  0.00    +0.012 A 
ATOM     10  C   UNL     1      -0.159  -4.869   3.912  0.00  0.00    +0.002 A 
ATOM     11  C   UNL     1      -0.373  -3.976   4.961  0.00  0.00    +0.015 A 
ENDROOT
BRANCH  10  12
ATOM     12  C   UNL     1      -0.144  -6.330   4.168  0.00  0.00    +0.083 A 
ATOM     13  C   UNL     1      -0.642  -7.198   3.238  0.00  0.00    +0.016 A 
ATOM     14  S   UNL     1      -0.366  -8.762   4.061  0.00  0.00    -0.057 S 
ATOM     15  C   UNL     1       0.371  -8.106   5.551  0.00  0.00    +0.156 A 
ATOM     16  N   UNL     1       0.350  -6.808   5.307  0.00  0.00    -0.225 NA
ATOM     17  N   UNL     1       0.840  -8.781   6.667  0.00  0.00    -0.338 N 
ATOM     18  C   UNL     1      -1.254  -6.916   1.890  0.00  0.00    +0.054 C 
ATOM     19  H   UNL     1       1.218  -8.285   7.409  0.00  0.00    +0.144 HD
ATOM     20  H   UNL     1       0.789  -9.748   6.705  0.00  0.00    +0.144 HD
ENDBRANCH  10  12
BRANCH   1  27
ATOM     21  C   UNL     1       2.042   1.511   1.016  0.00  0.00    +0.044 C 
ATOM     22  C   UNL     1       0.971   2.227   1.798  0.00  0.00    -0.038 A 
ATOM     23  C   UNL     1       0.998   3.602   1.910  0.00  0.00    +0.004 A 
ATOM     24  C   UNL     1       0.013   4.260   2.623  0.00  0.00    +0.000 A 
ATOM     25  C   UNL     1      -1.001   3.545   3.237  0.00  0.00    +0.001 A 
ATOM     26  C   UNL     1      -1.037   2.170   3.137  0.00  0.00    +0.013 A 
ATOM     27  C   UNL     1      -0.049   1.499   2.414  0.00  0.00    +0.040 A 
ENDBRANCH   1  27
TORSDOF 2
