REMARK  Name = ZINC21721729
REMARK  8 active torsions:
REMARK  status: ('A' for Active; 'I' for Inactive)
REMARK    1  A    between atoms: C_8  and  S_10
REMARK    2  A    between atoms: S_10  and  C_11
REMARK    3  A    between atoms: C_11  and  C_12
REMARK    4  A    between atoms: C_14  and  C_17
REMARK    5  A    between atoms: C_17  and  C_18
REMARK    6  A    between atoms: C_18  and  C_19
REMARK    7  A    between atoms: N_21  and  C_22
REMARK    8  A    between atoms: C_25  and  C_28
REMARK                            x       y       z     vdW  Elec       q    Type
REMARK                         _______ _______ _______ _____ _____    ______ ____
ROOT
ATOM      1  C   UNL     1       4.124   4.674  -0.034  0.00  0.00    +0.182 A 
ATOM      2  N   UNL     1       4.460   5.403  -1.113  0.00  0.00    -0.195 NA
ATOM      3  C   UNL     1       4.973   6.515  -0.643  0.00  0.00    +0.228 A 
ATOM      4  O   UNL     1       4.940   6.424   0.690  0.00  0.00    -0.338 OA
ATOM      5  N   UNL     1       4.451   5.364   1.018  0.00  0.00    -0.060 NA
ENDROOT
BRANCH   1   6
ATOM      6  C   UNL     1       3.491   3.307  -0.043  0.00  0.00    +0.158 C 
BRANCH   6   7
ATOM      7  S   UNL     1       1.689   3.476  -0.036  0.00  0.00    -0.059 S 
BRANCH   7  15
ATOM      8  C   UNL     1      -0.630  -2.335  -0.079  0.00  0.00    +0.002 A 
ATOM      9  C   UNL     1       0.706  -2.707  -0.087  0.00  0.00    +0.004 A 
ATOM     10  C   UNL     1       1.699  -1.748  -0.081  0.00  0.00    +0.048 A 
ATOM     11  C   UNL     1       1.361  -0.404  -0.068  0.00  0.00    +0.156 A 
ATOM     12  C   UNL     1       0.011  -0.024  -0.060  0.00  0.00    +0.110 A 
ATOM     13  C   UNL     1      -0.983  -1.003  -0.066  0.00  0.00    +0.031 A 
ATOM     14  N   UNL     1      -0.011   1.337  -0.048  0.00  0.00    -0.203 NA
ATOM     15  C   UNL     1       1.223   1.777  -0.049  0.00  0.00    +0.258 A 
ATOM     16  O   UNL     1       2.081   0.741  -0.061  0.00  0.00    -0.431 OA
ENDBRANCH   7  15
ENDBRANCH   6   7
ENDBRANCH   1   6
BRANCH   3  17
ATOM     17  C   UNL     1       5.503   7.671  -1.451  0.00  0.00    +0.108 C 
BRANCH  17  18
ATOM     18  C   UNL     1       4.373   8.669  -1.716  0.00  0.00    +0.105 C 
BRANCH  18  19
ATOM     19  C   UNL     1       4.903   9.825  -2.524  0.00  0.00    +0.218 C 
ATOM     20  O   UNL     1       6.069   9.849  -2.856  0.00  0.00    -0.275 OA
ATOM     21  N   UNL     1       4.081  10.832  -2.878  0.00  0.00    -0.285 N 
ATOM     22  H   UNL     1       3.007  10.775  -2.644  0.00  0.00    +0.155 HD
BRANCH  21  23
ATOM     23  C   UNL     1       4.592  11.952  -3.544  0.00  0.00    +0.033 A 
ATOM     24  C   UNL     1       4.059  13.210  -3.301  0.00  0.00    +0.024 A 
ATOM     25  C   UNL     1       4.569  14.314  -3.955  0.00  0.00    +0.014 A 
ATOM     26  C   UNL     1       5.603  14.165  -4.861  0.00  0.00    +0.055 A 
ATOM     27  C   UNL     1       6.133  12.912  -5.110  0.00  0.00    +0.014 A 
ATOM     28  C   UNL     1       5.631  11.805  -4.454  0.00  0.00    +0.024 A 
BRANCH  26  29
ATOM     29  C   UNL     1       6.154  15.370  -5.579  0.00  0.00    +0.417 C 
ATOM     30  F   UNL     1       5.449  15.565  -6.771  0.00  0.00    -0.166 F 
ATOM     31  F   UNL     1       6.017  16.500  -4.766  0.00  0.00    -0.166 F 
ATOM     32  F   UNL     1       7.508  15.164  -5.866  0.00  0.00    -0.166 F 
ENDBRANCH  26  29
ENDBRANCH  21  23
ENDBRANCH  18  19
ENDBRANCH  17  18
ENDBRANCH   3  17
TORSDOF 8
