REMARK  Name = ZINC04854303
REMARK  2 active torsions:
REMARK  status: ('A' for Active; 'I' for Inactive)
REMARK    1  A    between atoms: C_5  and  C_7
REMARK    2  A    between atoms: N_19  and  C_20
REMARK                            x       y       z     vdW  Elec       q    Type
REMARK                         _______ _______ _______ _____ _____    ______ ____
ROOT
ATOM      1  C   UNL     1       2.263   3.766  -0.115  0.00  0.00    +0.157 C 
ATOM      2  C   UNL     1       2.538   4.319   1.264  0.00  0.00    +0.044 A 
ATOM      3  C   UNL     1       1.823   5.229   1.940  0.00  0.00    +0.025 A 
ATOM      4  C   UNL     1       2.458   5.424   3.185  0.00  0.00    +0.019 A 
ATOM      5  C   UNL     1       3.542   4.620   3.216  0.00  0.00    +0.086 A 
ATOM      6  N   UNL     1       3.602   3.939   2.039  0.00  0.00    -0.347 N 
ATOM      7  C   UNL     1       4.621   2.964   1.636  0.00  0.00    +0.140 C 
ATOM      8  C   UNL     1       4.080   2.116   0.480  0.00  0.00    +0.132 C 
ATOM      9  N   UNL     1       3.456   2.998  -0.518  0.00  0.00    -0.271 N 
ATOM     10  C   UNL     1       3.959   3.101  -1.764  0.00  0.00    +0.307 C 
ATOM     11  O   UNL     1       3.487   3.903  -2.546  0.00  0.00    -0.252 OA
ATOM     12  N   UNL     1       4.987   2.315  -2.143  0.00  0.00    -0.269 N 
ATOM     13  H   UNL     1       5.313   1.623  -1.547  0.00  0.00    +0.156 HD
ENDROOT
BRANCH  12  14
ATOM     14  C   UNL     1       5.584   2.498  -3.397  0.00  0.00    +0.038 A 
ATOM     15  C   UNL     1       5.638   3.765  -3.962  0.00  0.00    +0.027 A 
ATOM     16  C   UNL     1       6.226   3.948  -5.199  0.00  0.00    +0.051 A 
ATOM     17  C   UNL     1       6.762   2.867  -5.880  0.00  0.00    +0.166 A 
ATOM     18  C   UNL     1       6.709   1.594  -5.316  0.00  0.00    +0.168 A 
ATOM     19  C   UNL     1       6.125   1.414  -4.073  0.00  0.00    +0.073 A 
ATOM     20  O   UNL     1       7.298   0.711  -6.175  0.00  0.00    -0.453 OA
ATOM     21  C   UNL     1       8.075   1.516  -7.081  0.00  0.00    +0.466 C 
ATOM     22  O   UNL     1       7.385   2.780  -7.093  0.00  0.00    -0.453 OA
ENDBRANCH  12  14
BRANCH   1  27
ATOM     23  C   UNL     1      -0.554   1.608   1.173  0.00  0.00    +0.001 A 
ATOM     24  C   UNL     1      -1.151   1.199  -0.005  0.00  0.00    +0.003 A 
ATOM     25  C   UNL     1      -0.649   1.626  -1.219  0.00  0.00    +0.039 A 
ATOM     26  C   UNL     1       0.458   2.457  -1.256  0.00  0.00    +0.129 A 
ATOM     27  C   UNL     1       1.058   2.862  -0.076  0.00  0.00    +0.014 A 
ATOM     28  C   UNL     1       0.551   2.437   1.137  0.00  0.00    +0.008 A 
ATOM     29  F   UNL     1       0.953   2.872  -2.443  0.00  0.00    -0.205 F 
ENDBRANCH   1  27
TORSDOF 2
