REMARK  Name = ZINC07560681
REMARK  8 active torsions:
REMARK  status: ('A' for Active; 'I' for Inactive)
REMARK    1  A    between atoms: C_1  and  C_2
REMARK    2  A    between atoms: C_2  and  C_21
REMARK    3  A    between atoms: N_5  and  C_9
REMARK    4  A    between atoms: C_9  and  C_10
REMARK    5  A    between atoms: N_12  and  C_13
REMARK    6  A    between atoms: C_13  and  C_14
REMARK    7  A    between atoms: C_14  and  C_15
REMARK    8  A    between atoms: C_21  and  C_22
REMARK                            x       y       z     vdW  Elec       q    Type
REMARK                         _______ _______ _______ _____ _____    ______ ____
ROOT
ATOM      1  C   UNL     1      -5.450  -0.013   1.144  0.00  0.00    +0.042 C 
ATOM      2  C   UNL     1      -4.076  -0.474   0.653  0.00  0.00    +0.114 C 
ATOM      3  C   UNL     1      -2.994   0.471   1.134  0.00  0.00    +0.247 C 
ATOM      4  O   UNL     1      -2.696   0.720   2.282  0.00  0.00    -0.273 OA
ATOM      5  N   UNL     1      -2.430   0.977   0.019  0.00  0.00    -0.215 N 
ATOM      6  C   UNL     1      -3.004   0.491  -1.088  0.00  0.00    +0.310 C 
ATOM      7  O   UNL     1      -2.670   0.803  -2.214  0.00  0.00    -0.252 OA
ATOM      8  N   UNL     1      -3.989  -0.383  -0.815  0.00  0.00    -0.285 N 
ATOM      9  H   UNL     1      -4.538  -0.857  -1.459  0.00  0.00    +0.151 HD
ENDROOT
BRANCH   5  10
ATOM     10  C   UNL     1      -1.330   1.944   0.019  0.00  0.00    +0.213 C 
BRANCH  10  11
ATOM     11  C   UNL     1      -0.014   1.209   0.009  0.00  0.00    +0.231 C 
ATOM     12  O   UNL     1       0.002  -0.004   0.002  0.00  0.00    -0.274 OA
ATOM     13  N   UNL     1       1.143   1.898   0.001  0.00  0.00    -0.314 N 
ATOM     14  H   UNL     1       1.130   2.868   0.007  0.00  0.00    +0.149 HD
BRANCH  13  15
ATOM     15  C   UNL     1       2.422   1.183  -0.015  0.00  0.00    +0.108 C 
BRANCH  15  16
ATOM     16  C   UNL     1       3.571   2.193  -0.020  0.00  0.00    +0.049 C 
BRANCH  16  17
ATOM     17  C   UNL     1       4.886   1.458  -0.037  0.00  0.00    -0.072 C 
ATOM     18  C   UNL     1       5.451   1.250  -1.183  0.00  0.00    -0.028 C 
ATOM     19  C   UNL     1       6.756   0.529  -1.359  0.00  0.00    +0.027 C 
ATOM     20  C   UNL     1       7.502   0.453  -0.025  0.00  0.00    +0.004 C 
ATOM     21  C   UNL     1       6.530  -0.060   1.046  0.00  0.00    +0.005 C 
ATOM     22  C   UNL     1       5.457   1.006   1.276  0.00  0.00    +0.030 C 
ENDBRANCH  16  17
ENDBRANCH  15  16
ENDBRANCH  13  15
ENDBRANCH  10  11
ENDBRANCH   5  10
BRANCH   2  23
ATOM     23  C   UNL     1      -3.791  -1.902   1.121  0.00  0.00    +0.070 C 
BRANCH  23  24
ATOM     24  C   UNL     1      -4.812  -2.839   0.529  0.00  0.00    -0.041 A 
ATOM     25  C   UNL     1      -5.985  -3.102   1.212  0.00  0.00    +0.007 A 
ATOM     26  C   UNL     1      -6.927  -3.956   0.670  0.00  0.00    +0.050 A 
ATOM     27  C   UNL     1      -6.692  -4.560  -0.554  0.00  0.00    +0.166 A 
ATOM     28  C   UNL     1      -5.508  -4.300  -1.240  0.00  0.00    +0.166 A 
ATOM     29  C   UNL     1      -4.571  -3.438  -0.693  0.00  0.00    +0.053 A 
ATOM     30  O   UNL     1      -5.515  -5.007  -2.407  0.00  0.00    -0.453 OA
ATOM     31  C   UNL     1      -6.528  -6.017  -2.239  0.00  0.00    +0.466 C 
ATOM     32  O   UNL     1      -7.441  -5.431  -1.292  0.00  0.00    -0.453 OA
ENDBRANCH  23  24
ENDBRANCH   2  23
TORSDOF 7
