REMARK  Name = ZINC60031235
REMARK  3 active torsions:
REMARK  status: ('A' for Active; 'I' for Inactive)
REMARK    1  A    between atoms: C_1  and  C_2
REMARK    2  A    between atoms: C_8  and  N_10
REMARK    3  A    between atoms: C_17  and  C_20
REMARK                            x       y       z     vdW  Elec       q    Type
REMARK                         _______ _______ _______ _____ _____    ______ ____
ROOT
ATOM      1  N   UNL     1       2.116  -0.004   1.231  0.00  0.00    -0.325 N 
ATOM      2  C   UNL     1       2.817   0.132   2.425  0.00  0.00    +0.140 A 
ATOM      3  C   UNL     1       4.136   0.626   2.406  0.00  0.00    +0.049 A 
ATOM      4  C   UNL     1       4.830   0.763   3.567  0.00  0.00    +0.053 A 
ATOM      5  C   UNL     1       4.213   0.406   4.781  0.00  0.00    +0.178 A 
ATOM      6  N   UNL     1       4.607   0.421   6.046  0.00  0.00    -0.128 NA
ATOM      7  N   UNL     1       3.658  -0.013   6.799  0.00  0.00    -0.127 NA
ATOM      8  C   UNL     1       2.606  -0.328   6.066  0.00  0.00    +0.188 A 
ATOM      9  N   UNL     1       2.926  -0.072   4.766  0.00  0.00    -0.191 N 
ATOM     10  N   UNL     1       2.239  -0.197   3.557  0.00  0.00    -0.148 NA
ATOM     11  H   UNL     1       2.538   0.237   0.392  0.00  0.00    +0.148 HD
ENDROOT
BRANCH   1  18
ATOM     12  C   UNL     1      -0.019   1.526   0.010  0.00  0.00    +0.009 C 
ATOM     13  C   UNL     1       0.002  -0.004   0.002  0.00  0.00    +0.006 C 
ATOM     14  C   UNL     1       0.718  -0.497  -1.257  0.00  0.00    +0.005 C 
ATOM     15  C   UNL     1       0.739  -2.027  -1.265  0.00  0.00    +0.000 C 
ATOM     16  C   UNL     1       1.479  -2.534  -0.026  0.00  0.00    +0.002 C 
ATOM     17  C   UNL     1       0.763  -2.041   1.233  0.00  0.00    +0.022 C 
ATOM     18  C   UNL     1       0.742  -0.511   1.242  0.00  0.00    +0.075 C 
ENDBRANCH   1  18
BRANCH   8  19
ATOM     19  C   UNL     1       1.320  -0.860   6.563  0.00  0.00    +0.056 A 
ATOM     20  C   UNL     1       0.291  -1.156   5.667  0.00  0.00    +0.014 A 
ATOM     21  C   UNL     1      -0.908  -1.652   6.138  0.00  0.00    +0.001 A 
ATOM     22  C   UNL     1      -1.093  -1.856   7.494  0.00  0.00    +0.003 A 
ATOM     23  C   UNL     1      -0.079  -1.565   8.388  0.00  0.00    +0.039 A 
ATOM     24  C   UNL     1       1.130  -1.073   7.931  0.00  0.00    +0.134 A 
ATOM     25  F   UNL     1       2.122  -0.794   8.805  0.00  0.00    -0.205 F 
ENDBRANCH   8  19
TORSDOF 2
