REMARK  Name = ZINC39777061
REMARK  9 active torsions:
REMARK  status: ('A' for Active; 'I' for Inactive)
REMARK    1  A    between atoms: C_1  and  C_2
REMARK    2  A    between atoms: C_2  and  C_4
REMARK    3  A    between atoms: C_2  and  N_33
REMARK    4  A    between atoms: C_8  and  S_17
REMARK    5  A    between atoms: N_9  and  C_10
REMARK    6  A    between atoms: S_17  and  C_18
REMARK    7  A    between atoms: C_18  and  C_19
REMARK    8  A    between atoms: N_33  and  C_34
REMARK    9  A    between atoms: N_33  and  C_35
REMARK                            x       y       z     vdW  Elec       q    Type
REMARK                         _______ _______ _______ _____ _____    ______ ____
ROOT
ATOM      1  C   UNL     1       0.675  -0.297  -1.141  0.00  0.00    +0.168 C 
ATOM      2  N   UNL     1       0.126   0.241  -2.398  0.00  0.00    -0.248 N 
ATOM      3  N   UNL     1       1.218   0.729  -3.124  0.00  0.00    -0.162 NA
ATOM      4  C   UNL     1       2.326   0.560  -2.484  0.00  0.00    +0.180 C 
ATOM      5  N   UNL     1       2.125  -0.061  -1.256  0.00  0.00    -0.260 N 
ATOM      6  H   UNL     1      -0.806   0.253  -2.668  0.00  0.00    +0.170 HD
ENDROOT
BRANCH   5   7
ATOM      7  C   UNL     1       3.103  -0.395  -0.314  0.00  0.00    +0.038 A 
ATOM      8  C   UNL     1       3.378  -1.728  -0.039  0.00  0.00    +0.026 A 
ATOM      9  C   UNL     1       4.344  -2.055   0.892  0.00  0.00    +0.040 A 
ATOM     10  C   UNL     1       5.040  -1.055   1.550  0.00  0.00    +0.124 A 
ATOM     11  C   UNL     1       4.768   0.275   1.278  0.00  0.00    +0.040 A 
ATOM     12  C   UNL     1       3.806   0.607   0.344  0.00  0.00    +0.026 A 
ATOM     13  F   UNL     1       5.985  -1.377   2.460  0.00  0.00    -0.205 F 
ENDBRANCH   5   7
BRANCH   1  15
ATOM     14  C   UNL     1       0.281   1.961  -0.147  0.00  0.00    -0.010 C 
ATOM     15  C   UNL     1       0.102   0.456   0.061  0.00  0.00    -0.032 C 
BRANCH  15  16
ATOM     16  N   UNL     1      -1.327   0.147   0.196  0.00  0.00    +0.380 N 
ATOM     17  C   UNL     1      -1.500  -1.298   0.396  0.00  0.00    -0.096 C 
ATOM     18  C   UNL     1      -1.878   0.870   1.350  0.00  0.00    -0.096 C 
ATOM     19  H   UNL     1      -1.813   0.431  -0.642  0.00  0.00    -0.082 HD
ENDBRANCH  15  16
ENDBRANCH   1  15
BRANCH   4  20
ATOM     20  S   UNL     1       3.904   1.052  -3.094  0.00  0.00    -0.081 S 
BRANCH  20  21
ATOM     21  C   UNL     1       3.539   1.788  -4.711  0.00  0.00    +0.151 C 
BRANCH  21  22
ATOM     22  C   UNL     1       4.821   2.258  -5.350  0.00  0.00    +0.121 A 
ATOM     23  N   UNL     1       4.779   2.849  -6.571  0.00  0.00    -0.310 N 
ATOM     24  H   UNL     1       3.924   2.961  -7.016  0.00  0.00    +0.170 HD
ATOM     25  C   UNL     1       5.900   3.283  -7.178  0.00  0.00    +0.260 A 
ATOM     26  O   UNL     1       5.848   3.812  -8.275  0.00  0.00    -0.267 OA
ATOM     27  C   UNL     1       7.156   3.111  -6.510  0.00  0.00    +0.075 A 
ATOM     28  C   UNL     1       8.493   3.505  -6.978  0.00  0.00    -0.023 A 
ATOM     29  C   UNL     1       9.527   3.233  -6.163  0.00  0.00    -0.004 A 
ATOM     30  S   UNL     1       8.797   2.451  -4.742  0.00  0.00    -0.073 S 
ATOM     31  C   UNL     1       7.100   2.492  -5.254  0.00  0.00    +0.116 A 
ATOM     32  N   UNL     1       5.951   2.093  -4.715  0.00  0.00    -0.226 NA
ATOM     33  C   UNL     1      10.842   3.674  -6.746  0.00  0.00    +0.043 C 
ATOM     34  C   UNL     1      10.550   3.882  -8.248  0.00  0.00    +0.010 C 
ATOM     35  C   UNL     1       9.040   4.190  -8.234  0.00  0.00    +0.037 C 
ENDBRANCH  21  22
ENDBRANCH  20  21
ENDBRANCH   4  20
TORSDOF 6
