REMARK  Name = ZINC45443282
REMARK  10 active torsions:
REMARK  status: ('A' for Active; 'I' for Inactive)
REMARK    1  A    between atoms: C_1  and  C_2
REMARK    2  A    between atoms: C_5  and  C_36
REMARK    3  A    between atoms: C_6  and  S_8
REMARK    4  A    between atoms: S_8  and  O_11
REMARK    5  A    between atoms: O_11  and  C_12
REMARK    6  A    between atoms: C_17  and  C_18
REMARK    7  A    between atoms: C_18  and  O_20
REMARK    8  A    between atoms: O_20  and  C_21
REMARK    9  A    between atoms: C_21  and  C_22
REMARK   10  A    between atoms: N_24  and  C_25
REMARK                            x       y       z     vdW  Elec       q    Type
REMARK                         _______ _______ _______ _____ _____    ______ ____
ROOT
ATOM      1  C   UNL     1      -0.114  -1.189   4.328  0.00  0.00    +0.171 A 
ATOM      2  C   UNL     1      -0.204   0.050   3.709  0.00  0.00    +0.049 A 
ATOM      3  C   UNL     1      -1.030   1.025   4.231  0.00  0.00    +0.004 A 
ATOM      4  C   UNL     1      -1.773   0.777   5.374  0.00  0.00    +0.001 A 
ATOM      5  C   UNL     1      -1.696  -0.447   6.002  0.00  0.00    +0.019 A 
ATOM      6  C   UNL     1      -0.868  -1.445   5.481  0.00  0.00    +0.103 A 
ENDROOT
BRANCH   6   7
ATOM      7  C   UNL     1      -0.784  -2.759   6.144  0.00  0.00    +0.343 C 
ATOM      8  O   UNL     1      -0.061  -3.624   5.691  0.00  0.00    -0.245 OA
BRANCH   7   9
ATOM      9  O   UNL     1      -1.511  -3.002   7.253  0.00  0.00    -0.452 OA
BRANCH   9  10
ATOM     10  C   UNL     1      -1.381  -4.297   7.843  0.00  0.00    +0.328 C 
BRANCH  10  11
ATOM     11  C   UNL     1      -2.261  -4.383   9.064  0.00  0.00    +0.251 C 
ATOM     12  O   UNL     1      -2.933  -3.429   9.395  0.00  0.00    -0.272 OA
ATOM     13  N   UNL     1      -2.302  -5.520   9.787  0.00  0.00    -0.305 N 
ATOM     14  H   UNL     1      -1.764  -6.282   9.521  0.00  0.00    +0.149 HD
BRANCH  13  15
ATOM     15  C   UNL     1      -3.157  -5.603  10.973  0.00  0.00    +0.110 C 
ATOM     16  C   UNL     1      -2.598  -6.658  11.931  0.00  0.00    +0.068 C 
ATOM     17  C   UNL     1      -3.653  -6.939  13.008  0.00  0.00    +0.231 C 
ATOM     18  O   UNL     1      -4.794  -7.524  12.379  0.00  0.00    -0.492 OA
ATOM     19  C   UNL     1      -5.293  -6.911  11.274  0.00  0.00    +0.125 A 
ATOM     20  C   UNL     1      -4.555  -5.986  10.557  0.00  0.00    +0.014 A 
ATOM     21  C   UNL     1      -5.103  -5.391   9.434  0.00  0.00    +0.009 A 
ATOM     22  C   UNL     1      -6.382  -5.715   9.026  0.00  0.00    +0.001 A 
ATOM     23  C   UNL     1      -7.122  -6.638   9.742  0.00  0.00    +0.004 A 
ATOM     24  C   UNL     1      -6.582  -7.233  10.862  0.00  0.00    +0.046 A 
ENDBRANCH  13  15
ENDBRANCH  10  11
ENDBRANCH   9  10
ENDBRANCH   7   9
ENDBRANCH   6   7
BRANCH   1  25
ATOM     25  O   UNL     1       0.697  -2.148   3.816  0.00  0.00    -0.341 OA
BRANCH  25  26
ATOM     26  S   UNL     1       0.064  -2.958   2.693  0.00  0.00    +0.151 S 
ATOM     27  O   UNL     1       0.302  -2.240   1.490  0.00  0.00    -0.131 OA
ATOM     28  O   UNL     1      -1.244  -3.304   3.129  0.00  0.00    -0.131 OA
BRANCH  26  34
ATOM     29  C   UNL     1       4.309  -5.859   3.637  0.00  0.00    +0.044 C 
ATOM     30  C   UNL     1       2.936  -5.749   3.026  0.00  0.00    -0.049 A 
ATOM     31  C   UNL     1       2.385  -6.832   2.366  0.00  0.00    +0.004 A 
ATOM     32  C   UNL     1       1.125  -6.731   1.806  0.00  0.00    +0.005 A 
ATOM     33  C   UNL     1       0.416  -5.548   1.906  0.00  0.00    -0.022 A 
ATOM     34  C   UNL     1       0.967  -4.466   2.567  0.00  0.00    +0.131 A 
ATOM     35  C   UNL     1       2.225  -4.568   3.131  0.00  0.00    +0.034 A 
ATOM     36  C   UNL     1      -0.956  -5.438   1.294  0.00  0.00    +0.046 C 
ENDBRANCH  26  34
ENDBRANCH  25  26
ENDBRANCH   1  25
TORSDOF 8
