REMARK  Name = ZINC62143436
REMARK  3 active torsions:
REMARK  status: ('A' for Active; 'I' for Inactive)
REMARK    1  A    between atoms: C_7  and  C_16
REMARK    2  A    between atoms: C_9  and  C_10
REMARK    3  A    between atoms: C_21  and  C_24
REMARK                            x       y       z     vdW  Elec       q    Type
REMARK                         _______ _______ _______ _____ _____    ______ ____
ROOT
ATOM      1  C   UNL     1      -0.016   1.359   0.009  0.00  0.00    +0.004 A 
ATOM      2  C   UNL     1       1.195   2.068   0.002  0.00  0.00    +0.018 A 
ATOM      3  C   UNL     1       2.374   1.409  -0.013  0.00  0.00    +0.093 A 
ATOM      4  N   UNL     1       2.406   0.044  -0.022  0.00  0.00    -0.302 N 
ATOM      5  C   UNL     1       1.235  -0.671  -0.014  0.00  0.00    +0.078 A 
ATOM      6  C   UNL     1       0.002  -0.004   0.002  0.00  0.00    +0.028 A 
ATOM      7  C   UNL     1       1.601  -2.024  -0.025  0.00  0.00    +0.151 A 
ATOM      8  N   UNL     1       2.949  -2.067  -0.039  0.00  0.00    -0.226 NA
ATOM      9  C   UNL     1       3.428  -0.857  -0.037  0.00  0.00    +0.118 A 
ENDROOT
BRANCH   7  10
ATOM     10  C   UNL     1       0.694  -3.171  -0.022  0.00  0.00    +0.267 C 
ATOM     11  O   UNL     1      -0.511  -2.994  -0.009  0.00  0.00    -0.268 OA
ATOM     12  N   UNL     1       1.191  -4.424  -0.035  0.00  0.00    -0.296 N 
ATOM     13  C   UNL     1       2.621  -4.780  -0.045  0.00  0.00    +0.109 C 
ATOM     14  C   UNL     1       2.679  -6.207   0.557  0.00  0.00    +0.032 C 
ATOM     15  C   UNL     1       1.389  -6.843  -0.026  0.00  0.00    +0.074 C 
ATOM     16  C   UNL     1       0.397  -5.661  -0.034  0.00  0.00    +0.119 C 
BRANCH  15  17
ATOM     17  C   UNL     1       0.892  -7.951   0.866  0.00  0.00    +0.109 A 
ATOM     18  C   UNL     1       0.744  -9.240   0.511  0.00  0.00    +0.045 A 
ATOM     19  C   UNL     1       0.256  -9.925   1.647  0.00  0.00    +0.041 A 
ATOM     20  C   UNL     1       0.134  -9.014   2.628  0.00  0.00    +0.195 A 
ATOM     21  O   UNL     1       0.526  -7.821   2.151  0.00  0.00    -0.467 OA
ENDBRANCH  15  17
ENDBRANCH   7  10
BRANCH   9  22
ATOM     22  C   UNL     1       4.893  -0.505  -0.050  0.00  0.00    +0.056 C 
ATOM     23  C   UNL     1       5.545  -1.080  -1.309  0.00  0.00    +0.011 C 
ATOM     24  C   UNL     1       7.033  -0.723  -1.322  0.00  0.00    +0.001 C 
ATOM     25  C   UNL     1       7.710  -1.312  -0.083  0.00  0.00    +0.000 C 
ATOM     26  C   UNL     1       7.058  -0.737   1.176  0.00  0.00    +0.001 C 
ATOM     27  C   UNL     1       5.570  -1.094   1.189  0.00  0.00    +0.011 C 
ENDBRANCH   9  22
TORSDOF 3
