REMARK  Name = ZINC11814620
REMARK  11 active torsions:
REMARK  status: ('A' for Active; 'I' for Inactive)
REMARK    1  A    between atoms: C_1  and  C_2
REMARK    2  A    between atoms: C_6  and  C_7
REMARK    3  A    between atoms: C_15  and  C_19
REMARK    4  A    between atoms: C_19  and  C_21
REMARK    5  A    between atoms: C_19  and  N_25
REMARK    6  A    between atoms: C_21  and  C_22
REMARK    7  A    between atoms: C_22  and  C_23
REMARK    8  A    between atoms: C_22  and  C_24
REMARK    9  A    between atoms: C_26  and  C_28
REMARK   10  A    between atoms: C_30  and  C_35
REMARK   11  A    between atoms: C_32  and  C_34
REMARK                            x       y       z     vdW  Elec       q    Type
REMARK                         _______ _______ _______ _____ _____    ______ ____
ROOT
ATOM      1  C   UNL     1       1.436   4.427   0.012  0.00  0.00    +0.282 C 
ATOM      2  O   UNL     1       2.650   4.353   0.063  0.00  0.00    -0.267 OA
ATOM      3  N   UNL     1       0.838   5.631  -0.078  0.00  0.00    -0.293 N 
ATOM      4  C   UNL     1      -0.623   5.736  -0.072  0.00  0.00    +0.116 C 
ATOM      5  C   UNL     1      -1.029   6.931  -0.935  0.00  0.00    +0.095 C 
ATOM      6  C   UNL     1      -0.942   8.191  -0.116  0.00  0.00    +0.135 A 
ATOM      7  N   UNL     1      -1.828   9.146  -0.060  0.00  0.00    -0.134 NA
ATOM      8  N   UNL     1      -1.393  10.094   0.694  0.00  0.00    -0.132 NA
ATOM      9  C   UNL     1      -0.215   9.778   1.160  0.00  0.00    +0.154 A 
ATOM     10  N   UNL     1       0.094   8.551   0.676  0.00  0.00    -0.312 N 
ATOM     11  C   UNL     1       1.302   7.784   0.980  0.00  0.00    +0.144 C 
ATOM     12  C   UNL     1       1.643   6.857  -0.190  0.00  0.00    +0.130 C 
ENDROOT
BRANCH   1  18
ATOM     13  C   UNL     1       2.543   1.504  -0.082  0.00  0.00    +0.048 C 
ATOM     14  C   UNL     1       1.099   1.926   0.008  0.00  0.00    -0.000 A 
ATOM     15  C   UNL     1      -0.019   1.079   0.067  0.00  0.00    +0.045 A 
ATOM     16  C   UNL     1      -1.113   1.869   0.135  0.00  0.00    +0.196 A 
ATOM     17  O   UNL     1      -0.721   3.150   0.129  0.00  0.00    -0.458 OA
ATOM     18  C   UNL     1       0.625   3.205   0.049  0.00  0.00    +0.192 A 
ENDBRANCH   1  18
BRANCH   9  19
ATOM     19  C   UNL     1       0.642  10.623   2.067  0.00  0.00    +0.142 C 
BRANCH  19  20
ATOM     20  N   UNL     1      -0.184  11.179   3.142  0.00  0.00    -0.301 N 
ATOM     21  C   UNL     1       0.380  11.526   4.315  0.00  0.00    +0.245 C 
ATOM     22  O   UNL     1       1.575  11.377   4.483  0.00  0.00    -0.270 OA
ATOM     23  H   UNL     1      -1.137  11.298   3.008  0.00  0.00    +0.150 HD
BRANCH  21  24
ATOM     24  C   UNL     1      -0.454  12.087   5.399  0.00  0.00    +0.037 A 
ATOM     25  C   UNL     1      -1.825  12.265   5.208  0.00  0.00    +0.016 A 
ATOM     26  C   UNL     1      -2.598  12.784   6.226  0.00  0.00    -0.049 A 
ATOM     27  C   UNL     1      -2.016  13.139   7.429  0.00  0.00    +0.006 A 
ATOM     28  C   UNL     1      -0.656  12.971   7.623  0.00  0.00    -0.049 A 
ATOM     29  C   UNL     1       0.128  12.447   6.616  0.00  0.00    +0.016 A 
ATOM     30  C   UNL     1      -0.030  13.360   8.938  0.00  0.00    +0.044 C 
ATOM     31  C   UNL     1      -4.080  12.971   6.024  0.00  0.00    +0.044 C 
ENDBRANCH  21  24
ENDBRANCH  19  20
BRANCH  19  32
ATOM     32  C   UNL     1       1.268  11.763   1.262  0.00  0.00    +0.033 C 
BRANCH  32  33
ATOM     33  C   UNL     1       2.235  12.546   2.153  0.00  0.00    -0.015 C 
ATOM     34  C   UNL     1       3.404  11.644   2.552  0.00  0.00    +0.007 C 
ATOM     35  C   UNL     1       2.765  13.759   1.387  0.00  0.00    +0.007 C 
ENDBRANCH  32  33
ENDBRANCH  19  32
ENDBRANCH   9  19
TORSDOF 6
