REMARK  Name = ZINC28872230
REMARK  9 active torsions:
REMARK  status: ('A' for Active; 'I' for Inactive)
REMARK    1  A    between atoms: C_1  and  C_2
REMARK    2  A    between atoms: C_2  and  N_3
REMARK    3  A    between atoms: C_7  and  C_9
REMARK    4  A    between atoms: C_9  and  C_11
REMARK    5  A    between atoms: C_9  and  S_12
REMARK    6  A    between atoms: S_12  and  C_13
REMARK    7  A    between atoms: N_23  and  C_24
REMARK    8  A    between atoms: C_25  and  C_31
REMARK    9  A    between atoms: C_29  and  C_30
REMARK                            x       y       z     vdW  Elec       q    Type
REMARK                         _______ _______ _______ _____ _____    ______ ____
ROOT
ATOM      1  C   UNL     1       1.675   1.838   2.550  0.00  0.00    +0.177 A 
ATOM      2  N   UNL     1       1.827   2.628   1.516  0.00  0.00    -0.223 NA
ATOM      3  C   UNL     1       2.974   3.317   1.315  0.00  0.00    +0.079 A 
ATOM      4  C   UNL     1       3.139   4.162   0.213  0.00  0.00    +0.028 A 
ATOM      5  C   UNL     1       4.315   4.838   0.049  0.00  0.00    +0.002 A 
ATOM      6  C   UNL     1       5.352   4.700   0.963  0.00  0.00    +0.001 A 
ATOM      7  C   UNL     1       5.221   3.882   2.050  0.00  0.00    +0.015 A 
ATOM      8  C   UNL     1       4.032   3.179   2.242  0.00  0.00    +0.065 A 
ATOM      9  C   UNL     1       3.836   2.286   3.392  0.00  0.00    +0.267 A 
ATOM     10  O   UNL     1       4.710   2.127   4.224  0.00  0.00    -0.267 OA
ATOM     11  N   UNL     1       2.645   1.652   3.496  0.00  0.00    -0.255 N 
ENDROOT
BRANCH  11  12
ATOM     12  C   UNL     1       2.406   0.795   4.577  0.00  0.00    +0.058 A 
ATOM     13  C   UNL     1       1.851   1.291   5.749  0.00  0.00    -0.026 A 
ATOM     14  C   UNL     1       1.612   0.442   6.812  0.00  0.00    +0.005 A 
ATOM     15  C   UNL     1       1.934  -0.899   6.714  0.00  0.00    +0.001 A 
ATOM     16  C   UNL     1       2.491  -1.395   5.549  0.00  0.00    +0.005 A 
ATOM     17  C   UNL     1       2.728  -0.553   4.481  0.00  0.00    -0.026 A 
ATOM     18  C   UNL     1       3.336  -1.094   3.213  0.00  0.00    +0.046 C 
ATOM     19  C   UNL     1       1.506   2.754   5.860  0.00  0.00    +0.046 C 
ENDBRANCH  11  12
BRANCH   1  20
ATOM     20  S   UNL     1       0.147   0.980   2.733  0.00  0.00    -0.075 S 
BRANCH  20  21
ATOM     21  C   UNL     1      -0.729   1.579   1.267  0.00  0.00    +0.137 C 
ATOM     22  C   UNL     1      -0.013   1.086   0.008  0.00  0.00    +0.029 C 
BRANCH  21  27
ATOM     23  N   UNL     1      -5.305   1.810  -0.189  0.00  0.00    -0.299 N 
ATOM     24  C   UNL     1      -4.356   1.201   0.549  0.00  0.00    +0.306 C 
ATOM     25  O   UNL     1      -4.641   0.230   1.223  0.00  0.00    -0.252 OA
ATOM     26  N   UNL     1      -3.091   1.667   0.539  0.00  0.00    -0.239 N 
ATOM     27  C   UNL     1      -2.143   1.058   1.278  0.00  0.00    +0.233 C 
ATOM     28  O   UNL     1      -2.427   0.090   1.950  0.00  0.00    -0.274 OA
ATOM     29  H   UNL     1      -5.047   2.689  -0.799  0.00  0.00    +0.150 HD
ATOM     30  H   UNL     1      -2.834   2.546  -0.071  0.00  0.00    +0.159 HD
BRANCH  23  32
ATOM     31  C   UNL     1      -7.549   2.168  -1.093  0.00  0.00    +0.024 C 
ATOM     32  C   UNL     1      -6.679   1.303  -0.178  0.00  0.00    +0.102 C 
ENDBRANCH  23  32
ENDBRANCH  21  27
ENDBRANCH  20  21
ENDBRANCH   1  20
TORSDOF 5
