REMARK  Name = ZINC00921241
REMARK  8 active torsions:
REMARK  status: ('A' for Active; 'I' for Inactive)
REMARK    1  A    between atoms: N_9  and  C_10
REMARK    2  A    between atoms: C_10  and  C_11
REMARK    3  A    between atoms: N_13  and  C_14
REMARK    4  A    between atoms: N_13  and  C_24
REMARK    5  A    between atoms: C_24  and  C_26
REMARK    6  A    between atoms: C_24  and  C_33
REMARK    7  A    between atoms: C_29  and  O_32
REMARK    8  A    between atoms: N_35  and  C_36
REMARK                            x       y       z     vdW  Elec       q    Type
REMARK                         _______ _______ _______ _____ _____    ______ ____
ROOT
ATOM      1  C   UNL     1       4.816  -0.022  -0.703  0.00  0.00    +0.242 C 
ATOM      2  O   UNL     1       5.878  -0.532  -0.415  0.00  0.00    -0.273 OA
ATOM      3  N   UNL     1       3.673  -0.721  -0.563  0.00  0.00    -0.254 N 
ENDROOT
BRANCH   3   4
ATOM      4  C   UNL     1       2.458  -0.171  -0.994  0.00  0.00    +0.041 A 
ATOM      5  C   UNL     1       1.808  -0.703  -2.099  0.00  0.00    +0.027 A 
ATOM      6  C   UNL     1       0.611  -0.161  -2.524  0.00  0.00    +0.051 A 
ATOM      7  C   UNL     1       0.055   0.917  -1.849  0.00  0.00    +0.162 A 
ATOM      8  C   UNL     1       0.703   1.450  -0.742  0.00  0.00    +0.164 A 
ATOM      9  C   UNL     1       1.905   0.906  -0.316  0.00  0.00    +0.073 A 
ATOM     10  O   UNL     1       0.169   2.502  -0.062  0.00  0.00    -0.485 OA
ATOM     11  C   UNL     1      -0.842   3.258  -0.736  0.00  0.00    +0.270 C 
ATOM     12  C   UNL     1      -1.837   2.275  -1.367  0.00  0.00    +0.270 C 
ATOM     13  O   UNL     1      -1.122   1.444  -2.288  0.00  0.00    -0.485 OA
ENDBRANCH   3   4
BRANCH   1  14
ATOM     14  C   UNL     1       4.776   1.394  -1.217  0.00  0.00    +0.242 C 
BRANCH  14  23
ATOM     15  C   UNL     1       9.335   2.182  -3.733  0.00  0.00    +0.002 A 
ATOM     16  C   UNL     1       8.220   1.511  -4.220  0.00  0.00    +0.002 A 
ATOM     17  C   UNL     1       7.097   1.381  -3.452  0.00  0.00    +0.029 A 
ATOM     18  C   UNL     1       7.068   1.924  -2.172  0.00  0.00    +0.090 A 
ATOM     19  C   UNL     1       8.193   2.604  -1.673  0.00  0.00    +0.113 A 
ATOM     20  C   UNL     1       9.332   2.723  -2.481  0.00  0.00    +0.032 A 
ATOM     21  N   UNL     1       7.899   3.023  -0.427  0.00  0.00    -0.129 NA
ATOM     22  N   UNL     1       6.702   2.675  -0.109  0.00  0.00    -0.064 NA
ATOM     23  N   UNL     1       6.123   1.968  -1.174  0.00  0.00    -0.235 N 
ENDBRANCH  14  23
ENDBRANCH   1  14
BRANCH   3  24
ATOM     24  C   UNL     1       3.699  -2.056   0.039  0.00  0.00    +0.197 C 
BRANCH  24  25
ATOM     25  C   UNL     1       2.327  -2.673  -0.047  0.00  0.00    -0.018 A 
ATOM     26  C   UNL     1       1.238  -2.012   0.489  0.00  0.00    +0.009 A 
ATOM     27  C   UNL     1      -0.022  -2.573   0.406  0.00  0.00    +0.046 A 
ATOM     28  C   UNL     1      -0.192  -3.807  -0.204  0.00  0.00    +0.117 A 
ATOM     29  C   UNL     1       0.904  -4.471  -0.736  0.00  0.00    +0.046 A 
ATOM     30  C   UNL     1       2.160  -3.903  -0.657  0.00  0.00    +0.009 A 
BRANCH  28  31
ATOM     31  O   UNL     1      -1.429  -4.364  -0.281  0.00  0.00    -0.507 OA
ATOM     32  H   UNL     1      -1.654  -4.926   0.472  0.00  0.00    +0.292 HD
ENDBRANCH  28  31
ENDBRANCH  24  25
BRANCH  24  33
ATOM     33  C   UNL     1       4.111  -1.947   1.484  0.00  0.00    +0.239 C 
ATOM     34  O   UNL     1       4.359  -0.861   1.964  0.00  0.00    -0.273 OA
ATOM     35  N   UNL     1       4.205  -3.057   2.244  0.00  0.00    -0.311 N 
ATOM     36  H   UNL     1       4.007  -3.925   1.860  0.00  0.00    +0.149 HD
BRANCH  35  37
ATOM     37  C   UNL     1       4.606  -2.951   3.649  0.00  0.00    +0.073 C 
ATOM     38  C   UNL     1       6.133  -2.934   3.744  0.00  0.00    +0.022 C 
ATOM     39  C   UNL     1       6.551  -2.824   5.212  0.00  0.00    +0.002 C 
ATOM     40  C   UNL     1       6.005  -4.023   5.989  0.00  0.00    +0.000 C 
ATOM     41  C   UNL     1       4.478  -4.040   5.894  0.00  0.00    +0.002 C 
ATOM     42  C   UNL     1       4.059  -4.150   4.427  0.00  0.00    +0.022 C 
ENDBRANCH  35  37
ENDBRANCH  24  33
ENDBRANCH   3  24
TORSDOF 8
