REMARK  Name = ZINC21234843
REMARK  9 active torsions:
REMARK  status: ('A' for Active; 'I' for Inactive)
REMARK    1  A    between atoms: C_1  and  C_2
REMARK    2  A    between atoms: C_2  and  O_3
REMARK    3  A    between atoms: O_3  and  C_4
REMARK    4  A    between atoms: C_5  and  C_12
REMARK    5  A    between atoms: C_9  and  O_10
REMARK    6  A    between atoms: O_10  and  C_11
REMARK    7  A    between atoms: C_17  and  C_22
REMARK    8  A    between atoms: C_27  and  O_28
REMARK    9  A    between atoms: O_28  and  C_29
REMARK                            x       y       z     vdW  Elec       q    Type
REMARK                         _______ _______ _______ _____ _____    ______ ____
ROOT
ATOM      1  C   UNL     1       1.174  -2.159   0.678  0.00  0.00    +0.140 C 
ATOM      2  C   UNL     1       1.056  -0.655   0.619  0.00  0.00    +0.037 C 
ATOM      3  C   UNL     1       0.067   0.035   0.027  0.00  0.00    +0.017 C 
ATOM      4  C   UNL     1       0.071   1.555   0.042  0.00  0.00    +0.060 C 
ATOM      5  C   UNL     1       1.509   2.073   0.029  0.00  0.00    +0.035 C 
ATOM      6  C   UNL     1       2.214   1.524   1.275  0.00  0.00    +0.088 C 
ATOM      7  C   UNL     1       2.120   0.027   1.255  0.00  0.00    +0.163 C 
ATOM      8  O   UNL     1       2.987  -0.622   1.806  0.00  0.00    -0.292 OA
ATOM      9  N   UNL     1      -0.995  -0.524  -0.607  0.00  0.00    -0.316 N 
ATOM     10  C   UNL     1      -0.916  -1.567  -1.522  0.00  0.00    +0.052 A 
ATOM     11  C   UNL     1      -1.321  -1.427  -2.838  0.00  0.00    +0.025 A 
ATOM     12  C   UNL     1      -1.325  -2.536  -3.668  0.00  0.00    +0.002 A 
ATOM     13  C   UNL     1      -0.926  -3.770  -3.186  0.00  0.00    +0.002 A 
ATOM     14  C   UNL     1      -0.500  -3.906  -1.876  0.00  0.00    +0.025 A 
ATOM     15  C   UNL     1      -0.479  -2.795  -1.048  0.00  0.00    +0.049 A 
ATOM     16  N   UNL     1      -0.015  -2.872   0.264  0.00  0.00    -0.331 N 
ATOM     17  H   UNL     1      -2.011  -0.153  -0.409  0.00  0.00    +0.152 HD
ATOM     18  H   UNL     1      -0.569  -3.487   0.989  0.00  0.00    +0.147 HD
ENDROOT
BRANCH   1  20
ATOM     19  C   UNL     1       2.916  -3.820  -0.021  0.00  0.00    +0.167 A 
ATOM     20  C   UNL     1       2.318  -2.584  -0.207  0.00  0.00    +0.023 A 
ATOM     21  C   UNL     1       2.774  -1.738  -1.201  0.00  0.00    +0.009 A 
ATOM     22  C   UNL     1       3.822  -2.125  -2.015  0.00  0.00    +0.004 A 
ATOM     23  C   UNL     1       4.420  -3.359  -1.838  0.00  0.00    +0.049 A 
ATOM     24  C   UNL     1       3.968  -4.211  -0.844  0.00  0.00    +0.162 A 
BRANCH  24  25
ATOM     25  O   UNL     1       4.555  -5.426  -0.668  0.00  0.00    -0.491 OA
ATOM     26  C   UNL     1       5.633  -5.758  -1.546  0.00  0.00    +0.277 C 
ENDBRANCH  24  25
BRANCH  19  27
ATOM     27  O   UNL     1       2.473  -4.651   0.961  0.00  0.00    -0.488 OA
BRANCH  27  29
ATOM     28  C   UNL     1       1.064  -6.412   1.828  0.00  0.00    +0.048 C 
ATOM     29  C   UNL     1       1.530  -5.656   0.582  0.00  0.00    +0.226 C 
ENDBRANCH  27  29
ENDBRANCH  19  27
ENDBRANCH   1  20
BRANCH   5  30
ATOM     30  C   UNL     1       1.509   3.579   0.063  0.00  0.00    -0.002 A 
ATOM     31  C   UNL     1       0.925   4.247   1.123  0.00  0.00    +0.007 A 
ATOM     32  C   UNL     1       0.929   5.628   1.158  0.00  0.00    +0.001 A 
ATOM     33  C   UNL     1       1.509   6.347   0.128  0.00  0.00    +0.004 A 
ATOM     34  C   UNL     1       2.090   5.684  -0.936  0.00  0.00    +0.046 A 
ATOM     35  C   UNL     1       2.091   4.297  -0.971  0.00  0.00    +0.124 A 
BRANCH  35  36
ATOM     36  O   UNL     1       2.661   3.643  -2.017  0.00  0.00    -0.495 OA
ATOM     37  C   UNL     1       3.242   4.447  -3.046  0.00  0.00    +0.277 C 
ENDBRANCH  35  36
ENDBRANCH   5  30
TORSDOF 6
