REMARK  Name = ZINC09252400
REMARK  4 active torsions:
REMARK  status: ('A' for Active; 'I' for Inactive)
REMARK    1  A    between atoms: C_4  and  N_7
REMARK    2  A    between atoms: C_22  and  C_24
REMARK    3  A    between atoms: C_24  and  C_25
REMARK    4  A    between atoms: N_27  and  C_28
REMARK                            x       y       z     vdW  Elec       q    Type
REMARK                         _______ _______ _______ _____ _____    ______ ____
ROOT
ATOM      1  N   UNL     1       0.589  -4.665  -0.479  0.00  0.00    -0.269 N 
ATOM      2  C   UNL     1      -0.137  -4.913  -1.587  0.00  0.00    +0.307 C 
ATOM      3  O   UNL     1       0.414  -5.284  -2.605  0.00  0.00    -0.252 OA
ATOM      4  N   UNL     1      -1.475  -4.751  -1.566  0.00  0.00    -0.269 N 
ATOM      5  C   UNL     1      -2.301  -5.010  -2.751  0.00  0.00    +0.099 C 
ATOM      6  C   UNL     1      -1.451  -5.437  -3.945  0.00  0.00    +0.024 C 
ATOM      7  C   UNL     1      -2.376  -5.680  -5.143  0.00  0.00    +0.002 C 
ATOM      8  C   UNL     1      -3.398  -6.766  -4.808  0.00  0.00    +0.002 C 
ATOM      9  C   UNL     1      -4.223  -6.355  -3.583  0.00  0.00    +0.024 C 
ATOM     10  C   UNL     1      -3.276  -6.138  -2.407  0.00  0.00    +0.093 C 
ATOM     11  N   UNL     1      -3.978  -5.842  -1.172  0.00  0.00    -0.309 N 
ATOM     12  C   UNL     1      -3.471  -5.061  -0.211  0.00  0.00    +0.234 C 
ATOM     13  O   UNL     1      -4.085  -4.960   0.830  0.00  0.00    -0.274 OA
ATOM     14  C   UNL     1      -2.180  -4.303  -0.353  0.00  0.00    +0.172 C 
ATOM     15  H   UNL     1       0.144  -4.445   0.353  0.00  0.00    +0.156 HD
ATOM     16  H   UNL     1      -4.858  -6.228  -1.037  0.00  0.00    +0.149 HD
ENDROOT
BRANCH   1  20
ATOM     17  C   UNL     1       4.749  -4.843  -0.633  0.00  0.00    +0.000 A 
ATOM     18  C   UNL     1       4.036  -4.414  -1.737  0.00  0.00    +0.002 A 
ATOM     19  C   UNL     1       2.657  -4.354  -1.690  0.00  0.00    +0.023 A 
ATOM     20  C   UNL     1       1.987  -4.725  -0.531  0.00  0.00    +0.035 A 
ATOM     21  C   UNL     1       2.706  -5.150   0.578  0.00  0.00    +0.023 A 
ATOM     22  C   UNL     1       4.085  -5.214   0.522  0.00  0.00    +0.002 A 
ENDBRANCH   1  20
BRANCH  14  23
ATOM     23  C   UNL     1      -2.478  -2.806  -0.460  0.00  0.00    +0.128 C 
BRANCH  23  24
ATOM     24  C   UNL     1      -1.182  -2.036  -0.475  0.00  0.00    +0.219 C 
ATOM     25  O   UNL     1      -0.125  -2.627  -0.407  0.00  0.00    -0.275 OA
ATOM     26  N   UNL     1      -1.198  -0.692  -0.564  0.00  0.00    -0.285 N 
ATOM     27  H   UNL     1      -2.043  -0.215  -0.551  0.00  0.00    +0.155 HD
BRANCH  26  28
ATOM     28  C   UNL     1       0.004   0.017  -0.676  0.00  0.00    +0.033 A 
ATOM     29  C   UNL     1       1.137  -0.426  -0.006  0.00  0.00    +0.025 A 
ATOM     30  C   UNL     1       2.321   0.275  -0.119  0.00  0.00    +0.022 A 
ATOM     31  C   UNL     1       2.380   1.417  -0.898  0.00  0.00    +0.041 A 
ATOM     32  C   UNL     1       1.252   1.860  -1.566  0.00  0.00    +0.022 A 
ATOM     33  C   UNL     1       0.065   1.163  -1.457  0.00  0.00    +0.025 A 
ATOM     34 CL   UNL     1       3.871   2.296  -1.037  0.00  0.00    -0.084 Cl
ENDBRANCH  26  28
ENDBRANCH  23  24
ENDBRANCH  14  23
TORSDOF 4
