REMARK  Name = ZINC13740437
REMARK  6 active torsions:
REMARK  status: ('A' for Active; 'I' for Inactive)
REMARK    1  A    between atoms: C_1  and  C_2
REMARK    2  A    between atoms: N_11  and  C_14
REMARK    3  A    between atoms: C_14  and  C_15
REMARK    4  A    between atoms: C_15  and  C_16
REMARK    5  A    between atoms: C_17  and  C_35
REMARK    6  A    between atoms: C_27  and  C_29
REMARK                            x       y       z     vdW  Elec       q    Type
REMARK                         _______ _______ _______ _____ _____    ______ ____
ROOT
ATOM      1  C   UNL     1       2.856  -6.548   6.942  0.00  0.00    -0.018 A 
ATOM      2  C   UNL     1       3.884  -7.277   6.437  0.00  0.00    +0.020 A 
ATOM      3  N   UNL     1       4.535  -7.931   7.436  0.00  0.00    -0.340 N 
ATOM      4  C   UNL     1       3.917  -7.624   8.623  0.00  0.00    +0.053 A 
ATOM      5  C   UNL     1       2.850  -6.745   8.379  0.00  0.00    +0.004 A 
ATOM      6  C   UNL     1       2.087  -6.295   9.459  0.00  0.00    +0.010 A 
ATOM      7  C   UNL     1       2.445  -6.752  10.707  0.00  0.00    +0.001 A 
ATOM      8  C   UNL     1       3.510  -7.622  10.932  0.00  0.00    +0.006 A 
ATOM      9  C   UNL     1       4.268  -8.085   9.889  0.00  0.00    -0.023 A 
ATOM     10  C   UNL     1       5.439  -9.020   9.959  0.00  0.00    +0.039 C 
ATOM     11  C   UNL     1       6.393  -8.736   8.793  0.00  0.00    +0.030 C 
ATOM     12  C   UNL     1       5.695  -8.832   7.431  0.00  0.00    +0.091 C 
ATOM     13  C   UNL     1       4.251  -7.351   4.977  0.00  0.00    +0.064 C 
ENDROOT
BRANCH  12  14
ATOM     14  C   UNL     1       6.666  -8.414   6.325  0.00  0.00    +0.012 C 
ATOM     15  C   UNL     1       7.878  -9.348   6.330  0.00  0.00    +0.005 C 
ATOM     16  C   UNL     1       8.849  -8.930   5.224  0.00  0.00    +0.000 C 
ATOM     17  C   UNL     1       9.313  -7.493   5.470  0.00  0.00    +0.000 C 
ATOM     18  C   UNL     1       8.101  -6.558   5.465  0.00  0.00    +0.000 C 
ATOM     19  C   UNL     1       7.130  -6.977   6.570  0.00  0.00    +0.005 C 
ENDBRANCH  12  14
BRANCH   1  20
ATOM     20  C   UNL     1       1.901  -5.688   6.155  0.00  0.00    +0.053 C 
BRANCH  20  21
ATOM     21  C   UNL     1       2.463  -4.269   6.048  0.00  0.00    +0.089 C 
BRANCH  21  32
ATOM     22  C   UNL     1       0.394  -0.993  -1.526  0.00  0.00    +0.044 C 
ATOM     23  C   UNL     1       0.511  -0.468  -0.119  0.00  0.00    -0.046 A 
ATOM     24  C   UNL     1       0.638   0.894   0.123  0.00  0.00    +0.021 A 
ATOM     25  C   UNL     1       0.742   1.342   1.424  0.00  0.00    +0.084 A 
ATOM     26  N   UNL     1       0.723   0.495   2.436  0.00  0.00    -0.350 N 
ATOM     27  C   UNL     1       0.604  -0.810   2.247  0.00  0.00    +0.099 A 
ATOM     28  C   UNL     1       0.488  -1.331   0.962  0.00  0.00    +0.045 A 
ATOM     29  N   UNL     1       0.588  -1.666   3.341  0.00  0.00    -0.314 N 
ATOM     30  C   UNL     1       0.827  -1.158   4.701  0.00  0.00    +0.122 C 
ATOM     31  C   UNL     1       1.916  -2.014   5.356  0.00  0.00    +0.103 C 
ATOM     32  N   UNL     1       1.532  -3.430   5.281  0.00  0.00    -0.299 NA
ATOM     33  C   UNL     1       1.441  -3.884   3.887  0.00  0.00    +0.103 C 
ATOM     34  C   UNL     1       0.326  -3.103   3.172  0.00  0.00    +0.122 C 
ATOM     35  H   UNL     1       0.798   0.837   3.341  0.00  0.00    +0.166 HD
ENDBRANCH  21  32
ENDBRANCH  20  21
ENDBRANCH   1  20
TORSDOF 4
