REMARK  Name = ZINC53208252
REMARK  7 active torsions:
REMARK  status: ('A' for Active; 'I' for Inactive)
REMARK    1  A    between atoms: C_4  and  C_7
REMARK    2  A    between atoms: C_7  and  N_11
REMARK    3  A    between atoms: C_12  and  C_14
REMARK    4  A    between atoms: C_14  and  S_15
REMARK    5  A    between atoms: S_15  and  C_16
REMARK    6  A    between atoms: C_19  and  C_22
REMARK    7  A    between atoms: N_20  and  N_21
REMARK                            x       y       z     vdW  Elec       q    Type
REMARK                         _______ _______ _______ _____ _____    ______ ____
ROOT
ATOM      1  C   UNL     1       6.174   2.147  -0.694  0.00  0.00    +0.173 C 
ENDROOT
BRANCH   1   3
ATOM      2  N   UNL     1       4.818   0.081  -0.586  0.00  0.00    -0.305 N 
ATOM      3  C   UNL     1       5.112   1.287  -0.060  0.00  0.00    +0.224 C 
ATOM      4  O   UNL     1       4.521   1.680   0.924  0.00  0.00    -0.275 OA
ATOM      5  H   UNL     1       5.340  -0.265  -1.326  0.00  0.00    +0.150 HD
BRANCH   2   6
ATOM      6  C   UNL     1       3.709  -0.706  -0.040  0.00  0.00    +0.060 C 
ATOM      7  C   UNL     1       3.937  -1.172   1.408  0.00  0.00    +0.030 C 
ATOM      8  C   UNL     1       4.605  -2.425   0.816  0.00  0.00    +0.005 C 
ATOM      9  C   UNL     1       3.751  -2.190  -0.441  0.00  0.00    +0.030 C 
BRANCH   6  13
ATOM     10  C   UNL     1      -0.096   1.132  -0.664  0.00  0.00    +0.000 A 
ATOM     11  C   UNL     1       0.002  -0.007   0.114  0.00  0.00    +0.000 A 
ATOM     12  C   UNL     1       1.234  -0.602   0.316  0.00  0.00    +0.006 A 
ATOM     13  C   UNL     1       2.367  -0.058  -0.260  0.00  0.00    -0.024 A 
ATOM     14  C   UNL     1       2.268   1.080  -1.039  0.00  0.00    +0.006 A 
ATOM     15  C   UNL     1       1.037   1.676  -1.240  0.00  0.00    +0.000 A 
ENDBRANCH   6  13
ENDBRANCH   2   6
ENDBRANCH   1   3
BRANCH   1  16
ATOM     16  S   UNL     1       6.335   3.695   0.238  0.00  0.00    -0.075 S 
BRANCH  16  17
ATOM     17  C   UNL     1       7.598   4.577  -0.616  0.00  0.00    +0.209 A 
ATOM     18  N   UNL     1       8.245   4.172  -1.685  0.00  0.00    -0.121 NA
ATOM     19  N   UNL     1       9.100   5.060  -2.049  0.00  0.00    -0.126 NA
ATOM     20  C   UNL     1       9.052   6.090  -1.233  0.00  0.00    +0.188 A 
ATOM     21  N   UNL     1       8.083   5.814  -0.293  0.00  0.00    -0.223 N 
BRANCH  20  22
ATOM     22  C   UNL     1       9.872   7.309  -1.313  0.00  0.00    +0.058 A 
ATOM     23  C   UNL     1      10.630   7.774  -2.358  0.00  0.00    +0.019 A 
ATOM     24  C   UNL     1      11.321   8.955  -2.199  0.00  0.00    +0.008 A 
ATOM     25  C   UNL     1      11.231   9.621  -1.019  0.00  0.00    +0.046 A 
ATOM     26  S   UNL     1      10.134   8.572  -0.079  0.00  0.00    -0.093 S 
ENDBRANCH  20  22
BRANCH  21  27
ATOM     27  N   UNL     1       7.691   6.610   0.746  0.00  0.00    -0.295 N 
ATOM     28  H   UNL     1       8.239   6.421   1.572  0.00  0.00    +0.163 HD
ATOM     29  H   UNL     1       7.741   7.585   0.493  0.00  0.00    +0.163 HD
ENDBRANCH  21  27
ENDBRANCH  16  17
ENDBRANCH   1  16
TORSDOF 7
