REMARK  Name = ZINC30880784
REMARK  10 active torsions:
REMARK  status: ('A' for Active; 'I' for Inactive)
REMARK    1  A    between atoms: C_1  and  C_2
REMARK    2  A    between atoms: C_4  and  C_24
REMARK    3  A    between atoms: C_6  and  C_21
REMARK    4  A    between atoms: C_9  and  C_11
REMARK    5  A    between atoms: C_11  and  C_12
REMARK    6  A    between atoms: N_17  and  C_20
REMARK    7  A    between atoms: C_21  and  C_22
REMARK    8  A    between atoms: C_21  and  C_23
REMARK    9  A    between atoms: C_24  and  N_25
REMARK   10  A    between atoms: N_28  and  C_29
REMARK                            x       y       z     vdW  Elec       q    Type
REMARK                         _______ _______ _______ _____ _____    ______ ____
ROOT
ATOM      1  C   UNL     1      -4.182   4.265   3.018  0.00  0.00    +0.039 C 
ATOM      2  C   UNL     1      -4.517   3.205   2.001  0.00  0.00    -0.073 C 
ATOM      3  C   UNL     1      -3.538   2.566   1.445  0.00  0.00    -0.022 C 
ATOM      4  C   UNL     1      -3.714   1.494   0.410  0.00  0.00    +0.032 C 
ATOM      5  C   UNL     1      -5.155   0.979   0.423  0.00  0.00    +0.000 C 
ATOM      6  C   UNL     1      -6.101   2.186   0.380  0.00  0.00    +0.012 C 
ATOM      7  C   UNL     1      -5.965   2.955   1.696  0.00  0.00    +0.023 C 
ENDROOT
BRANCH   5   8
ATOM      8  C   UNL     1      -5.396   0.092  -0.800  0.00  0.00    -0.013 C 
ATOM      9  C   UNL     1      -6.795  -0.523  -0.716  0.00  0.00    +0.007 C 
ATOM     10  C   UNL     1      -5.285   0.936  -2.071  0.00  0.00    +0.007 C 
ENDBRANCH   5   8
BRANCH   7  11
ATOM     11  C   UNL     1      -6.589   2.137   2.828  0.00  0.00    +0.103 C 
BRANCH  11  12
ATOM     12  C   UNL     1      -8.070   1.999   2.591  0.00  0.00    +0.216 C 
ATOM     13  O   UNL     1      -8.580   2.514   1.618  0.00  0.00    -0.276 OA
ATOM     14  N   UNL     1      -8.830   1.304   3.461  0.00  0.00    -0.299 N 
ATOM     15  C   UNL     1      -8.232   0.666   4.644  0.00  0.00    +0.123 C 
ATOM     16  C   UNL     1      -9.038   1.094   5.881  0.00  0.00    +0.103 C 
ATOM     17  N   UNL     1     -10.458   0.789   5.663  0.00  0.00    -0.302 NA
ATOM     18  C   UNL     1     -11.002   1.560   4.537  0.00  0.00    +0.103 C 
ATOM     19  C   UNL     1     -10.278   1.156   3.249  0.00  0.00    +0.123 C 
ATOM     20  C   UNL     1     -11.239   1.019   6.886  0.00  0.00    +0.105 C 
ENDBRANCH  11  12
ENDBRANCH   7  11
BRANCH   4  21
ATOM     21  C   UNL     1      -2.760   0.337   0.711  0.00  0.00    +0.113 C 
BRANCH  21  22
ATOM     22  N   UNL     1      -1.376   0.790   0.548  0.00  0.00    -0.299 N 
ATOM     23  C   UNL     1      -0.357  -0.066   0.763  0.00  0.00    +0.304 C 
ATOM     24  O   UNL     1      -0.586  -1.214   1.093  0.00  0.00    -0.253 OA
ATOM     25  N   UNL     1       0.916   0.349   0.607  0.00  0.00    -0.269 N 
ATOM     26  H   UNL     1      -1.169   1.828   0.250  0.00  0.00    +0.150 HD
ATOM     27  H   UNL     1       1.122   1.364   0.236  0.00  0.00    +0.156 HD
BRANCH  25  28
ATOM     28  C   UNL     1       1.975  -0.511   0.917  0.00  0.00    +0.035 A 
ATOM     29  C   UNL     1       3.144  -0.004   1.468  0.00  0.00    +0.023 A 
ATOM     30  C   UNL     1       4.186  -0.856   1.779  0.00  0.00    +0.002 A 
ATOM     31  C   UNL     1       4.070  -2.211   1.531  0.00  0.00    +0.000 A 
ATOM     32  C   UNL     1       2.909  -2.719   0.977  0.00  0.00    +0.002 A 
ATOM     33  C   UNL     1       1.862  -1.872   0.669  0.00  0.00    +0.023 A 
ENDBRANCH  25  28
ENDBRANCH  21  22
ENDBRANCH   4  21
TORSDOF 6
