REMARK  Name = ZINC04182612
REMARK  5 active torsions:
REMARK  status: ('A' for Active; 'I' for Inactive)
REMARK    1  A    between atoms: C_1  and  C_2
REMARK    2  A    between atoms: C_3  and  C_24
REMARK    3  A    between atoms: N_17  and  C_18
REMARK    4  A    between atoms: C_24  and  O_26
REMARK    5  A    between atoms: O_26  and  C_27
REMARK                            x       y       z     vdW  Elec       q    Type
REMARK                         _______ _______ _______ _____ _____    ______ ____
ROOT
ATOM      1  C   UNL     1       1.620   7.335  -1.343  0.00  0.00    +0.080 C 
ATOM      2  C   UNL     1       2.097   6.262  -0.362  0.00  0.00    +0.196 C 
ATOM      3  C   UNL     1       3.523   5.838  -0.733  0.00  0.00    +0.185 C 
ATOM      4  C   UNL     1       3.901   4.671   0.193  0.00  0.00    +0.125 C 
ATOM      5  C   UNL     1       3.689   5.113   1.624  0.00  0.00    +0.015 A 
ATOM      6  C   UNL     1       4.391   4.478   2.632  0.00  0.00    +0.009 A 
ATOM      7  C   UNL     1       4.212   4.858   3.949  0.00  0.00    +0.001 A 
ATOM      8  C   UNL     1       3.327   5.875   4.259  0.00  0.00    +0.004 A 
ATOM      9  C   UNL     1       2.627   6.512   3.256  0.00  0.00    +0.046 A 
ATOM     10  C   UNL     1       2.807   6.135   1.928  0.00  0.00    +0.128 A 
ATOM     11  O   UNL     1       2.112   6.795   0.966  0.00  0.00    -0.467 OA
ATOM     12  N   UNL     1       2.957   3.572  -0.070  0.00  0.00    -0.318 N 
ATOM     13  C   UNL     1       1.669   3.848  -0.336  0.00  0.00    +0.141 C 
ATOM     14  S   UNL     1       0.574   2.550  -0.550  0.00  0.00    -0.018 S 
ATOM     15  N   UNL     1       1.210   5.105  -0.439  0.00  0.00    -0.243 N 
ATOM     16  H   UNL     1       3.264   2.652  -0.052  0.00  0.00    +0.148 HD
ENDROOT
BRANCH  15  17
ATOM     17  C   UNL     1      -0.160   5.312  -0.634  0.00  0.00    +0.039 A 
ATOM     18  C   UNL     1      -0.696   5.265  -1.914  0.00  0.00    +0.023 A 
ATOM     19  C   UNL     1      -2.048   5.471  -2.102  0.00  0.00    +0.002 A 
ATOM     20  C   UNL     1      -2.868   5.729  -1.019  0.00  0.00    +0.000 A 
ATOM     21  C   UNL     1      -2.338   5.770   0.258  0.00  0.00    +0.002 A 
ATOM     22  C   UNL     1      -0.986   5.565   0.453  0.00  0.00    +0.023 A 
ENDBRANCH  15  17
BRANCH   3  23
ATOM     23  C   UNL     1       3.563   5.389  -2.171  0.00  0.00    +0.318 C 
ATOM     24  O   UNL     1       2.601   4.847  -2.661  0.00  0.00    -0.250 OA
BRANCH  23  25
ATOM     25  O   UNL     1       4.668   5.590  -2.906  0.00  0.00    -0.468 OA
ATOM     26  C   UNL     1       4.635   5.132  -4.283  0.00  0.00    +0.280 C 
ENDBRANCH  23  25
ENDBRANCH   3  23
TORSDOF 3
