REMARK  Name = ZINC63814601
REMARK  11 active torsions:
REMARK  status: ('A' for Active; 'I' for Inactive)
REMARK    1  A    between atoms: C_1  and  O_2
REMARK    2  A    between atoms: O_2  and  C_3
REMARK    3  A    between atoms: C_6  and  C_9
REMARK    4  A    between atoms: C_9  and  C_11
REMARK    5  A    between atoms: C_11  and  O_12
REMARK    6  A    between atoms: O_12  and  C_13
REMARK    7  A    between atoms: C_13  and  C_15
REMARK    8  A    between atoms: C_15  and  C_17
REMARK    9  A    between atoms: C_15  and  N_27
REMARK   10  A    between atoms: C_17  and  C_18
REMARK   11  A    between atoms: C_28  and  C_30
REMARK                            x       y       z     vdW  Elec       q    Type
REMARK                         _______ _______ _______ _____ _____    ______ ____
ROOT
ATOM      1  C   UNL     1       4.062  -6.181  -7.087  0.00  0.00    +0.186 C 
ENDROOT
BRANCH   1   2
ATOM      2  N   UNL     1       4.501  -7.565  -6.888  0.00  0.00    -0.298 N 
ATOM      3  C   UNL     1       3.594  -8.529  -6.631  0.00  0.00    +0.251 C 
ATOM      4  O   UNL     1       2.412  -8.250  -6.563  0.00  0.00    -0.270 OA
ATOM      5  H   UNL     1       5.443  -7.787  -6.942  0.00  0.00    +0.150 HD
BRANCH   3   6
ATOM      6  C   UNL     1       4.033  -9.913  -6.432  0.00  0.00    +0.074 A 
ATOM      7  C   UNL     1       3.272 -11.042  -6.166  0.00  0.00    +0.021 A 
ATOM      8  C   UNL     1       3.974 -12.215  -6.028  0.00  0.00    +0.008 A 
ATOM      9  C   UNL     1       5.323 -12.196  -6.157  0.00  0.00    +0.046 A 
ATOM     10  S   UNL     1       5.683 -10.586  -6.477  0.00  0.00    -0.092 S 
ENDBRANCH   3   6
ENDBRANCH   1   2
BRANCH   1  11
ATOM     11  C   UNL     1       3.356  -5.696  -5.848  0.00  0.00    +0.328 C 
ATOM     12  O   UNL     1       2.911  -6.491  -5.055  0.00  0.00    -0.249 OA
BRANCH  11  13
ATOM     13  O   UNL     1       3.221  -4.379  -5.624  0.00  0.00    -0.455 OA
BRANCH  13  14
ATOM     14  C   UNL     1       2.541  -3.989  -4.430  0.00  0.00    +0.311 C 
BRANCH  14  15
ATOM     15  C   UNL     1       2.487  -2.485  -4.350  0.00  0.00    +0.200 C 
ATOM     16  O   UNL     1       2.982  -1.813  -5.230  0.00  0.00    -0.288 OA
BRANCH  15  20
ATOM     17  C   UNL     1       0.605  -0.606  -1.054  0.00  0.00    +0.120 A 
ATOM     18  C   UNL     1       1.172   0.167  -2.061  0.00  0.00    +0.046 A 
ATOM     19  C   UNL     1       1.783  -0.436  -3.130  0.00  0.00    +0.015 A 
ATOM     20  C   UNL     1       1.835  -1.834  -3.207  0.00  0.00    +0.021 A 
ATOM     21  C   UNL     1       1.262  -2.607  -2.190  0.00  0.00    +0.015 A 
ATOM     22  C   UNL     1       0.658  -1.994  -1.122  0.00  0.00    +0.046 A 
BRANCH  17  24
ATOM     23  C   UNL     1      -0.017   1.425   0.010  0.00  0.00    +0.277 C 
ATOM     24  O   UNL     1       0.002  -0.004   0.002  0.00  0.00    -0.495 OA
ENDBRANCH  17  24
ENDBRANCH  15  20
ENDBRANCH  14  15
ENDBRANCH  13  14
ENDBRANCH  11  13
ENDBRANCH   1  11
BRANCH   1  25
ATOM     25  C   UNL     1       3.104  -6.116  -8.278  0.00  0.00    +0.067 C 
BRANCH  25  26
ATOM     26  C   UNL     1       3.844  -6.485  -9.539  0.00  0.00    -0.039 C 
ATOM     27  C   UNL     1       3.902  -7.704 -10.120  0.00  0.00    -0.001 A 
ATOM     28  C   UNL     1       3.316  -9.003  -9.768  0.00  0.00    +0.010 A 
ATOM     29  C   UNL     1       3.558 -10.070 -10.563  0.00  0.00    +0.001 A 
ATOM     30  C   UNL     1       4.353  -9.966 -11.713  0.00  0.00    +0.002 A 
ATOM     31  C   UNL     1       4.925  -8.807 -12.102  0.00  0.00    +0.026 A 
ATOM     32  C   UNL     1       4.736  -7.621 -11.340  0.00  0.00    +0.043 A 
ATOM     33  N   UNL     1       5.178  -6.398 -11.506  0.00  0.00    -0.380 N 
ATOM     34  C   UNL     1       4.667  -5.564 -10.412  0.00  0.00    +0.144 C 
ATOM     35  H   UNL     1       5.744  -6.094 -12.233  0.00  0.00    +0.160 HD
ENDBRANCH  25  26
ENDBRANCH   1  25
TORSDOF 10
