REMARK  Name = ZINC63374255
REMARK  11 active torsions:
REMARK  status: ('A' for Active; 'I' for Inactive)
REMARK    1  A    between atoms: C_1  and  C_2
REMARK    2  A    between atoms: C_2  and  C_3
REMARK    3  A    between atoms: C_3  and  O_4
REMARK    4  A    between atoms: O_4  and  C_5
REMARK    5  A    between atoms: C_8  and  C_14
REMARK    6  A    between atoms: C_10  and  O_11
REMARK    7  A    between atoms: O_11  and  C_12
REMARK    8  A    between atoms: C_12  and  C_13
REMARK    9  A    between atoms: N_21  and  C_36
REMARK   10  A    between atoms: C_24  and  C_35
REMARK   11  A    between atoms: C_36  and  C_37
REMARK                            x       y       z     vdW  Elec       q    Type
REMARK                         _______ _______ _______ _____ _____    ______ ____
ROOT
ATOM      1  C   UNL     1       3.287  -4.416  -5.622  0.00  0.00    +0.065 C 
ATOM      2  C   UNL     1       2.517  -4.092  -6.905  0.00  0.00    +0.121 C 
ATOM      3  N   UNL     1       2.822  -2.781  -7.448  0.00  0.00    -0.283 N 
ATOM      4  C   UNL     1       1.966  -2.287  -8.404  0.00  0.00    +0.234 C 
ATOM      5  O   UNL     1       0.928  -2.850  -8.678  0.00  0.00    -0.274 OA
ATOM      6  C   UNL     1       2.380  -1.006  -9.096  0.00  0.00    +0.203 C 
ATOM      7  N   UNL     1       3.813  -1.095  -9.431  0.00  0.00    -0.288 N 
ATOM      8  C   UNL     1       4.644  -1.544  -8.442  0.00  0.00    +0.242 C 
ATOM      9  O   UNL     1       5.845  -1.623  -8.590  0.00  0.00    -0.273 OA
ATOM     10  C   UNL     1       3.963  -1.931  -7.155  0.00  0.00    +0.135 C 
ATOM     11  C   UNL     1       4.901  -2.390  -6.083  0.00  0.00    +0.139 C 
ATOM     12  C   UNL     1       4.680  -3.873  -5.819  0.00  0.00    -0.027 C 
ATOM     13  C   UNL     1       5.874  -4.445  -5.839  0.00  0.00    -0.000 A 
ATOM     14  C   UNL     1       6.312  -5.821  -5.555  0.00  0.00    +0.010 A 
ATOM     15  C   UNL     1       7.641  -6.069  -5.697  0.00  0.00    +0.001 A 
ATOM     16  C   UNL     1       8.568  -5.098  -6.088  0.00  0.00    +0.002 A 
ATOM     17  C   UNL     1       8.256  -3.806  -6.360  0.00  0.00    +0.026 A 
ATOM     18  C   UNL     1       6.890  -3.421  -6.237  0.00  0.00    +0.043 A 
ATOM     19  N   UNL     1       6.319  -2.272  -6.420  0.00  0.00    -0.375 N 
ATOM     20  C   UNL     1       3.366  -0.630  -6.615  0.00  0.00    +0.044 C 
ATOM     21  H   UNL     1       6.766  -1.467  -6.725  0.00  0.00    +0.160 HD
ENDROOT
BRANCH   1  25
ATOM     22  C   UNL     1       1.426  -2.511  -2.275  0.00  0.00    +0.162 A 
ATOM     23  C   UNL     1       1.375  -1.922  -3.528  0.00  0.00    +0.050 A 
ATOM     24  C   UNL     1       1.978  -2.540  -4.608  0.00  0.00    +0.008 A 
ATOM     25  C   UNL     1       2.632  -3.746  -4.441  0.00  0.00    -0.035 A 
ATOM     26  C   UNL     1       2.687  -4.340  -3.194  0.00  0.00    +0.053 A 
ATOM     27  C   UNL     1       2.090  -3.722  -2.106  0.00  0.00    +0.162 A 
BRANCH  22  28
ATOM     28  O   UNL     1       0.835  -1.904  -1.212  0.00  0.00    -0.488 OA
BRANCH  28  29
ATOM     29  C   UNL     1       0.172  -0.662  -1.460  0.00  0.00    +0.229 C 
BRANCH  29  31
ATOM     30  C   UNL     1      -1.139   1.194  -0.421  0.00  0.00    +0.007 C 
ATOM     31  C   UNL     1      -0.429  -0.135  -0.155  0.00  0.00    +0.038 C 
ENDBRANCH  29  31
ENDBRANCH  28  29
ENDBRANCH  22  28
BRANCH  27  32
ATOM     32  O   UNL     1       2.148  -4.302  -0.877  0.00  0.00    -0.489 OA
BRANCH  32  33
ATOM     33  C   UNL     1       2.845  -5.545  -0.778  0.00  0.00    +0.226 C 
ATOM     34  C   UNL     1       2.804  -6.039   0.669  0.00  0.00    +0.048 C 
ENDBRANCH  32  33
ENDBRANCH  27  32
ENDBRANCH   1  25
BRANCH   7  35
ATOM     35  C   UNL     1       4.320  -0.725 -10.755  0.00  0.00    +0.140 C 
BRANCH  35  36
ATOM     36  C   UNL     1       4.688   0.761 -10.762  0.00  0.00    +0.136 C 
ATOM     37  C   UNL     1       5.109   1.189 -12.184  0.00  0.00    +0.035 C 
ATOM     38  C   UNL     1       6.293   2.153 -11.901  0.00  0.00    +0.031 C 
ATOM     39  C   UNL     1       6.918   1.492 -10.648  0.00  0.00    +0.160 C 
ATOM     40  O   UNL     1       5.802   0.990  -9.892  0.00  0.00    -0.375 OA
ENDBRANCH  35  36
ENDBRANCH   7  35
TORSDOF 8
