REMARK  Name = ZINC16856528
REMARK  6 active torsions:
REMARK  status: ('A' for Active; 'I' for Inactive)
REMARK    1  A    between atoms: C_1  and  C_2
REMARK    2  A    between atoms: C_2  and  C_3
REMARK    3  A    between atoms: C_2  and  C_4
REMARK    4  A    between atoms: N_14  and  N_24
REMARK    5  A    between atoms: C_15  and  C_17
REMARK    6  A    between atoms: C_17  and  C_18
REMARK                            x       y       z     vdW  Elec       q    Type
REMARK                         _______ _______ _______ _____ _____    ______ ____
ROOT
ATOM      1  C   UNL     1      -3.507   2.992   0.493  0.00  0.00    +0.126 C 
ATOM      2  C   UNL     1      -2.615   1.832   0.038  0.00  0.00    +0.068 C 
ATOM      3  C   UNL     1      -1.170   2.324   0.020  0.00  0.00    -0.018 A 
ATOM      4  C   UNL     1      -0.918   3.652   0.029  0.00  0.00    +0.021 A 
ATOM      5  S   UNL     1       0.847   3.784   0.014  0.00  0.00    -0.071 S 
ATOM      6  C   UNL     1       1.242   2.053   0.001  0.00  0.00    +0.116 A 
ATOM      7  C   UNL     1      -0.017   1.429   0.010  0.00  0.00    +0.077 A 
ATOM      8  C   UNL     1       0.002  -0.004   0.002  0.00  0.00    +0.279 A 
ATOM      9  O   UNL     1      -1.039  -0.637   0.009  0.00  0.00    -0.265 OA
ATOM     10  N   UNL     1       1.189  -0.639  -0.013  0.00  0.00    -0.218 N 
ATOM     11  C   UNL     1       2.359   0.050  -0.021  0.00  0.00    +0.135 A 
ATOM     12  N   UNL     1       2.374   1.356  -0.013  0.00  0.00    -0.224 NA
ATOM     13  C   UNL     1      -1.939   4.748   0.043  0.00  0.00    +0.203 C 
ATOM     14  O   UNL     1      -3.215   4.166  -0.269  0.00  0.00    -0.371 OA
ENDROOT
BRANCH   1  16
ATOM     15  C   UNL     1      -5.869   3.760   0.762  0.00  0.00    +0.010 C 
ATOM     16  C   UNL     1      -4.976   2.611   0.293  0.00  0.00    +0.012 C 
ATOM     17  C   UNL     1      -5.234   2.336  -1.190  0.00  0.00    +0.010 C 
ENDBRANCH   1  16
BRANCH  10  18
ATOM     18  N   UNL     1       1.216  -2.005  -0.022  0.00  0.00    -0.294 N 
ATOM     19  H   UNL     1       0.282  -2.385  -0.015  0.00  0.00    +0.163 HD
ATOM     20  H   UNL     1       1.742  -2.351  -0.810  0.00  0.00    +0.163 HD
ENDBRANCH  10  18
BRANCH  11  21
ATOM     21  C   UNL     1       3.663  -0.706  -0.037  0.00  0.00    +0.111 C 
BRANCH  21  22
ATOM     22  C   UNL     1       4.810   0.272  -0.043  0.00  0.00    -0.040 A 
ATOM     23  C   UNL     1       5.328   0.722  -1.242  0.00  0.00    +0.004 A 
ATOM     24  C   UNL     1       6.377   1.623  -1.248  0.00  0.00    +0.000 A 
ATOM     25  C   UNL     1       6.914   2.064  -0.053  0.00  0.00    +0.000 A 
ATOM     26  C   UNL     1       6.400   1.609   1.147  0.00  0.00    +0.000 A 
ATOM     27  C   UNL     1       5.347   0.713   1.152  0.00  0.00    +0.004 A 
ENDBRANCH  21  22
ENDBRANCH  11  21
TORSDOF 4
