REMARK  Name = ZINC20136765
REMARK  13 active torsions:
REMARK  status: ('A' for Active; 'I' for Inactive)
REMARK    1  A    between atoms: C_1  and  C_2
REMARK    2  A    between atoms: C_2  and  C_3
REMARK    3  A    between atoms: C_8  and  N_9
REMARK    4  A    between atoms: C_10  and  C_12
REMARK    5  A    between atoms: C_12  and  S_13
REMARK    6  A    between atoms: S_13  and  C_14
REMARK    7  A    between atoms: C_15  and  C_37
REMARK    8  A    between atoms: C_16  and  C_32
REMARK    9  A    between atoms: C_18  and  C_27
REMARK   10  A    between atoms: C_19  and  C_21
REMARK   11  A    between atoms: C_27  and  O_29
REMARK   12  A    between atoms: O_29  and  C_30
REMARK   13  A    between atoms: C_30  and  C_31
REMARK                            x       y       z     vdW  Elec       q    Type
REMARK                         _______ _______ _______ _____ _____    ______ ____
ROOT
ATOM      1  C   UNL     1       1.172   3.345  -0.776  0.00  0.00    +0.080 C 
ATOM      2  C   UNL     1       1.112   2.025  -0.456  0.00  0.00    +0.072 C 
ATOM      3  C   UNL     1      -0.091   1.190  -0.788  0.00  0.00    +0.136 C 
ATOM      4  C   UNL     1      -0.954   1.875  -1.809  0.00  0.00    +0.074 C 
ATOM      5  C   UNL     1      -0.819   3.199  -2.080  0.00  0.00    +0.050 C 
ATOM      6  N   UNL     1       0.127   3.958  -1.429  0.00  0.00    -0.308 N 
ATOM      7  H   UNL     1       0.047   5.055  -1.430  0.00  0.00    +0.153 HD
ENDROOT
BRANCH   5   8
ATOM      8  C   UNL     1      -1.697   3.832  -3.085  0.00  0.00    -0.003 A 
ATOM      9  C   UNL     1      -1.161   4.316  -4.280  0.00  0.00    +0.010 A 
ATOM     10  C   UNL     1      -1.988   4.900  -5.217  0.00  0.00    +0.001 A 
ATOM     11  C   UNL     1      -3.344   5.018  -4.969  0.00  0.00    +0.000 A 
ATOM     12  C   UNL     1      -3.881   4.546  -3.785  0.00  0.00    +0.001 A 
ATOM     13  C   UNL     1      -3.067   3.954  -2.842  0.00  0.00    +0.010 A 
ENDBRANCH   5   8
BRANCH   3  14
ATOM     14  C   UNL     1      -0.895   0.959   0.465  0.00  0.00    +0.118 A 
ATOM     15  C   UNL     1      -1.169  -0.238   1.015  0.00  0.00    +0.045 A 
ATOM     16  C   UNL     1      -1.944   0.010   2.171  0.00  0.00    +0.041 A 
ATOM     17  C   UNL     1      -2.098   1.343   2.258  0.00  0.00    +0.195 A 
ATOM     18  O   UNL     1      -1.456   1.913   1.225  0.00  0.00    -0.467 OA
ENDBRANCH   3  14
BRANCH   4  19
ATOM     19  C   UNL     1      -1.925   1.127  -2.501  0.00  0.00    +0.338 C 
ATOM     20  O   UNL     1      -2.546   1.634  -3.417  0.00  0.00    -0.245 OA
BRANCH  19  21
ATOM     21  O   UNL     1      -2.169  -0.154  -2.148  0.00  0.00    -0.462 OA
BRANCH  21  22
ATOM     22  C   UNL     1      -3.168  -0.853  -2.893  0.00  0.00    +0.229 C 
ATOM     23  C   UNL     1      -3.303  -2.279  -2.353  0.00  0.00    +0.048 C 
ENDBRANCH  21  22
ENDBRANCH  19  21
ENDBRANCH   4  19
BRANCH   2  24
ATOM     24  C   UNL     1       2.222   1.417   0.214  0.00  0.00    +0.098 C 
ATOM     25  N   UNL     1       3.103   0.935   0.746  0.00  0.00    -0.191 NA
ENDBRANCH   2  24
BRANCH   1  26
ATOM     26  S   UNL     1       2.603   4.281  -0.351  0.00  0.00    -0.100 S 
BRANCH  26  27
ATOM     27  C   UNL     1       2.125   5.900  -1.004  0.00  0.00    +0.171 C 
BRANCH  27  29
ATOM     28  N   UNL     1       3.095   8.171  -1.148  0.00  0.00    -0.285 N 
ATOM     29  C   UNL     1       3.230   6.891  -0.747  0.00  0.00    +0.227 C 
ATOM     30  O   UNL     1       4.242   6.538  -0.179  0.00  0.00    -0.275 OA
ATOM     31  H   UNL     1       2.217   8.472  -1.739  0.00  0.00    +0.155 HD
BRANCH  28  37
ATOM     32  C   UNL     1       4.215  10.267  -1.577  0.00  0.00    -0.026 A 
ATOM     33  C   UNL     1       5.179  11.199  -1.244  0.00  0.00    +0.005 A 
ATOM     34  C   UNL     1       5.999  10.986  -0.152  0.00  0.00    +0.000 A 
ATOM     35  C   UNL     1       5.858   9.841   0.611  0.00  0.00    +0.002 A 
ATOM     36  C   UNL     1       4.892   8.909   0.286  0.00  0.00    +0.023 A 
ATOM     37  C   UNL     1       4.070   9.117  -0.814  0.00  0.00    +0.037 A 
BRANCH  32  39
ATOM     38  C   UNL     1       2.014  11.148  -2.305  0.00  0.00    +0.009 C 
ATOM     39  C   UNL     1       3.321  10.500  -2.768  0.00  0.00    +0.033 C 
ENDBRANCH  32  39
ENDBRANCH  28  37
ENDBRANCH  27  29
ENDBRANCH  26  27
ENDBRANCH   1  26
TORSDOF 11
