REMARK  Name = ZINC14186275
REMARK  9 active torsions:
REMARK  status: ('A' for Active; 'I' for Inactive)
REMARK    1  A    between atoms: C_1  and  C_2
REMARK    2  A    between atoms: C_5  and  S_11
REMARK    3  A    between atoms: C_7  and  N_8
REMARK    4  A    between atoms: S_11  and  N_14
REMARK    5  A    between atoms: N_14  and  C_15
REMARK    6  A    between atoms: C_18  and  S_21
REMARK    7  A    between atoms: S_21  and  N_24
REMARK    8  A    between atoms: N_24  and  C_25
REMARK    9  A    between atoms: C_28  and  C_32
REMARK                            x       y       z     vdW  Elec       q    Type
REMARK                         _______ _______ _______ _____ _____    ______ ____
ROOT
ATOM      1  C   UNL     1       4.379   3.237   1.292  0.00  0.00    +0.048 A 
ATOM      2  C   UNL     1       3.512   2.655   0.375  0.00  0.00    +0.026 A 
ATOM      3  C   UNL     1       2.306   2.135   0.801  0.00  0.00    +0.030 A 
ATOM      4  C   UNL     1       1.960   2.193   2.138  0.00  0.00    +0.109 A 
ATOM      5  C   UNL     1       2.818   2.777   3.053  0.00  0.00    +0.030 A 
ATOM      6  C   UNL     1       4.028   3.293   2.635  0.00  0.00    +0.026 A 
ENDROOT
BRANCH   4   7
ATOM      7  S   UNL     1       0.420   1.529   2.678  0.00  0.00    +0.072 S 
ATOM      8  O   UNL     1      -0.410   1.443   1.528  0.00  0.00    -0.150 OA
ATOM      9  O   UNL     1       0.044   2.262   3.835  0.00  0.00    -0.150 OA
BRANCH   7  10
ATOM     10  N   UNL     1       0.704  -0.025   3.173  0.00  0.00    -0.216 N 
ATOM     11  H   UNL     1       0.324  -0.769   2.680  0.00  0.00    +0.174 HD
BRANCH  10  12
ATOM     12  C   UNL     1       1.491  -0.266   4.302  0.00  0.00    +0.049 A 
ATOM     13  C   UNL     1       2.774  -0.779   4.160  0.00  0.00    +0.025 A 
ATOM     14  C   UNL     1       3.552  -1.010   5.277  0.00  0.00    +0.006 A 
ATOM     15  C   UNL     1       3.052  -0.742   6.538  0.00  0.00    -0.032 A 
ATOM     16  C   UNL     1       1.772  -0.236   6.684  0.00  0.00    +0.046 A 
ATOM     17  C   UNL     1       0.990   0.003   5.569  0.00  0.00    +0.044 A 
ATOM     18 CL   UNL     1       1.148   0.099   8.269  0.00  0.00    -0.083 Cl
ATOM     19  C   UNL     1       3.902  -1.001   7.755  0.00  0.00    +0.045 C 
ENDBRANCH  10  12
ENDBRANCH   7  10
ENDBRANCH   4   7
BRANCH   1  20
ATOM     20  N   UNL     1       5.599   3.764   0.864  0.00  0.00    -0.216 N 
ATOM     21  H   UNL     1       6.154   3.263   0.245  0.00  0.00    +0.174 HD
BRANCH  20  22
ATOM     22  S   UNL     1       6.100   5.244   1.413  0.00  0.00    +0.072 S 
ATOM     23  O   UNL     1       6.002   5.206   2.830  0.00  0.00    -0.150 OA
ATOM     24  O   UNL     1       7.318   5.536   0.741  0.00  0.00    -0.150 OA
BRANCH  22  29
ATOM     25  C   UNL     1       2.067   9.309  -0.488  0.00  0.00    +0.046 C 
ATOM     26  C   UNL     1       3.074   8.294  -0.013  0.00  0.00    -0.020 A 
ATOM     27  C   UNL     1       4.105   7.901  -0.846  0.00  0.00    +0.007 A 
ATOM     28  C   UNL     1       5.032   6.973  -0.409  0.00  0.00    +0.029 A 
ATOM     29  C   UNL     1       4.922   6.431   0.858  0.00  0.00    +0.111 A 
ATOM     30  C   UNL     1       3.892   6.824   1.691  0.00  0.00    +0.061 A 
ATOM     31  C   UNL     1       2.968   7.756   1.256  0.00  0.00    +0.131 A 
BRANCH  31  32
ATOM     32  N   UNL     1       1.865   8.178   2.148  0.00  0.00    +0.057 N 
ATOM     33  O   UNL     1       1.699   7.618   3.218  0.00  0.00    -0.126 OA
ATOM     34  O   UNL     1       1.123   9.084   1.814  0.00  0.00    -0.126 OA
ENDBRANCH  31  32
ENDBRANCH  22  29
ENDBRANCH  20  22
ENDBRANCH   1  20
TORSDOF 7
