REMARK  Name = ZINC00666599
REMARK  8 active torsions:
REMARK  status: ('A' for Active; 'I' for Inactive)
REMARK    1  A    between atoms: C_1  and  C_2
REMARK    2  A    between atoms: C_2  and  C_3
REMARK    3  A    between atoms: C_2  and  O_4
REMARK    4  A    between atoms: O_4  and  C_5
REMARK    5  A    between atoms: C_5  and  C_7
REMARK    6  A    between atoms: C_9  and  C_14
REMARK    7  A    between atoms: C_17  and  C_19
REMARK    8  A    between atoms: N_24  and  C_27
REMARK                            x       y       z     vdW  Elec       q    Type
REMARK                         _______ _______ _______ _____ _____    ______ ____
ROOT
ATOM      1  C   UNL     1      -4.823  -2.402   0.099  0.00  0.00    +0.136 A 
ATOM      2  C   UNL     1      -4.963  -3.762   0.288  0.00  0.00    +0.050 A 
ATOM      3  C   UNL     1      -3.679  -4.304   0.321  0.00  0.00    +0.050 A 
ATOM      4  C   UNL     1      -2.794  -3.248   0.149  0.00  0.00    +0.129 A 
ATOM      5  O   UNL     1      -3.513  -2.112   0.024  0.00  0.00    -0.455 OA
ENDROOT
BRANCH   4   6
ATOM      6  C   UNL     1      -1.395  -3.345   0.118  0.00  0.00    +0.064 C 
ATOM      7  C   UNL     1      -0.620  -2.192   0.070  0.00  0.00    +0.105 C 
ATOM      8  C   UNL     1       0.836  -2.100  -0.127  0.00  0.00    +0.266 C 
ATOM      9  O   UNL     1       1.607  -3.030  -0.282  0.00  0.00    -0.268 OA
ATOM     10  N   UNL     1       1.153  -0.792  -0.110  0.00  0.00    -0.223 N 
ATOM     11  N   UNL     1       0.011  -0.016   0.094  0.00  0.00    -0.184 N 
ATOM     12  C   UNL     1      -1.078  -0.800   0.205  0.00  0.00    +0.272 C 
ATOM     13  O   UNL     1      -2.224  -0.428   0.382  0.00  0.00    -0.268 OA
ATOM     14  H   UNL     1       2.049  -0.438  -0.220  0.00  0.00    +0.174 HD
BRANCH  11  15
ATOM     15  C   UNL     1      -0.001   1.380   0.167  0.00  0.00    +0.058 A 
ATOM     16  C   UNL     1      -1.209   2.064   0.221  0.00  0.00    +0.025 A 
ATOM     17  C   UNL     1      -1.218   3.443   0.297  0.00  0.00    +0.003 A 
ATOM     18  C   UNL     1      -0.027   4.144   0.310  0.00  0.00    +0.020 A 
ATOM     19  C   UNL     1       1.179   3.467   0.252  0.00  0.00    +0.043 A 
ATOM     20  C   UNL     1       1.194   2.087   0.180  0.00  0.00    +0.045 A 
ATOM     21 CL   UNL     1       2.672   4.352   0.267  0.00  0.00    -0.083 Cl
ENDBRANCH  11  15
ENDBRANCH   4   6
BRANCH   1  24
ATOM     22  C   UNL     1      -8.287  -0.945  -0.100  0.00  0.00    +0.078 A 
ATOM     23  C   UNL     1      -7.249  -1.872  -0.012  0.00  0.00    +0.028 A 
ATOM     24  C   UNL     1      -5.927  -1.429   0.001  0.00  0.00    +0.018 A 
ATOM     25  C   UNL     1      -5.650  -0.061  -0.086  0.00  0.00    +0.013 A 
ATOM     26  C   UNL     1      -6.681   0.851  -0.178  0.00  0.00    +0.021 A 
ATOM     27  C   UNL     1      -7.995   0.420  -0.186  0.00  0.00    +0.055 A 
ATOM     28 CL   UNL     1      -9.285   1.576  -0.302  0.00  0.00    -0.083 Cl
BRANCH  22  29
ATOM     29  C   UNL     1      -9.690  -1.404  -0.108  0.00  0.00    +0.341 C 
ATOM     30  O   UNL     1     -10.589  -0.607  -0.285  0.00  0.00    -0.245 OA
BRANCH  29  31
ATOM     31  O   UNL     1      -9.974  -2.708   0.080  0.00  0.00    -0.458 OA
BRANCH  31  33
ATOM     32  C   UNL     1     -11.436  -4.585  -0.438  0.00  0.00    +0.052 C 
ATOM     33  C   UNL     1     -11.364  -3.106  -0.054  0.00  0.00    +0.171 C 
ATOM     34  C   UNL     1     -12.087  -2.889   1.277  0.00  0.00    +0.052 C 
ENDBRANCH  31  33
ENDBRANCH  29  31
ENDBRANCH  22  29
ENDBRANCH   1  24
TORSDOF 6
