REMARK  Name = ZINC04308656
REMARK  9 active torsions:
REMARK  status: ('A' for Active; 'I' for Inactive)
REMARK    1  A    between atoms: C_1  and  C_2
REMARK    2  A    between atoms: C_5  and  N_9
REMARK    3  A    between atoms: C_6  and  C_8
REMARK    4  A    between atoms: C_10  and  C_12
REMARK    5  A    between atoms: C_12  and  N_13
REMARK    6  A    between atoms: C_16  and  C_20
REMARK    7  A    between atoms: C_16  and  C_21
REMARK    8  A    between atoms: C_24  and  O_27
REMARK    9  A    between atoms: O_27  and  C_28
REMARK                            x       y       z     vdW  Elec       q    Type
REMARK                         _______ _______ _______ _____ _____    ______ ____
ROOT
ATOM      1  N   UNL     1      -6.024   2.922  -0.237  0.00  0.00    -0.215 N 
ATOM      2  C   UNL     1      -6.679   2.419   0.828  0.00  0.00    +0.251 C 
ATOM      3  O   UNL     1      -6.476   2.666   1.997  0.00  0.00    -0.272 OA
ATOM      4  C   UNL     1      -7.724   1.480   0.259  0.00  0.00    +0.135 C 
ATOM      5  N   UNL     1      -7.516   1.571  -1.197  0.00  0.00    -0.281 N 
ATOM      6  C   UNL     1      -6.507   2.440  -1.387  0.00  0.00    +0.310 C 
ATOM      7  O   UNL     1      -6.080   2.750  -2.482  0.00  0.00    -0.252 OA
ATOM      8  C   UNL     1      -9.131   1.950   0.632  0.00  0.00    +0.047 C 
ATOM      9  H   UNL     1      -8.012   1.099  -1.884  0.00  0.00    +0.152 HD
ENDROOT
BRANCH   4  10
ATOM     10  C   UNL     1      -7.489   0.071   0.741  0.00  0.00    -0.015 A 
ATOM     11  C   UNL     1      -6.903  -0.148   1.973  0.00  0.00    +0.010 A 
ATOM     12  C   UNL     1      -6.692  -1.438   2.420  0.00  0.00    +0.046 A 
ATOM     13  C   UNL     1      -7.058  -2.514   1.624  0.00  0.00    +0.127 A 
ATOM     14  C   UNL     1      -7.641  -2.292   0.385  0.00  0.00    +0.046 A 
ATOM     15  C   UNL     1      -7.855  -1.000  -0.054  0.00  0.00    +0.010 A 
BRANCH  13  16
ATOM     16  O   UNL     1      -6.845  -3.784   2.058  0.00  0.00    -0.434 OA
BRANCH  16  17
ATOM     17  C   UNL     1      -6.241  -3.938   3.344  0.00  0.00    +0.541 C 
ATOM     18  F   UNL     1      -4.983  -3.325   3.345  0.00  0.00    -0.166 F 
ATOM     19  F   UNL     1      -7.051  -3.340   4.315  0.00  0.00    -0.166 F 
ENDBRANCH  16  17
ENDBRANCH  13  16
ENDBRANCH   4  10
BRANCH   1  20
ATOM     20  C   UNL     1      -4.921   3.883  -0.145  0.00  0.00    +0.214 C 
BRANCH  20  22
ATOM     21  N   UNL     1      -2.456   3.823   0.046  0.00  0.00    -0.284 N 
ATOM     22  C   UNL     1      -3.614   3.140  -0.048  0.00  0.00    +0.235 C 
ATOM     23  O   UNL     1      -3.604   1.927  -0.055  0.00  0.00    -0.274 OA
ATOM     24  H   UNL     1      -2.468   4.789   0.131  0.00  0.00    +0.155 HD
BRANCH  21  29
ATOM     25  C   UNL     1       2.491   1.048  -0.060  0.00  0.00    +0.044 C 
ATOM     26  C   UNL     1       1.177   1.785  -0.032  0.00  0.00    -0.050 A 
ATOM     27  C   UNL     1       0.057   1.222  -0.615  0.00  0.00    +0.005 A 
ATOM     28  C   UNL     1      -1.147   1.897  -0.596  0.00  0.00    +0.024 A 
ATOM     29  C   UNL     1      -1.236   3.139   0.019  0.00  0.00    +0.036 A 
ATOM     30  C   UNL     1      -0.109   3.703   0.603  0.00  0.00    -0.029 A 
ATOM     31  C   UNL     1       1.094   3.024   0.576  0.00  0.00    +0.008 A 
ATOM     32  C   UNL     1      -0.199   5.053   1.267  0.00  0.00    +0.045 C 
ENDBRANCH  21  29
ENDBRANCH  20  22
ENDBRANCH   1  20
TORSDOF 6
