REMARK  Name = ZINC27982911
REMARK  6 active torsions:
REMARK  status: ('A' for Active; 'I' for Inactive)
REMARK    1  A    between atoms: C_1  and  C_2
REMARK    2  A    between atoms: C_2  and  N_3
REMARK    3  A    between atoms: C_4  and  C_17
REMARK    4  A    between atoms: C_5  and  C_9
REMARK    5  A    between atoms: C_6  and  C_8
REMARK    6  A    between atoms: N_11  and  C_12
REMARK                            x       y       z     vdW  Elec       q    Type
REMARK                         _______ _______ _______ _____ _____    ______ ____
ROOT
ATOM      1  N   UNL     1       0.037  -2.096   0.664  0.00  0.00    -0.268 N 
ATOM      2  C   UNL     1       0.029  -0.829   1.108  0.00  0.00    +0.049 A 
ATOM      3  C   UNL     1       0.002  -0.004   0.002  0.00  0.00    +0.080 A 
ATOM      4  C   UNL     1       0.003  -0.837  -1.140  0.00  0.00    +0.072 A 
ATOM      5  N   UNL     1       0.024  -2.076  -0.735  0.00  0.00    -0.175 NA
ATOM      6  C   UNL     1      -0.017  -0.373  -2.573  0.00  0.00    +0.068 C 
ATOM      7  C   UNL     1       0.044  -0.389   2.549  0.00  0.00    +0.066 C 
ENDROOT
BRANCH   3   8
ATOM      8  C   UNL     1      -0.018   1.470   0.010  0.00  0.00    +0.248 C 
ATOM      9  O   UNL     1      -1.079   2.064   0.018  0.00  0.00    -0.270 OA
ATOM     10  N   UNL     1       1.140   2.160   0.003  0.00  0.00    -0.308 N 
ATOM     11  H   UNL     1       2.100   1.623  -0.009  0.00  0.00    +0.149 HD
BRANCH  10  12
ATOM     12  C   UNL     1       1.120   3.625   0.011  0.00  0.00    +0.073 C 
ATOM     13  C   UNL     1       1.044   4.160  -1.434  0.00  0.00    +0.022 C 
ATOM     14  C   UNL     1       1.935   5.427  -1.417  0.00  0.00    +0.002 C 
ATOM     15  C   UNL     1       3.103   5.012  -0.488  0.00  0.00    +0.002 C 
ATOM     16  C   UNL     1       2.429   4.166   0.612  0.00  0.00    +0.022 C 
ENDBRANCH  10  12
ENDBRANCH   3   8
BRANCH   1  18
ATOM     17  C   UNL     1       1.514  -3.695   1.781  0.00  0.00    +0.029 C 
ATOM     18  C   UNL     1       0.063  -3.297   1.503  0.00  0.00    +0.140 C 
ENDBRANCH   1  18
TORSDOF 3
