REMARK  Name = ZINC10603437
REMARK  10 active torsions:
REMARK  status: ('A' for Active; 'I' for Inactive)
REMARK    1  A    between atoms: C_1  and  C_2
REMARK    2  A    between atoms: C_2  and  O_3
REMARK    3  A    between atoms: O_3  and  C_4
REMARK    4  A    between atoms: C_4  and  C_6
REMARK    5  A    between atoms: C_7  and  C_22
REMARK    6  A    between atoms: C_12  and  C_14
REMARK    7  A    between atoms: C_17  and  O_20
REMARK    8  A    between atoms: O_20  and  C_21
REMARK    9  A    between atoms: C_22  and  S_23
REMARK   10  A    between atoms: S_23  and  C_24
REMARK                            x       y       z     vdW  Elec       q    Type
REMARK                         _______ _______ _______ _____ _____    ______ ____
ROOT
ATOM      1  C   UNL     1      -1.550   0.738   1.909  0.00  0.00    +0.079 C 
ATOM      2  C   UNL     1      -0.766   1.591   1.215  0.00  0.00    +0.034 C 
ATOM      3  N   UNL     1      -0.557   2.869   1.649  0.00  0.00    -0.272 N 
ATOM      4  C   UNL     1      -1.093   3.369   2.770  0.00  0.00    +0.304 C 
ATOM      5  O   UNL     1      -0.849   4.519   3.076  0.00  0.00    -0.252 OA
ATOM      6  N   UNL     1      -1.893   2.637   3.571  0.00  0.00    -0.288 N 
ATOM      7  C   UNL     1      -2.181   1.244   3.190  0.00  0.00    +0.144 C 
ATOM      8  H   UNL     1       0.010   3.447   1.116  0.00  0.00    +0.156 HD
ATOM      9  H   UNL     1      -2.271   3.019   4.378  0.00  0.00    +0.151 HD
ENDROOT
BRANCH   7  10
ATOM     10  C   UNL     1      -1.731   0.352   4.318  0.00  0.00    -0.022 A 
ATOM     11  C   UNL     1      -0.547   0.620   4.980  0.00  0.00    +0.009 A 
ATOM     12  C   UNL     1      -0.136  -0.193   6.018  0.00  0.00    +0.046 A 
ATOM     13  C   UNL     1      -0.905  -1.287   6.388  0.00  0.00    +0.120 A 
ATOM     14  C   UNL     1      -2.089  -1.557   5.718  0.00  0.00    +0.046 A 
ATOM     15  C   UNL     1      -2.500  -0.738   4.685  0.00  0.00    +0.009 A 
BRANCH  13  16
ATOM     16  O   UNL     1      -0.498  -2.092   7.405  0.00  0.00    -0.495 OA
ATOM     17  C   UNL     1       0.731  -1.753   8.049  0.00  0.00    +0.277 C 
ENDBRANCH  13  16
ENDBRANCH   7  10
BRANCH   1  18
ATOM     18  C   UNL     1      -1.772  -0.584   1.457  0.00  0.00    +0.339 C 
ATOM     19  O   UNL     1      -1.140  -1.017   0.511  0.00  0.00    -0.245 OA
BRANCH  18  20
ATOM     20  O   UNL     1      -2.683  -1.364   2.074  0.00  0.00    -0.462 OA
BRANCH  20  22
ATOM     21  C   UNL     1      -3.922  -3.416   2.386  0.00  0.00    +0.048 C 
ATOM     22  C   UNL     1      -2.855  -2.688   1.565  0.00  0.00    +0.229 C 
ENDBRANCH  20  22
ENDBRANCH  18  20
ENDBRANCH   1  18
BRANCH   2  23
ATOM     23  C   UNL     1      -0.115   1.127  -0.063  0.00  0.00    +0.125 C 
BRANCH  23  24
ATOM     24  S   UNL     1       1.609   0.668   0.269  0.00  0.00    -0.119 S 
BRANCH  24  25
ATOM     25  C   UNL     1       2.223   0.155  -1.301  0.00  0.00    +0.012 A 
ATOM     26  C   UNL     1       1.391   0.179  -2.413  0.00  0.00    +0.018 A 
ATOM     27  C   UNL     1       1.870  -0.223  -3.647  0.00  0.00    +0.050 A 
ATOM     28  C   UNL     1       3.181  -0.649  -3.771  0.00  0.00    +0.162 A 
ATOM     29  C   UNL     1       4.015  -0.674  -2.661  0.00  0.00    +0.163 A 
ATOM     30  C   UNL     1       3.541  -0.268  -1.426  0.00  0.00    +0.064 A 
ATOM     31  O   UNL     1       5.306  -1.096  -2.798  0.00  0.00    -0.488 OA
ATOM     32  C   UNL     1       5.482  -2.483  -3.092  0.00  0.00    +0.232 C 
ATOM     33  C   UNL     1       5.360  -2.737  -4.587  0.00  0.00    +0.082 C 
ATOM     34  C   UNL     1       3.965  -2.437  -5.113  0.00  0.00    +0.232 C 
ATOM     35  O   UNL     1       3.663  -1.046  -4.985  0.00  0.00    -0.488 OA
ENDBRANCH  24  25
ENDBRANCH  23  24
ENDBRANCH   2  23
TORSDOF 8
