REMARK  Name = ZINC35037648
REMARK  6 active torsions:
REMARK  status: ('A' for Active; 'I' for Inactive)
REMARK    1  A    between atoms: C_1  and  C_2
REMARK    2  A    between atoms: C_2  and  C_4
REMARK    3  A    between atoms: C_2  and  N_21
REMARK    4  A    between atoms: N_14  and  C_15
REMARK    5  A    between atoms: N_21  and  C_22
REMARK    6  A    between atoms: C_23  and  C_25
REMARK                            x       y       z     vdW  Elec       q    Type
REMARK                         _______ _______ _______ _____ _____    ______ ____
ROOT
ATOM      1  C   UNL     1      -0.826  -0.284  -3.094  0.00  0.00    +0.138 A 
ATOM      2  N   UNL     1       0.111  -1.036  -3.588  0.00  0.00    -0.231 NA
ATOM      3  C   UNL     1       0.240  -1.225  -4.925  0.00  0.00    +0.078 A 
ATOM      4  C   UNL     1       1.246  -2.034  -5.456  0.00  0.00    +0.028 A 
ATOM      5  C   UNL     1       1.340  -2.199  -6.820  0.00  0.00    +0.002 A 
ATOM      6  C   UNL     1       0.446  -1.569  -7.676  0.00  0.00    +0.001 A 
ATOM      7  C   UNL     1      -0.555  -0.765  -7.176  0.00  0.00    +0.015 A 
ATOM      8  C   UNL     1      -0.668  -0.586  -5.798  0.00  0.00    +0.065 A 
ATOM      9  C   UNL     1      -1.716   0.258  -5.208  0.00  0.00    +0.266 A 
ATOM     10  O   UNL     1      -2.530   0.836  -5.905  0.00  0.00    -0.267 OA
ATOM     11  N   UNL     1      -1.745   0.364  -3.859  0.00  0.00    -0.263 N 
ENDROOT
BRANCH  11  12
ATOM     12  C   UNL     1      -2.727   1.152  -3.245  0.00  0.00    +0.051 A 
ATOM     13  C   UNL     1      -2.459   2.478  -2.932  0.00  0.00    +0.026 A 
ATOM     14  C   UNL     1      -3.430   3.253  -2.327  0.00  0.00    +0.002 A 
ATOM     15  C   UNL     1      -4.667   2.709  -2.034  0.00  0.00    +0.000 A 
ATOM     16  C   UNL     1      -4.937   1.389  -2.344  0.00  0.00    +0.002 A 
ATOM     17  C   UNL     1      -3.972   0.611  -2.954  0.00  0.00    +0.026 A 
ENDBRANCH  11  12
BRANCH   1  19
ATOM     18  C   UNL     1       0.446   0.374  -1.069  0.00  0.00    +0.036 C 
ATOM     19  C   UNL     1      -0.901  -0.126  -1.597  0.00  0.00    +0.140 C 
BRANCH  19  20
ATOM     20  N   UNL     1      -1.216  -1.419  -0.985  0.00  0.00    -0.288 N 
ATOM     21  C   UNL     1      -0.317  -2.559  -1.175  0.00  0.00    +0.133 C 
ATOM     22  C   UNL     1      -2.335  -1.559  -0.246  0.00  0.00    +0.282 C 
ATOM     23  O   UNL     1      -3.125  -0.638  -0.157  0.00  0.00    -0.267 OA
BRANCH  22  24
ATOM     24  C   UNL     1      -2.600  -2.822   0.451  0.00  0.00    +0.189 A 
ATOM     25  C   UNL     1      -3.701  -3.106   1.206  0.00  0.00    +0.054 A 
ATOM     26  C   UNL     1      -3.540  -4.418   1.678  0.00  0.00    +0.042 A 
ATOM     27  C   UNL     1      -2.362  -4.872   1.195  0.00  0.00    +0.196 A 
ATOM     28  O   UNL     1      -1.801  -3.909   0.452  0.00  0.00    -0.458 OA
ENDBRANCH  22  24
ENDBRANCH  19  20
ENDBRANCH   1  19
TORSDOF 4
