REMARK  Name = ZINC66929807
REMARK  7 active torsions:
REMARK  status: ('A' for Active; 'I' for Inactive)
REMARK    1  A    between atoms: C_1  and  C_2
REMARK    2  A    between atoms: C_2  and  C_4
REMARK    3  A    between atoms: C_2  and  N_19
REMARK    4  A    between atoms: N_6  and  C_7
REMARK    5  A    between atoms: C_7  and  C_8
REMARK    6  A    between atoms: C_8  and  O_18
REMARK    7  A    between atoms: C_20  and  C_22
REMARK                            x       y       z     vdW  Elec       q    Type
REMARK                         _______ _______ _______ _____ _____    ______ ____
ROOT
ATOM      1  C   UNL     1      -1.321  -0.840  -0.211  0.00  0.00    +0.233 C 
ATOM      2  O   UNL     1      -1.680  -1.616   0.649  0.00  0.00    -0.274 OA
ATOM      3  N   UNL     1      -2.219  -0.330  -1.077  0.00  0.00    -0.311 N 
ATOM      4  H   UNL     1      -1.932   0.290  -1.765  0.00  0.00    +0.149 HD
ENDROOT
BRANCH   1   6
ATOM      5  C   UNL     1       0.262   1.067  -0.134  0.00  0.00    +0.038 C 
ATOM      6  C   UNL     1       0.131  -0.447  -0.313  0.00  0.00    +0.156 C 
BRANCH   6   7
ATOM      7  N   UNL     1       0.896  -1.131   0.732  0.00  0.00    -0.300 N 
ATOM      8  C   UNL     1       2.215  -1.355   0.563  0.00  0.00    +0.251 C 
ATOM      9  O   UNL     1       2.769  -0.990  -0.457  0.00  0.00    -0.270 OA
ATOM     10  H   UNL     1       0.455  -1.422   1.545  0.00  0.00    +0.150 HD
BRANCH   8  11
ATOM     11  C   UNL     1       2.981  -2.040   1.609  0.00  0.00    +0.074 A 
ATOM     12  C   UNL     1       4.330  -2.360   1.636  0.00  0.00    +0.021 A 
ATOM     13  C   UNL     1       4.766  -3.010   2.765  0.00  0.00    +0.008 A 
ATOM     14  C   UNL     1       3.878  -3.289   3.750  0.00  0.00    +0.046 A 
ATOM     15  S   UNL     1       2.423  -2.671   3.180  0.00  0.00    -0.092 S 
ENDBRANCH   8  11
ENDBRANCH   6   7
ENDBRANCH   1   6
BRANCH   3  16
ATOM     16  C   UNL     1      -3.630  -0.713  -0.978  0.00  0.00    +0.143 C 
BRANCH  16  17
ATOM     17  C   UNL     1      -4.406  -0.107  -2.149  0.00  0.00    +0.107 C 
ATOM     18  C   UNL     1      -3.784  -0.577  -3.462  0.00  0.00    +0.041 C 
ATOM     19  C   UNL     1      -4.698  -0.142  -4.614  0.00  0.00    +0.008 C 
ATOM     20  C   UNL     1      -5.979  -0.971  -4.551  0.00  0.00    +0.035 C 
ATOM     21  C   UNL     1      -6.572  -0.927  -3.167  0.00  0.00    -0.041 A 
ATOM     22  C   UNL     1      -5.848  -0.534  -2.063  0.00  0.00    -0.011 A 
ATOM     23  C   UNL     1      -6.453  -0.522  -0.813  0.00  0.00    +0.007 A 
ATOM     24  C   UNL     1      -7.773  -0.897  -0.669  0.00  0.00    +0.000 A 
ATOM     25  C   UNL     1      -8.500  -1.288  -1.777  0.00  0.00    +0.000 A 
ATOM     26  C   UNL     1      -7.901  -1.303  -3.020  0.00  0.00    +0.004 A 
BRANCH  17  27
ATOM     27  O   UNL     1      -4.331   1.318  -2.076  0.00  0.00    -0.382 OA
ATOM     28  H   UNL     1      -4.700   1.690  -1.264  0.00  0.00    +0.211 HD
ENDBRANCH  17  27
ENDBRANCH  16  17
ENDBRANCH   3  16
TORSDOF 6
