REMARK  Name = ZINC09238186
REMARK  7 active torsions:
REMARK  status: ('A' for Active; 'I' for Inactive)
REMARK    1  A    between atoms: C_1  and  C_2
REMARK    2  A    between atoms: C_2  and  C_3
REMARK    3  A    between atoms: C_8  and  N_9
REMARK    4  A    between atoms: C_10  and  C_12
REMARK    5  A    between atoms: C_14  and  C_29
REMARK    6  A    between atoms: C_18  and  C_23
REMARK    7  A    between atoms: C_32  and  C_35
REMARK                            x       y       z     vdW  Elec       q    Type
REMARK                         _______ _______ _______ _____ _____    ______ ____
ROOT
ATOM      1  C   UNL     1       4.467   6.153  -1.197  0.00  0.00    +0.166 C 
ATOM      2  C   UNL     1       3.207   5.790  -0.400  0.00  0.00    +0.140 C 
ATOM      3  N   UNL     1       2.823   4.401  -0.654  0.00  0.00    -0.272 N 
ATOM      4  N   UNL     1       3.781   3.499  -0.317  0.00  0.00    -0.221 N 
ATOM      5  C   UNL     1       3.616   2.164  -0.041  0.00  0.00    +0.182 A 
ATOM      6  N   UNL     1       4.807   1.674   0.222  0.00  0.00    -0.127 NA
ATOM      7  N   UNL     1       5.696   2.601   0.124  0.00  0.00    -0.121 NA
ATOM      8  C   UNL     1       5.122   3.731  -0.192  0.00  0.00    +0.210 A 
ATOM      9  S   UNL     1       5.879   5.309  -0.422  0.00  0.00    -0.069 S 
ATOM     10  H   UNL     1       2.530   4.276  -1.611  0.00  0.00    +0.167 HD
ENDROOT
BRANCH   2  11
ATOM     11  C   UNL     1       2.079   6.702  -0.810  0.00  0.00    -0.024 A 
ATOM     12  C   UNL     1       1.379   6.454  -1.976  0.00  0.00    +0.006 A 
ATOM     13  C   UNL     1       0.341   7.287  -2.349  0.00  0.00    +0.004 A 
ATOM     14  C   UNL     1       0.010   8.374  -1.562  0.00  0.00    -0.050 A 
ATOM     15  C   UNL     1       0.713   8.624  -0.398  0.00  0.00    +0.004 A 
ATOM     16  C   UNL     1       1.747   7.788  -0.022  0.00  0.00    +0.006 A 
ATOM     17  C   UNL     1      -1.119   9.285  -1.971  0.00  0.00    +0.044 C 
ENDBRANCH   2  11
BRANCH   5  18
ATOM     18  C   UNL     1       2.338   1.420  -0.034  0.00  0.00    +0.021 A 
ATOM     19  C   UNL     1       1.125   2.110  -0.014  0.00  0.00    +0.011 A 
ATOM     20  C   UNL     1      -0.063   1.409  -0.008  0.00  0.00    +0.001 A 
ATOM     21  C   UNL     1      -0.054   0.026  -0.020  0.00  0.00    +0.000 A 
ATOM     22  C   UNL     1       1.145  -0.664  -0.039  0.00  0.00    +0.001 A 
ATOM     23  C   UNL     1       2.340   0.024  -0.046  0.00  0.00    +0.011 A 
ENDBRANCH   5  18
BRANCH   1  25
ATOM     24  N   UNL     1       5.224   8.271  -2.225  0.00  0.00    -0.284 N 
ATOM     25  C   UNL     1       4.682   7.644  -1.162  0.00  0.00    +0.233 C 
ATOM     26  O   UNL     1       4.369   8.279  -0.178  0.00  0.00    -0.274 OA
ATOM     27  H   UNL     1       5.548   7.755  -2.980  0.00  0.00    +0.155 HD
BRANCH  24  33
ATOM     28  C   UNL     1       6.287  10.291  -3.014  0.00  0.00    -0.026 A 
ATOM     29  C   UNL     1       6.373  11.670  -3.032  0.00  0.00    +0.005 A 
ATOM     30  C   UNL     1       5.503  12.428  -2.270  0.00  0.00    +0.000 A 
ATOM     31  C   UNL     1       4.540  11.809  -1.494  0.00  0.00    +0.002 A 
ATOM     32  C   UNL     1       4.445  10.432  -1.477  0.00  0.00    +0.023 A 
ATOM     33  C   UNL     1       5.318   9.667  -2.240  0.00  0.00    +0.037 A 
BRANCH  28  35
ATOM     34  C   UNL     1       6.591   9.130  -5.184  0.00  0.00    +0.009 C 
ATOM     35  C   UNL     1       7.240   9.465  -3.840  0.00  0.00    +0.033 C 
ENDBRANCH  28  35
ENDBRANCH  24  33
ENDBRANCH   1  25
TORSDOF 5
