REMARK  Name = ZINC39920613
REMARK  7 active torsions:
REMARK  status: ('A' for Active; 'I' for Inactive)
REMARK    1  A    between atoms: C_1  and  C_2
REMARK    2  A    between atoms: C_7  and  O_8
REMARK    3  A    between atoms: O_8  and  C_9
REMARK    4  A    between atoms: C_9  and  C_10
REMARK    5  A    between atoms: N_12  and  N_13
REMARK    6  A    between atoms: C_14  and  C_26
REMARK    7  A    between atoms: C_29  and  O_32
REMARK                            x       y       z     vdW  Elec       q    Type
REMARK                         _______ _______ _______ _____ _____    ______ ____
ROOT
ATOM      1  N   UNL     1       0.083   0.565   7.317  0.00  0.00    -0.191 N 
ATOM      2  C   UNL     1       1.472   0.588   7.777  0.00  0.00    +0.212 C 
ATOM      3  N   UNL     1       1.521   0.716   9.239  0.00  0.00    -0.320 N 
ATOM      4  C   UNL     1       0.681   1.637   9.854  0.00  0.00    +0.041 A 
ATOM      5  C   UNL     1       1.024   2.265  11.039  0.00  0.00    +0.025 A 
ATOM      6  C   UNL     1       0.153   3.175  11.607  0.00  0.00    +0.017 A 
ATOM      7  C   UNL     1      -1.060   3.465  11.000  0.00  0.00    +0.019 A 
ATOM      8  C   UNL     1      -1.417   2.846   9.819  0.00  0.00    +0.030 A 
ATOM      9  C   UNL     1      -0.549   1.925   9.236  0.00  0.00    +0.060 A 
ATOM     10  C   UNL     1      -0.884   1.234   7.978  0.00  0.00    +0.267 C 
ATOM     11  O   UNL     1      -2.019   1.263   7.543  0.00  0.00    -0.268 OA
ATOM     12 BR   UNL     1      -2.233   4.715  11.797  0.00  0.00    -0.050 Br
ATOM     13  H   UNL     1       2.127   0.170   9.764  0.00  0.00    +0.148 HD
ENDROOT
BRANCH   2  14
ATOM     14  C   UNL     1       2.184   1.760   7.153  0.00  0.00    -0.008 A 
ATOM     15  C   UNL     1       3.354   1.558   6.443  0.00  0.00    +0.011 A 
ATOM     16  C   UNL     1       4.009   2.631   5.870  0.00  0.00    +0.046 A 
ATOM     17  C   UNL     1       3.493   3.912   6.007  0.00  0.00    +0.117 A 
ATOM     18  C   UNL     1       2.319   4.111   6.719  0.00  0.00    +0.046 A 
ATOM     19  C   UNL     1       1.665   3.035   7.286  0.00  0.00    +0.011 A 
BRANCH  17  20
ATOM     20  O   UNL     1       4.136   4.969   5.445  0.00  0.00    -0.507 OA
ATOM     21  H   UNL     1       3.854   5.165   4.541  0.00  0.00    +0.292 HD
ENDBRANCH  17  20
ENDBRANCH   2  14
BRANCH   1  24
ATOM     22  C   UNL     1      -0.466   0.482   5.002  0.00  0.00    +0.267 C 
ATOM     23  O   UNL     1      -0.465   1.695   4.971  0.00  0.00    -0.271 OA
ATOM     24  N   UNL     1      -0.247  -0.162   6.165  0.00  0.00    -0.227 N 
ATOM     25  H   UNL     1      -0.318  -1.128   6.206  0.00  0.00    +0.173 HD
BRANCH  22  26
ATOM     26  C   UNL     1      -0.712  -0.304   3.740  0.00  0.00    +0.326 C 
BRANCH  26  27
ATOM     27  O   UNL     1      -0.916   0.597   2.650  0.00  0.00    -0.482 OA
BRANCH  27  34
ATOM     28  C   UNL     1      -1.321   2.360   0.481  0.00  0.00    +0.047 C 
ATOM     29  C   UNL     1      -1.359   0.862   0.328  0.00  0.00    -0.007 A 
ATOM     30  C   UNL     1      -1.593   0.300  -0.913  0.00  0.00    +0.027 A 
ATOM     31  C   UNL     1      -1.627  -1.076  -1.054  0.00  0.00    +0.041 A 
ATOM     32  C   UNL     1      -1.427  -1.892   0.046  0.00  0.00    +0.023 A 
ATOM     33  C   UNL     1      -1.193  -1.334   1.287  0.00  0.00    +0.047 A 
ATOM     34  C   UNL     1      -1.152   0.046   1.430  0.00  0.00    +0.124 A 
ATOM     35 CL   UNL     1      -1.923  -1.780  -2.613  0.00  0.00    -0.084 Cl
ENDBRANCH  27  34
ENDBRANCH  26  27
ENDBRANCH  22  26
ENDBRANCH   1  24
TORSDOF 6
