REMARK  Name = ZINC11709381
REMARK  8 active torsions:
REMARK  status: ('A' for Active; 'I' for Inactive)
REMARK    1  A    between atoms: C_1  and  N_2
REMARK    2  A    between atoms: N_2  and  C_3
REMARK    3  A    between atoms: C_3  and  C_4
REMARK    4  A    between atoms: C_14  and  C_16
REMARK    5  A    between atoms: C_16  and  C_17
REMARK    6  A    between atoms: C_17  and  C_18
REMARK    7  A    between atoms: C_21  and  C_23
REMARK    8  A    between atoms: C_23  and  C_24
REMARK                            x       y       z     vdW  Elec       q    Type
REMARK                         _______ _______ _______ _____ _____    ______ ____
ROOT
ATOM      1  C   UNL     1      -4.292   1.820   0.178  0.00  0.00    +0.107 C 
ENDROOT
BRANCH   1   2
ATOM      2  C   UNL     1      -5.075   1.565  -1.084  0.00  0.00    +0.218 A 
ATOM      3  N   UNL     1      -5.635   0.441  -1.429  0.00  0.00    -0.112 NA
ATOM      4  N   UNL     1      -6.219   0.587  -2.567  0.00  0.00    -0.112 NA
ATOM      5  C   UNL     1      -6.052   1.809  -2.985  0.00  0.00    +0.222 A 
ATOM      6  O   UNL     1      -5.330   2.458  -2.055  0.00  0.00    -0.424 OA
BRANCH   5   7
ATOM      7  C   UNL     1      -6.576   2.391  -4.272  0.00  0.00    +0.135 C 
BRANCH   7   8
ATOM      8  C   UNL     1      -7.946   2.975  -4.038  0.00  0.00    -0.013 A 
ATOM      9  C   UNL     1      -9.121   2.364  -4.250  0.00  0.00    +0.087 A 
ATOM     10  N   UNL     1     -10.150   3.205  -3.925  0.00  0.00    -0.360 N 
ATOM     11  H   UNL     1     -11.093   2.985  -3.994  0.00  0.00    +0.165 HD
ATOM     12  C   UNL     1      -9.649   4.409  -3.484  0.00  0.00    +0.047 A 
ATOM     13  C   UNL     1      -8.246   4.316  -3.530  0.00  0.00    +0.003 A 
ATOM     14  C   UNL     1      -7.463   5.400  -3.130  0.00  0.00    +0.010 A 
ATOM     15  C   UNL     1      -8.064   6.546  -2.692  0.00  0.00    +0.001 A 
ATOM     16  C   UNL     1      -9.447   6.642  -2.642  0.00  0.00    +0.002 A 
ATOM     17  C   UNL     1     -10.240   5.587  -3.038  0.00  0.00    +0.026 A 
ENDBRANCH   7   8
ENDBRANCH   5   7
ENDBRANCH   1   2
BRANCH   1  18
ATOM     18  C   UNL     1      -2.814   1.510  -0.068  0.00  0.00    +0.105 C 
BRANCH  18  21
ATOM     19  C   UNL     1      -0.013   1.086   0.008  0.00  0.00    +0.132 C 
ATOM     20  N   UNL     1      -0.698   1.558   1.213  0.00  0.00    -0.301 N 
ATOM     21  C   UNL     1      -2.030   1.765   1.194  0.00  0.00    +0.216 C 
ATOM     22  O   UNL     1      -2.598   2.156   2.192  0.00  0.00    -0.276 OA
BRANCH  20  23
ATOM     23  C   UNL     1       0.063   1.806   2.440  0.00  0.00    +0.152 C 
BRANCH  23  24
ATOM     24  C   UNL     1       0.546   3.258   2.456  0.00  0.00    +0.195 C 
ATOM     25  C   UNL     1       1.463   3.517   3.675  0.00  0.00    +0.085 C 
ATOM     26  C   UNL     1       2.485   4.478   3.099  0.00  0.00    -0.002 A 
ATOM     27  C   UNL     1       3.402   5.317   3.692  0.00  0.00    +0.007 A 
ATOM     28  C   UNL     1       4.222   6.109   2.909  0.00  0.00    +0.000 A 
ATOM     29  C   UNL     1       4.116   6.056   1.531  0.00  0.00    +0.004 A 
ATOM     30  C   UNL     1       3.200   5.215   0.935  0.00  0.00    +0.046 A 
ATOM     31  C   UNL     1       2.373   4.411   1.716  0.00  0.00    +0.124 A 
ATOM     32  O   UNL     1       1.418   3.517   1.342  0.00  0.00    -0.487 OA
ENDBRANCH  23  24
ENDBRANCH  20  23
ENDBRANCH  18  21
ENDBRANCH   1  18
TORSDOF 7
