REMARK  Name = ZINC27533359
REMARK  6 active torsions:
REMARK  status: ('A' for Active; 'I' for Inactive)
REMARK    1  A    between atoms: C_1  and  O_2
REMARK    2  A    between atoms: O_2  and  C_3
REMARK    3  A    between atoms: C_3  and  C_5
REMARK    4  A    between atoms: C_6  and  N_33
REMARK    5  A    between atoms: C_10  and  C_12
REMARK    6  A    between atoms: C_24  and  C_27
REMARK                            x       y       z     vdW  Elec       q    Type
REMARK                         _______ _______ _______ _____ _____    ______ ____
ROOT
ATOM      1  C   UNL     1       0.010  -0.014   0.005  0.00  0.00    +0.105 C 
ATOM      2  C   UNL     1       1.123  -0.672  -0.412  0.00  0.00    +0.195 C 
ATOM      3  O   UNL     1       2.221  -0.009  -0.800  0.00  0.00    -0.446 OA
ATOM      4  C   UNL     1       2.418   1.260  -0.395  0.00  0.00    +0.115 C 
ATOM      5  C   UNL     1       1.397   2.028   0.024  0.00  0.00    +0.045 C 
ATOM      6  C   UNL     1      -0.013   1.488   0.046  0.00  0.00    +0.098 C 
ATOM      7  C   UNL     1       1.605   3.353   0.456  0.00  0.00    +0.164 C 
ATOM      8  O   UNL     1       0.655   4.021   0.811  0.00  0.00    -0.292 OA
ATOM      9  C   UNL     1       2.984   3.954   0.484  0.00  0.00    +0.088 C 
ATOM     10  C   UNL     1       4.010   2.834   0.686  0.00  0.00    +0.034 C 
ATOM     11  C   UNL     1       3.827   1.803  -0.430  0.00  0.00    +0.083 C 
ENDROOT
BRANCH   6  12
ATOM     12  C   UNL     1      -0.767   2.010  -1.150  0.00  0.00    -0.031 A 
ATOM     13  C   UNL     1      -0.325   1.714  -2.426  0.00  0.00    +0.008 A 
ATOM     14  C   UNL     1      -1.013   2.190  -3.527  0.00  0.00    +0.050 A 
ATOM     15  C   UNL     1      -2.149   2.964  -3.353  0.00  0.00    +0.166 A 
ATOM     16  C   UNL     1      -2.594   3.262  -2.067  0.00  0.00    +0.167 A 
ATOM     17  C   UNL     1      -1.902   2.777  -0.969  0.00  0.00    +0.054 A 
ATOM     18  O   UNL     1      -3.718   4.030  -2.162  0.00  0.00    -0.453 OA
ATOM     19  C   UNL     1      -3.723   4.540  -3.509  0.00  0.00    +0.466 C 
ATOM     20  O   UNL     1      -2.994   3.546  -4.253  0.00  0.00    -0.453 OA
ENDBRANCH   6  12
BRANCH  10  21
ATOM     21  C   UNL     1       5.403   3.405   0.626  0.00  0.00    -0.043 A 
ATOM     22  C   UNL     1       5.831   4.062  -0.512  0.00  0.00    +0.004 A 
ATOM     23  C   UNL     1       7.108   4.590  -0.566  0.00  0.00    +0.000 A 
ATOM     24  C   UNL     1       7.959   4.452   0.514  0.00  0.00    +0.000 A 
ATOM     25  C   UNL     1       7.532   3.790   1.651  0.00  0.00    +0.000 A 
ATOM     26  C   UNL     1       6.254   3.266   1.706  0.00  0.00    +0.004 A 
ENDBRANCH  10  21
BRANCH   2  27
ATOM     27  N   UNL     1       1.123  -2.041  -0.435  0.00  0.00    -0.329 N 
ATOM     28  H   UNL     1       2.018  -2.586  -0.770  0.00  0.00    +0.145 HD
ATOM     29  H   UNL     1       0.228  -2.597  -0.118  0.00  0.00    +0.145 HD
ENDBRANCH   2  27
BRANCH   1  30
ATOM     30  C   UNL     1      -1.125  -0.741   0.399  0.00  0.00    +0.341 C 
ATOM     31  O   UNL     1      -1.365  -0.900   1.582  0.00  0.00    -0.245 OA
BRANCH  30  33
ATOM     32  C   UNL     1      -3.085  -1.991  -0.062  0.00  0.00    +0.280 C 
ATOM     33  O   UNL     1      -1.950  -1.263  -0.534  0.00  0.00    -0.465 OA
ENDBRANCH  30  33
ENDBRANCH   1  30
TORSDOF 5
