REMARK  Name = ZINC59015259
REMARK  7 active torsions:
REMARK  status: ('A' for Active; 'I' for Inactive)
REMARK    1  A    between atoms: C_6  and  C_7
REMARK    2  A    between atoms: N_8  and  N_9
REMARK    3  A    between atoms: C_12  and  S_15
REMARK    4  A    between atoms: S_15  and  C_16
REMARK    5  A    between atoms: C_16  and  C_17
REMARK    6  A    between atoms: N_19  and  C_20
REMARK    7  A    between atoms: C_24  and  C_26
REMARK                            x       y       z     vdW  Elec       q    Type
REMARK                         _______ _______ _______ _____ _____    ______ ____
ROOT
ATOM      1  N   UNL     1      -2.444  -2.780   0.037  0.00  0.00    -0.205 N 
ATOM      2  C   UNL     1      -2.422  -4.163   0.026  0.00  0.00    +0.232 A 
ATOM      3  N   UNL     1      -1.345  -4.919   0.009  0.00  0.00    -0.186 NA
ATOM      4  C   UNL     1      -1.700  -6.208   0.003  0.00  0.00    +0.211 A 
ATOM      5  N   UNL     1      -3.010  -6.289   0.017  0.00  0.00    -0.144 NA
ATOM      6  N   UNL     1      -3.501  -4.974   0.038  0.00  0.00    -0.245 N 
ATOM      7  H   UNL     1      -3.292  -2.309   0.055  0.00  0.00    +0.177 HD
ATOM      8  H   UNL     1      -4.432  -4.702   0.055  0.00  0.00    +0.192 HD
ENDROOT
BRANCH   1  10
ATOM      9  C   UNL     1      -1.264  -0.762   0.033  0.00  0.00    +0.138 C 
ATOM     10  N   UNL     1      -1.243  -2.060   0.023  0.00  0.00    -0.188 NA
BRANCH   9  16
ATOM     11  C   UNL     1      -0.018   1.393   0.029  0.00  0.00    +0.011 A 
ATOM     12  C   UNL     1       1.169   2.096   0.015  0.00  0.00    +0.020 A 
ATOM     13  C   UNL     1       2.377   1.420  -0.009  0.00  0.00    +0.041 A 
ATOM     14  C   UNL     1       2.403   0.035  -0.021  0.00  0.00    +0.020 A 
ATOM     15  C   UNL     1       1.224  -0.680  -0.008  0.00  0.00    +0.011 A 
ATOM     16  C   UNL     1       0.001  -0.004   0.018  0.00  0.00    -0.005 A 
ATOM     17 CL   UNL     1       3.866   2.312  -0.027  0.00  0.00    -0.084 Cl
ENDBRANCH   9  16
ENDBRANCH   1  10
BRANCH   4  18
ATOM     18  S   UNL     1      -0.590  -7.577  -0.020  0.00  0.00    -0.075 S 
BRANCH  18  19
ATOM     19  C   UNL     1      -1.681  -9.026  -0.018  0.00  0.00    +0.173 C 
BRANCH  19  20
ATOM     20  C   UNL     1      -0.847 -10.282  -0.037  0.00  0.00    +0.227 C 
ATOM     21  O   UNL     1       0.363 -10.206  -0.051  0.00  0.00    -0.275 OA
ATOM     22  N   UNL     1      -1.447 -11.489  -0.039  0.00  0.00    -0.285 N 
ATOM     23  H   UNL     1      -2.412 -11.551   0.040  0.00  0.00    +0.155 HD
BRANCH  22  24
ATOM     24  C   UNL     1      -0.677 -12.652  -0.155  0.00  0.00    +0.034 A 
ATOM     25  C   UNL     1       0.578 -12.717   0.435  0.00  0.00    +0.025 A 
ATOM     26  C   UNL     1       1.335 -13.866   0.319  0.00  0.00    +0.022 A 
ATOM     27  C   UNL     1       0.844 -14.952  -0.384  0.00  0.00    +0.053 A 
ATOM     28  C   UNL     1      -0.407 -14.890  -0.972  0.00  0.00    +0.075 A 
ATOM     29  C   UNL     1      -1.171 -13.745  -0.854  0.00  0.00    +0.037 A 
ATOM     30 CL   UNL     1       1.799 -16.395  -0.528  0.00  0.00    -0.083 Cl
BRANCH  28  31
ATOM     31  C   UNL     1      -0.939 -16.075  -1.737  0.00  0.00    +0.419 C 
ATOM     32  F   UNL     1      -2.211 -15.775  -2.235  0.00  0.00    -0.166 F 
ATOM     33  F   UNL     1      -0.079 -16.367  -2.801  0.00  0.00    -0.166 F 
ATOM     34  F   UNL     1      -1.020 -17.181  -0.885  0.00  0.00    -0.166 F 
ENDBRANCH  28  31
ENDBRANCH  22  24
ENDBRANCH  19  20
ENDBRANCH  18  19
ENDBRANCH   4  18
TORSDOF 7
