REMARK  Name = ZINC04492547
REMARK  9 active torsions:
REMARK  status: ('A' for Active; 'I' for Inactive)
REMARK    1  A    between atoms: C_1  and  C_2
REMARK    2  A    between atoms: C_3  and  C_20
REMARK    3  A    between atoms: C_5  and  S_8
REMARK    4  A    between atoms: S_8  and  C_9
REMARK    5  A    between atoms: C_9  and  C_11
REMARK    6  A    between atoms: C_9  and  C_14
REMARK    7  A    between atoms: C_11  and  C_12
REMARK    8  A    between atoms: C_11  and  C_13
REMARK    9  A    between atoms: C_20  and  C_21
REMARK                            x       y       z     vdW  Elec       q    Type
REMARK                         _______ _______ _______ _____ _____    ______ ____
ROOT
ATOM      1  C   UNL     1       0.415   1.470  -0.075  0.00  0.00    +0.065 C 
ATOM      2  C   UNL     1       0.359  -0.036  -0.059  0.00  0.00    +0.037 A 
ATOM      3  C   UNL     1       0.525  -0.854  -1.112  0.00  0.00    +0.067 A 
ATOM      4  N   UNL     1       0.402  -2.123  -0.686  0.00  0.00    -0.226 NA
ATOM      5  C   UNL     1       0.162  -2.125   0.605  0.00  0.00    +0.167 A 
ATOM      6  N   UNL     1       0.132  -0.836   1.039  0.00  0.00    -0.337 N 
ATOM      7  H   UNL     1      -0.021  -0.537   1.949  0.00  0.00    +0.168 HD
ENDROOT
BRANCH   5   8
ATOM      8  S   UNL     1      -0.075  -3.556   1.606  0.00  0.00    -0.075 S 
BRANCH   8   9
ATOM      9  C   UNL     1      -0.070  -4.928   0.419  0.00  0.00    +0.143 C 
BRANCH   9  10
ATOM     10  C   UNL     1      -1.297  -4.843  -0.452  0.00  0.00    +0.234 C 
ATOM     11  O   UNL     1      -2.258  -4.201  -0.085  0.00  0.00    -0.274 OA
ATOM     12  N   UNL     1      -1.326  -5.481  -1.639  0.00  0.00    -0.239 N 
ATOM     13  C   UNL     1      -2.424  -5.405  -2.418  0.00  0.00    +0.303 C 
ATOM     14  O   UNL     1      -3.387  -4.761  -2.050  0.00  0.00    -0.253 OA
ATOM     15  N   UNL     1      -2.453  -6.042  -3.605  0.00  0.00    -0.313 N 
ATOM     16  H   UNL     1      -0.558  -5.994  -1.932  0.00  0.00    +0.159 HD
ATOM     17  H   UNL     1      -1.684  -6.556  -3.898  0.00  0.00    +0.146 HD
ATOM     18  H   UNL     1      -3.242  -5.988  -4.165  0.00  0.00    +0.146 HD
ENDBRANCH   9  10
BRANCH   9  19
ATOM     19  C   UNL     1      -0.074  -6.257   1.177  0.00  0.00    +0.005 C 
ATOM     20  C   UNL     1      -0.078  -7.414   0.176  0.00  0.00    +0.009 C 
ATOM     21  C   UNL     1       1.176  -6.347   2.055  0.00  0.00    +0.009 C 
ENDBRANCH   9  19
ENDBRANCH   8   9
ENDBRANCH   5   8
BRANCH   3  22
ATOM     22  C   UNL     1       0.803  -0.423  -2.529  0.00  0.00    +0.092 C 
BRANCH  22  23
ATOM     23  C   UNL     1       2.292  -0.328  -2.743  0.00  0.00    -0.042 A 
ATOM     24  C   UNL     1       2.952   0.860  -2.491  0.00  0.00    +0.004 A 
ATOM     25  C   UNL     1       4.317   0.948  -2.687  0.00  0.00    +0.000 A 
ATOM     26  C   UNL     1       5.023  -0.153  -3.134  0.00  0.00    +0.000 A 
ATOM     27  C   UNL     1       4.363  -1.342  -3.385  0.00  0.00    +0.000 A 
ATOM     28  C   UNL     1       2.998  -1.431  -3.185  0.00  0.00    +0.004 A 
ENDBRANCH  22  23
ENDBRANCH   3  22
TORSDOF 6
