REMARK  Name = ZINC12500557
REMARK  7 active torsions:
REMARK  status: ('A' for Active; 'I' for Inactive)
REMARK    1  A    between atoms: C_1  and  C_2
REMARK    2  A    between atoms: N_4  and  C_5
REMARK    3  A    between atoms: C_8  and  N_11
REMARK    4  A    between atoms: N_11  and  C_12
REMARK    5  A    between atoms: C_12  and  N_14
REMARK    6  A    between atoms: C_15  and  C_17
REMARK    7  A    between atoms: C_18  and  C_19
REMARK                            x       y       z     vdW  Elec       q    Type
REMARK                         _______ _______ _______ _____ _____    ______ ____
ROOT
ATOM      1  C   UNL     1      -4.726   5.152  -0.087  0.00  0.00    +0.141 C 
ATOM      2  S   UNL     1      -3.220   5.958  -0.202  0.00  0.00    -0.018 S 
ENDROOT
BRANCH   1   3
ATOM      3  N   UNL     1      -5.874   5.853  -0.172  0.00  0.00    -0.264 N 
ATOM      4  C   UNL     1      -5.837   7.188  -0.349  0.00  0.00    +0.242 C 
ATOM      5  O   UNL     1      -4.766   7.761  -0.431  0.00  0.00    -0.270 OA
ATOM      6  H   UNL     1      -6.727   5.396  -0.107  0.00  0.00    +0.157 HD
BRANCH   4   7
ATOM      7  C   UNL     1      -7.082   7.948  -0.443  0.00  0.00    +0.068 C 
ATOM      8  C   UNL     1      -7.045   9.286  -0.620  0.00  0.00    +0.013 C 
BRANCH   8   9
ATOM      9  C   UNL     1      -8.298  10.050  -0.713  0.00  0.00    -0.025 A 
ATOM     10  C   UNL     1      -9.530   9.394  -0.625  0.00  0.00    +0.011 A 
ATOM     11  C   UNL     1     -10.700  10.117  -0.708  0.00  0.00    +0.039 A 
ATOM     12  C   UNL     1     -10.658  11.491  -0.890  0.00  0.00    +0.123 A 
ATOM     13  C   UNL     1      -9.440  12.147  -0.984  0.00  0.00    +0.039 A 
ATOM     14  C   UNL     1      -8.263  11.437  -0.897  0.00  0.00    +0.011 A 
ATOM     15  F   UNL     1     -11.809  12.193  -0.977  0.00  0.00    -0.205 F 
ENDBRANCH   8   9
ENDBRANCH   4   7
ENDBRANCH   1   3
BRANCH   1  16
ATOM     16  N   UNL     1      -4.763   3.816   0.090  0.00  0.00    -0.297 N 
ATOM     17  H   UNL     1      -5.614   3.366   0.210  0.00  0.00    +0.154 HD
BRANCH  16  21
ATOM     18  C   UNL     1      -1.221   1.617   0.124  0.00  0.00    +0.033 A 
ATOM     19  C   UNL     1      -2.322   1.149  -0.582  0.00  0.00    +0.025 A 
ATOM     20  C   UNL     1      -3.496   1.875  -0.589  0.00  0.00    +0.025 A 
ATOM     21  C   UNL     1      -3.573   3.078   0.101  0.00  0.00    +0.033 A 
ATOM     22  C   UNL     1      -2.470   3.548   0.802  0.00  0.00    +0.025 A 
ATOM     23  C   UNL     1      -1.298   2.820   0.813  0.00  0.00    +0.025 A 
BRANCH  18  27
ATOM     24  C   UNL     1       1.982   0.005   1.277  0.00  0.00    +0.109 C 
ATOM     25  C   UNL     1       0.733   0.847   1.245  0.00  0.00    +0.214 C 
ATOM     26  O   UNL     1       0.414   1.496   2.219  0.00  0.00    -0.276 OA
ATOM     27  N   UNL     1      -0.030   0.878   0.135  0.00  0.00    -0.286 N 
ATOM     28  H   UNL     1       0.246   0.393  -0.658  0.00  0.00    +0.155 HD
ENDBRANCH  18  27
ENDBRANCH  16  21
ENDBRANCH   1  16
TORSDOF 6
