REMARK  Name = ZINC39237780
REMARK  6 active torsions:
REMARK  status: ('A' for Active; 'I' for Inactive)
REMARK    1  A    between atoms: C_4  and  C_7
REMARK    2  A    between atoms: C_11  and  C_13
REMARK    3  A    between atoms: N_19  and  C_27
REMARK    4  A    between atoms: C_21  and  C_22
REMARK    5  A    between atoms: C_34  and  N_38
REMARK    6  A    between atoms: C_35  and  C_36
REMARK                            x       y       z     vdW  Elec       q    Type
REMARK                         _______ _______ _______ _____ _____    ______ ____
ROOT
ATOM      1  C   UNL     1       3.409  -3.602   0.992  0.00  0.00    +0.063 C 
ATOM      2  C   UNL     1       1.990  -3.166   1.212  0.00  0.00    +0.113 C 
ATOM      3  C   UNL     1       1.133  -4.166   2.004  0.00  0.00    +0.294 C 
ATOM      4  N   UNL     1      -0.220  -3.772   1.505  0.00  0.00    -0.185 N 
ATOM      5  N   UNL     1      -0.035  -3.296   0.198  0.00  0.00    -0.177 NA
ATOM      6  C   UNL     1       1.182  -2.938  -0.032  0.00  0.00    +0.110 C 
ATOM      7  O   UNL     1       1.342  -5.499   1.536  0.00  0.00    -0.455 OA
ATOM      8  C   UNL     1       2.535  -5.914   1.106  0.00  0.00    +0.194 C 
ATOM      9  C   UNL     1       3.523  -5.082   0.767  0.00  0.00    +0.091 C 
ENDROOT
BRANCH   4  10
ATOM     10  C   UNL     1      -1.427  -3.860   2.200  0.00  0.00    +0.055 A 
ATOM     11  C   UNL     1      -1.448  -4.352   3.500  0.00  0.00    +0.025 A 
ATOM     12  C   UNL     1      -2.644  -4.437   4.184  0.00  0.00    +0.002 A 
ATOM     13  C   UNL     1      -3.820  -4.034   3.578  0.00  0.00    +0.000 A 
ATOM     14  C   UNL     1      -3.803  -3.545   2.285  0.00  0.00    +0.002 A 
ATOM     15  C   UNL     1      -2.610  -3.451   1.596  0.00  0.00    +0.025 A 
ENDBRANCH   4  10
BRANCH   1  20
ATOM     16  C   UNL     1       5.484  -2.903  -0.225  0.00  0.00    +0.080 C 
ATOM     17  N   UNL     1       5.829  -3.548  -1.305  0.00  0.00    -0.153 NA
ATOM     18  N   UNL     1       4.727  -3.955  -2.050  0.00  0.00    -0.161 NA
ATOM     19  C   UNL     1       3.606  -3.605  -1.506  0.00  0.00    +0.118 C 
ATOM     20  C   UNL     1       3.968  -2.871  -0.231  0.00  0.00    +0.092 C 
BRANCH  16  24
ATOM     21  C   UNL     1       8.068  -1.252   2.706  0.00  0.00    +0.000 A 
ATOM     22  C   UNL     1       8.590  -2.027   1.685  0.00  0.00    +0.001 A 
ATOM     23  C   UNL     1       7.757  -2.568   0.729  0.00  0.00    +0.010 A 
ATOM     24  C   UNL     1       6.380  -2.331   0.792  0.00  0.00    -0.001 A 
ATOM     25  C   UNL     1       5.860  -1.546   1.826  0.00  0.00    +0.010 A 
ATOM     26  C   UNL     1       6.706  -1.013   2.775  0.00  0.00    +0.001 A 
ENDBRANCH  16  24
ENDBRANCH   1  20
BRANCH   6  27
ATOM     27  C   UNL     1       1.678  -2.383  -1.296  0.00  0.00    +0.151 A 
ATOM     28  C   UNL     1       1.317  -2.792  -2.547  0.00  0.00    +0.051 A 
ATOM     29  C   UNL     1       2.032  -1.990  -3.457  0.00  0.00    +0.042 A 
ATOM     30  C   UNL     1       2.785  -1.141  -2.729  0.00  0.00    +0.196 A 
ATOM     31  O   UNL     1       2.566  -1.377  -1.425  0.00  0.00    -0.462 OA
ENDBRANCH   6  27
BRANCH   8  32
ATOM     32  N   UNL     1       2.744  -7.263   0.966  0.00  0.00    -0.329 N 
ATOM     33  H   UNL     1       2.034  -7.888   1.177  0.00  0.00    +0.145 HD
ATOM     34  H   UNL     1       3.602  -7.590   0.655  0.00  0.00    +0.145 HD
ENDBRANCH   8  32
BRANCH   9  35
ATOM     35  C   UNL     1       4.732  -5.619   0.217  0.00  0.00    +0.100 C 
ATOM     36  N   UNL     1       5.690  -6.044  -0.220  0.00  0.00    -0.191 NA
ENDBRANCH   9  35
TORSDOF 6
