REMARK  Name = ZINC05333634
REMARK  5 active torsions:
REMARK  status: ('A' for Active; 'I' for Inactive)
REMARK    1  A    between atoms: C_1  and  C_2
REMARK    2  A    between atoms: C_2  and  C_3
REMARK    3  A    between atoms: C_7  and  N_21
REMARK    4  A    between atoms: C_8  and  C_12
REMARK    5  A    between atoms: C_12  and  C_14
REMARK                            x       y       z     vdW  Elec       q    Type
REMARK                         _______ _______ _______ _____ _____    ______ ____
ROOT
ATOM      1  C   UNL     1      -0.892   4.564  -2.669  0.00  0.00    +0.046 A 
ATOM      2  C   UNL     1      -0.538   3.687  -1.645  0.00  0.00    -0.022 A 
ATOM      3  C   UNL     1      -0.566   4.112  -0.344  0.00  0.00    -0.031 A 
ATOM      4  C   UNL     1      -0.963   5.447  -0.060  0.00  0.00    +0.032 A 
ATOM      5  C   UNL     1      -1.067   6.102   1.234  0.00  0.00    +0.052 A 
ATOM      6  C   UNL     1      -1.478   7.420   1.268  0.00  0.00    +0.083 A 
ATOM      7  S   UNL     1      -1.737   7.816  -0.450  0.00  0.00    -0.064 S 
ATOM      8  C   UNL     1      -1.303   6.252  -1.170  0.00  0.00    +0.111 A 
ATOM      9  N   UNL     1      -1.258   5.800  -2.404  0.00  0.00    -0.244 NA
ATOM     10  C   UNL     1      -0.192   3.233   0.817  0.00  0.00    +0.036 C 
ATOM     11  C   UNL     1      -0.201   1.763   0.403  0.00  0.00    +0.005 C 
ATOM     12  C   UNL     1       0.624   1.617  -0.882  0.00  0.00    +0.005 C 
ATOM     13  C   UNL     1      -0.134   2.286  -2.027  0.00  0.00    +0.037 C 
ENDROOT
BRANCH   5  14
ATOM     14  N   UNL     1      -0.763   5.421   2.402  0.00  0.00    -0.356 N 
ATOM     15  H   UNL     1      -0.128   4.688   2.385  0.00  0.00    +0.142 HD
ATOM     16  H   UNL     1      -1.184   5.678   3.237  0.00  0.00    +0.142 HD
ENDBRANCH   5  14
BRANCH   1  18
ATOM     17  C   UNL     1      -2.216   3.501  -4.475  0.00  0.00    +0.010 C 
ATOM     18  C   UNL     1      -0.856   4.090  -4.099  0.00  0.00    +0.052 C 
ENDBRANCH   1  18
BRANCH   6  19
ATOM     19  C   UNL     1      -1.652   8.256   2.397  0.00  0.00    +0.202 C 
ATOM     20  O   UNL     1      -1.542   7.795   3.519  0.00  0.00    -0.286 OA
BRANCH  19  21
ATOM     21  C   UNL     1      -1.967   9.689   2.214  0.00  0.00    +0.023 A 
ATOM     22  C   UNL     1      -1.613  10.338   1.029  0.00  0.00    +0.014 A 
ATOM     23  C   UNL     1      -1.914  11.673   0.861  0.00  0.00    +0.039 A 
ATOM     24  C   UNL     1      -2.556  12.374   1.871  0.00  0.00    +0.123 A 
ATOM     25  C   UNL     1      -2.905  11.735   3.051  0.00  0.00    +0.039 A 
ATOM     26  C   UNL     1      -2.613  10.399   3.227  0.00  0.00    +0.014 A 
ATOM     27  F   UNL     1      -2.844  13.683   1.703  0.00  0.00    -0.205 F 
ENDBRANCH  19  21
ENDBRANCH   6  19
TORSDOF 4
