REMARK  Name = ZINC17070731
REMARK  5 active torsions:
REMARK  status: ('A' for Active; 'I' for Inactive)
REMARK    1  A    between atoms: C_1  and  S_2
REMARK    2  A    between atoms: S_2  and  C_3
REMARK    3  A    between atoms: C_8  and  C_20
REMARK    4  A    between atoms: C_11  and  C_13
REMARK    5  A    between atoms: C_18  and  O_19
REMARK                            x       y       z     vdW  Elec       q    Type
REMARK                         _______ _______ _______ _____ _____    ______ ____
ROOT
ATOM      1  C   UNL     1      -0.570  -2.071  -0.058  0.00  0.00    +0.210 A 
ATOM      2  N   UNL     1      -1.031  -0.812  -0.007  0.00  0.00    -0.187 NA
ATOM      3  C   UNL     1      -0.034   0.022  -0.124  0.00  0.00    +0.220 A 
ATOM      4  N   UNL     1       1.106  -0.699  -0.261  0.00  0.00    -0.220 N 
ATOM      5  N   UNL     1       0.737  -2.042  -0.212  0.00  0.00    -0.141 NA
ATOM      6  C   UNL     1       2.428  -0.101  -0.430  0.00  0.00    +0.165 C 
ATOM      7  C   UNL     1       2.361   1.372  -0.131  0.00  0.00    +0.028 C 
ATOM      8  C   UNL     1       1.222   2.038   0.001  0.00  0.00    +0.043 C 
ATOM      9  N   UNL     1      -0.024   1.409  -0.122  0.00  0.00    -0.283 N 
ATOM     10  H   UNL     1      -0.844   1.921  -0.206  0.00  0.00    +0.155 HD
ENDROOT
BRANCH   8  11
ATOM     11  C   UNL     1       1.268   3.490   0.288  0.00  0.00    +0.037 A 
ATOM     12  C   UNL     1       1.958   4.350  -0.565  0.00  0.00    +0.013 A 
ATOM     13  C   UNL     1       1.992   5.703  -0.296  0.00  0.00    +0.001 A 
ATOM     14  C   UNL     1       1.354   6.208   0.823  0.00  0.00    +0.004 A 
ATOM     15  C   UNL     1       0.673   5.364   1.679  0.00  0.00    +0.046 A 
ATOM     16  C   UNL     1       0.624   4.004   1.419  0.00  0.00    +0.126 A 
BRANCH  16  17
ATOM     17  O   UNL     1      -0.046   3.172   2.259  0.00  0.00    -0.506 OA
ATOM     18  H   UNL     1       0.498   2.815   2.975  0.00  0.00    +0.292 HD
ENDBRANCH  16  17
ENDBRANCH   8  11
BRANCH   6  19
ATOM     19  C   UNL     1       2.892  -0.303  -1.849  0.00  0.00    -0.019 A 
ATOM     20  C   UNL     1       2.151   0.209  -2.898  0.00  0.00    +0.006 A 
ATOM     21  C   UNL     1       2.579   0.028  -4.200  0.00  0.00    +0.000 A 
ATOM     22  C   UNL     1       3.743  -0.674  -4.454  0.00  0.00    +0.000 A 
ATOM     23  C   UNL     1       4.481  -1.191  -3.405  0.00  0.00    +0.000 A 
ATOM     24  C   UNL     1       4.055  -1.006  -2.103  0.00  0.00    +0.006 A 
ENDBRANCH   6  19
BRANCH   1  26
ATOM     25  C   UNL     1      -3.244  -2.900   0.258  0.00  0.00    +0.093 C 
ATOM     26  S   UNL     1      -1.554  -3.527   0.061  0.00  0.00    -0.088 S 
ENDBRANCH   1  26
TORSDOF 4
