REMARK  Name = ZINC63600642
REMARK  6 active torsions:
REMARK  status: ('A' for Active; 'I' for Inactive)
REMARK    1  A    between atoms: C_6  and  C_10
REMARK    2  A    between atoms: C_10  and  C_11
REMARK    3  A    between atoms: C_11  and  C_12
REMARK    4  A    between atoms: C_15  and  N_18
REMARK    5  A    between atoms: C_19  and  C_21
REMARK    6  A    between atoms: C_21  and  N_22
REMARK                            x       y       z     vdW  Elec       q    Type
REMARK                         _______ _______ _______ _____ _____    ______ ____
ROOT
ATOM      1  C   UNL     1       3.477  -4.917  -2.546  0.00  0.00    -0.047 A 
ATOM      2  C   UNL     1       2.706  -4.883  -3.694  0.00  0.00    +0.005 A 
ATOM      3  C   UNL     1       3.128  -5.543  -4.831  0.00  0.00    +0.023 A 
ATOM      4  C   UNL     1       4.329  -6.241  -4.822  0.00  0.00    +0.033 A 
ATOM      5  C   UNL     1       5.101  -6.274  -3.668  0.00  0.00    +0.023 A 
ATOM      6  C   UNL     1       4.676  -5.608  -2.535  0.00  0.00    +0.005 A 
ENDROOT
BRANCH   4   7
ATOM      7  N   UNL     1       4.759  -6.912  -5.972  0.00  0.00    -0.284 N 
ATOM      8  C   UNL     1       3.859  -7.497  -6.787  0.00  0.00    +0.235 C 
ATOM      9  O   UNL     1       2.673  -7.371  -6.570  0.00  0.00    -0.274 OA
ATOM     10  H   UNL     1       5.705  -6.955  -6.183  0.00  0.00    +0.155 HD
BRANCH   8  11
ATOM     11  C   UNL     1       4.328  -8.306  -7.969  0.00  0.00    +0.209 C 
BRANCH  11  12
ATOM     12  N   UNL     1       3.167  -8.832  -8.691  0.00  0.00    -0.256 N 
ATOM     13  C   UNL     1       2.621 -10.078  -8.350  0.00  0.00    +0.080 A 
ATOM     14  C   UNL     1       2.942 -10.686  -7.148  0.00  0.00    +0.047 A 
ATOM     15  C   UNL     1       2.393 -11.916  -6.831  0.00  0.00    +0.043 A 
ATOM     16  C   UNL     1       1.525 -12.538  -7.711  0.00  0.00    +0.024 A 
ATOM     17  C   UNL     1       1.200 -11.934  -8.912  0.00  0.00    +0.049 A 
ATOM     18  C   UNL     1       1.745 -10.704  -9.235  0.00  0.00    +0.143 A 
ATOM     19  O   UNL     1       1.433 -10.095 -10.411  0.00  0.00    -0.481 OA
ATOM     20  C   UNL     1       1.389  -8.666 -10.403  0.00  0.00    +0.325 C 
ATOM     21  C   UNL     1       2.603  -8.123  -9.693  0.00  0.00    +0.258 C 
ATOM     22  O   UNL     1       3.074  -7.055 -10.023  0.00  0.00    -0.271 OA
ATOM     23 CL   UNL     1       2.794 -12.681  -5.325  0.00  0.00    -0.083 Cl
ENDBRANCH  11  12
ENDBRANCH   8  11
ENDBRANCH   4   7
BRANCH   1  24
ATOM     24  C   UNL     1       3.014  -4.196  -1.307  0.00  0.00    +0.039 C 
BRANCH  24  25
ATOM     25  C   UNL     1       3.546  -2.762  -1.322  0.00  0.00    +0.051 C 
BRANCH  25  31
ATOM     26  C   UNL     1       0.006   1.392  -0.040  0.00  0.00    +0.002 A 
ATOM     27  C   UNL     1       1.184   2.160  -0.046  0.00  0.00    +0.002 A 
ATOM     28  C   UNL     1       2.413   1.606  -0.054  0.00  0.00    +0.027 A 
ATOM     29  C   UNL     1       2.548   0.143  -0.058  0.00  0.00    +0.060 A 
ATOM     30  N   UNL     1       3.580  -0.651  -0.065  0.00  0.00    -0.363 N 
ATOM     31  C   UNL     1       3.076  -2.030  -0.064  0.00  0.00    +0.174 C 
ATOM     32  N   UNL     1       1.611  -1.935  -0.055  0.00  0.00    -0.363 N 
ATOM     33  C   UNL     1       1.301  -0.670  -0.051  0.00  0.00    +0.060 A 
ATOM     34  C   UNL     1       0.017   0.044  -0.042  0.00  0.00    +0.027 A 
ATOM     35  H   UNL     1       4.511  -0.380  -0.071  0.00  0.00    +0.162 HD
ATOM     36  H   UNL     1       0.987  -2.678  -0.052  0.00  0.00    +0.162 HD
ENDBRANCH  25  31
ENDBRANCH  24  25
ENDBRANCH   1  24
TORSDOF 6
