REMARK  Name = ZINC60041163
REMARK  11 active torsions:
REMARK  status: ('A' for Active; 'I' for Inactive)
REMARK    1  A    between atoms: C_1  and  C_2
REMARK    2  A    between atoms: C_2  and  C_3
REMARK    3  A    between atoms: C_3  and  C_4
REMARK    4  A    between atoms: C_4  and  N_5
REMARK    5  A    between atoms: C_6  and  C_8
REMARK    6  A    between atoms: C_12  and  C_33
REMARK    7  A    between atoms: N_14  and  C_16
REMARK    8  A    between atoms: C_16  and  C_17
REMARK    9  A    between atoms: N_19  and  C_20
REMARK   10  A    between atoms: C_20  and  C_22
REMARK   11  A    between atoms: C_20  and  C_23
REMARK                            x       y       z     vdW  Elec       q    Type
REMARK                         _______ _______ _______ _____ _____    ______ ____
ROOT
ATOM      1  C   UNL     1      -5.761  -7.928   0.084  0.00  0.00    +0.019 C 
ENDROOT
BRANCH   1   6
ATOM      2  C   UNL     1      -4.429  -4.420   0.021  0.00  0.00    +0.058 C 
ATOM      3  C   UNL     1      -5.170  -3.915  -1.221  0.00  0.00    +0.009 C 
ATOM      4  C   UNL     1      -6.579  -4.514  -1.241  0.00  0.00    -0.015 C 
ATOM      5  C   UNL     1      -6.480  -6.040  -1.206  0.00  0.00    -0.071 C 
ATOM      6  N   UNL     1      -5.785  -6.461   0.017  0.00  0.00    +0.388 N 
ATOM      7  C   UNL     1      -4.409  -5.950   0.010  0.00  0.00    -0.065 C 
ATOM      8  C   UNL     1      -7.886  -6.643  -1.225  0.00  0.00    -0.013 C 
ATOM      9  H   UNL     1      -6.273  -6.098   0.822  0.00  0.00    -0.081 HD
BRANCH   2  11
ATOM     10  N   UNL     1      -2.787  -2.571   0.015  0.00  0.00    -0.315 N 
ATOM     11  C   UNL     1      -3.015  -3.899   0.010  0.00  0.00    +0.214 C 
ATOM     12  O   UNL     1      -2.083  -4.674  -0.003  0.00  0.00    -0.276 OA
ATOM     13  H   UNL     1      -3.533  -1.950   0.025  0.00  0.00    +0.149 HD
BRANCH  10  14
ATOM     14  C   UNL     1      -1.413  -2.063   0.004  0.00  0.00    +0.104 C 
BRANCH  14  15
ATOM     15  C   UNL     1      -1.433  -0.534   0.013  0.00  0.00    +0.018 C 
BRANCH  15  17
ATOM     16  C   UNL     1      -0.019   1.526   0.010  0.00  0.00    +0.004 C 
ATOM     17  C   UNL     1       0.002  -0.004   0.002  0.00  0.00    -0.002 C 
ENDBRANCH  15  17
ENDBRANCH  14  15
ENDBRANCH  10  14
ENDBRANCH   2  11
ENDBRANCH   1   6
BRANCH   1  18
ATOM     18  C   UNL     1      -5.158  -8.361   1.396  0.00  0.00    +0.197 C 
ATOM     19  O   UNL     1      -4.786  -7.529   2.196  0.00  0.00    -0.278 OA
ATOM     20  N   UNL     1      -5.034  -9.673   1.680  0.00  0.00    -0.310 N 
ATOM     21  H   UNL     1      -5.332 -10.338   1.040  0.00  0.00    +0.149 HD
BRANCH  20  22
ATOM     22  C   UNL     1      -4.448 -10.094   2.955  0.00  0.00    +0.100 C 
ATOM     23  C   UNL     1      -5.533 -10.114   4.033  0.00  0.00    +0.033 C 
BRANCH  22  24
ATOM     24  C   UNL     1      -3.861 -11.474   2.807  0.00  0.00    -0.027 A 
ATOM     25  C   UNL     1      -4.540 -12.431   2.056  0.00  0.00    +0.006 A 
ATOM     26  C   UNL     1      -4.038 -13.687   1.903  0.00  0.00    +0.009 A 
ATOM     27  C   UNL     1      -2.817 -14.027   2.510  0.00  0.00    -0.018 A 
ATOM     28  C   UNL     1      -2.267 -15.313   2.374  0.00  0.00    +0.008 A 
ATOM     29  C   UNL     1      -1.082 -15.605   2.976  0.00  0.00    +0.001 A 
ATOM     30  C   UNL     1      -0.403 -14.648   3.728  0.00  0.00    +0.001 A 
ATOM     31  C   UNL     1      -0.905 -13.392   3.881  0.00  0.00    +0.008 A 
ATOM     32  C   UNL     1      -2.126 -13.053   3.274  0.00  0.00    -0.018 A 
ATOM     33  C   UNL     1      -2.674 -11.765   3.405  0.00  0.00    +0.014 A 
ENDBRANCH  22  24
ENDBRANCH  20  22
ENDBRANCH   1  18
TORSDOF 8
