REMARK  Name = ZINC65518761
REMARK  8 active torsions:
REMARK  status: ('A' for Active; 'I' for Inactive)
REMARK    1  A    between atoms: C_1  and  C_2
REMARK    2  A    between atoms: C_2  and  C_3
REMARK    3  A    between atoms: C_2  and  N_4
REMARK    4  A    between atoms: C_7  and  C_9
REMARK    5  A    between atoms: C_9  and  N_10
REMARK    6  A    between atoms: N_13  and  N_14
REMARK    7  A    between atoms: C_15  and  C_17
REMARK    8  A    between atoms: C_17  and  C_18
REMARK                            x       y       z     vdW  Elec       q    Type
REMARK                         _______ _______ _______ _____ _____    ______ ____
ROOT
ATOM      1  N   UNL     1      -4.674  -3.701  -0.822  0.00  0.00    -0.298 N 
ATOM      2  C   UNL     1      -5.669  -4.430  -0.278  0.00  0.00    +0.316 C 
ATOM      3  O   UNL     1      -5.643  -4.705   0.906  0.00  0.00    -0.251 OA
ATOM      4  N   UNL     1      -6.691  -4.854  -1.046  0.00  0.00    -0.218 N 
ATOM      5  H   UNL     1      -4.695  -3.482  -1.767  0.00  0.00    +0.150 HD
ATOM      6  H   UNL     1      -7.407  -5.379  -0.655  0.00  0.00    +0.174 HD
ENDROOT
BRANCH   4   7
ATOM      7  N   UNL     1      -6.721  -4.538  -2.411  0.00  0.00    -0.233 N 
ATOM      8  C   UNL     1      -7.744  -4.962  -3.179  0.00  0.00    +0.233 C 
ATOM      9  O   UNL     1      -8.638  -5.618  -2.689  0.00  0.00    -0.274 OA
ATOM     10  H   UNL     1      -6.005  -4.013  -2.802  0.00  0.00    +0.173 HD
BRANCH   8  11
ATOM     11  C   UNL     1      -7.775  -4.622  -4.647  0.00  0.00    +0.133 C 
BRANCH  11  12
ATOM     12  C   UNL     1      -9.013  -5.210  -5.273  0.00  0.00    -0.031 A 
ATOM     13  C   UNL     1      -8.960  -6.425  -5.884  0.00  0.00    +0.005 A 
ATOM     14  C   UNL     1     -10.094  -6.985  -6.468  0.00  0.00    +0.001 A 
ATOM     15  C   UNL     1     -11.289  -6.333  -6.444  0.00  0.00    +0.008 A 
ATOM     16  C   UNL     1     -11.383  -5.077  -5.823  0.00  0.00    -0.018 A 
ATOM     17  C   UNL     1     -10.230  -4.510  -5.223  0.00  0.00    -0.014 A 
ATOM     18  C   UNL     1     -10.326  -3.256  -4.596  0.00  0.00    +0.009 A 
ATOM     19  C   UNL     1     -11.522  -2.607  -4.568  0.00  0.00    +0.001 A 
ATOM     20  C   UNL     1     -12.657  -3.167  -5.152  0.00  0.00    +0.001 A 
ATOM     21  C   UNL     1     -12.599  -4.373  -5.779  0.00  0.00    +0.008 A 
ENDBRANCH  11  12
ENDBRANCH   8  11
ENDBRANCH   4   7
BRANCH   1  22
ATOM     22  C   UNL     1      -3.563  -3.240   0.013  0.00  0.00    +0.107 C 
BRANCH  22  26
ATOM     23  N   UNL     1      -1.376  -0.512   0.012  0.00  0.00    +0.381 N 
ATOM     24  C   UNL     1      -2.083  -0.102  -1.228  0.00  0.00    -0.078 C 
ATOM     25  C   UNL     1      -3.236  -1.131  -1.335  0.00  0.00    -0.015 C 
ATOM     26  C   UNL     1      -2.579  -2.440  -0.843  0.00  0.00    -0.012 C 
ATOM     27  C   UNL     1      -1.374  -1.992   0.004  0.00  0.00    -0.074 C 
ATOM     28  H   UNL     1      -1.868  -0.170   0.824  0.00  0.00    -0.081 HD
BRANCH  23  30
ATOM     29  C   UNL     1      -0.019   1.526   0.010  0.00  0.00    -0.014 C 
ATOM     30  C   UNL     1       0.002  -0.004   0.002  0.00  0.00    -0.075 C 
ATOM     31  C   UNL     1       0.742  -0.511   1.242  0.00  0.00    -0.014 C 
ENDBRANCH  23  30
ENDBRANCH  22  26
ENDBRANCH   1  22
TORSDOF 6
