REMARK  Name = ZINC03504457
REMARK  7 active torsions:
REMARK  status: ('A' for Active; 'I' for Inactive)
REMARK    1  A    between atoms: N_9  and  S_10
REMARK    2  A    between atoms: S_10  and  C_13
REMARK    3  A    between atoms: C_15  and  C_20
REMARK    4  A    between atoms: N_22  and  C_23
REMARK    5  A    between atoms: C_23  and  C_24
REMARK    6  A    between atoms: C_24  and  C_26
REMARK    7  A    between atoms: C_24  and  N_31
REMARK                            x       y       z     vdW  Elec       q    Type
REMARK                         _______ _______ _______ _____ _____    ______ ____
ROOT
ATOM      1  C   UNL     1       6.176   0.668   1.462  0.00  0.00    +0.128 A 
ATOM      2  C   UNL     1       7.112  -0.169   2.033  0.00  0.00    +0.043 A 
ATOM      3  C   UNL     1       7.388  -0.075   3.398  0.00  0.00    +0.039 A 
ATOM      4  C   UNL     1       6.713   0.867   4.178  0.00  0.00    +0.014 A 
ATOM      5  C   UNL     1       5.779   1.697   3.596  0.00  0.00    +0.023 A 
ATOM      6  C   UNL     1       5.514   1.603   2.240  0.00  0.00    +0.068 A 
ATOM      7 CL   UNL     1       4.342   2.658   1.512  0.00  0.00    -0.082 Cl
ENDROOT
BRANCH   3   8
ATOM      8  C   UNL     1       8.390  -0.968   4.016  0.00  0.00    +0.244 C 
ATOM      9  O   UNL     1       8.976  -1.787   3.335  0.00  0.00    -0.270 OA
ATOM     10  N   UNL     1       8.654  -0.875   5.335  0.00  0.00    -0.312 N 
ATOM     11  H   UNL     1       8.186  -0.222   5.878  0.00  0.00    +0.149 HD
BRANCH  10  12
ATOM     12  C   UNL     1       9.647  -1.761   5.947  0.00  0.00    +0.097 C 
BRANCH  12  13
ATOM     13  C   UNL     1       9.659  -1.544   7.461  0.00  0.00    +0.016 C 
BRANCH  13  14
ATOM     14  N   UNL     1      10.763  -2.309   8.057  0.00  0.00    +0.387 N 
ATOM     15  C   UNL     1      12.064  -1.832   7.522  0.00  0.00    -0.078 C 
ATOM     16  C   UNL     1      13.079  -2.289   8.599  0.00  0.00    -0.020 C 
ATOM     17  C   UNL     1      12.303  -2.074   9.919  0.00  0.00    -0.020 C 
ATOM     18  C   UNL     1      10.817  -2.075   9.516  0.00  0.00    -0.078 C 
ATOM     19  H   UNL     1      10.647  -3.293   7.867  0.00  0.00    -0.081 HD
ENDBRANCH  13  14
BRANCH  13  20
ATOM     20  C   UNL     1       8.351  -2.011   8.046  0.00  0.00    +0.093 A 
ATOM     21  C   UNL     1       7.314  -1.223   8.382  0.00  0.00    +0.043 A 
ATOM     22  C   UNL     1       6.303  -2.071   8.889  0.00  0.00    +0.041 A 
ATOM     23  C   UNL     1       6.782  -3.326   8.832  0.00  0.00    +0.195 A 
ATOM     24  O   UNL     1       8.021  -3.284   8.316  0.00  0.00    -0.469 OA
ENDBRANCH  13  20
ENDBRANCH  12  13
ENDBRANCH  10  12
ENDBRANCH   3   8
BRANCH   1  25
ATOM     25  S   UNL     1       5.827   0.550  -0.261  0.00  0.00    +0.076 S 
ATOM     26  O   UNL     1       6.679  -0.461  -0.780  0.00  0.00    -0.150 OA
ATOM     27  O   UNL     1       5.825   1.879  -0.766  0.00  0.00    -0.150 OA
BRANCH  25  36
ATOM     28  C   UNL     1       2.769  -3.893  -0.273  0.00  0.00    +0.000 A 
ATOM     29  C   UNL     1       4.135  -3.743  -0.114  0.00  0.00    +0.002 A 
ATOM     30  C   UNL     1       4.704  -2.488  -0.147  0.00  0.00    +0.025 A 
ATOM     31  C   UNL     1       3.906  -1.358  -0.342  0.00  0.00    +0.054 A 
ATOM     32  C   UNL     1       2.538  -1.519  -0.501  0.00  0.00    -0.023 A 
ATOM     33  C   UNL     1       1.973  -2.779  -0.466  0.00  0.00    +0.005 A 
ATOM     34  C   UNL     1       1.913  -0.156  -0.695  0.00  0.00    +0.058 C 
ATOM     35  C   UNL     1       3.095   0.824  -0.628  0.00  0.00    +0.136 C 
ATOM     36  N   UNL     1       4.277  -0.014  -0.409  0.00  0.00    -0.202 N 
ENDBRANCH  25  36
ENDBRANCH   1  25
TORSDOF 7
