REMARK  Name = ZINC08890349
REMARK  8 active torsions:
REMARK  status: ('A' for Active; 'I' for Inactive)
REMARK    1  A    between atoms: C_1  and  N_2
REMARK    2  A    between atoms: N_2  and  C_3
REMARK    3  A    between atoms: C_9  and  C_11
REMARK    4  A    between atoms: C_11  and  O_12
REMARK    5  A    between atoms: O_12  and  C_13
REMARK    6  A    between atoms: C_13  and  C_15
REMARK    7  A    between atoms: C_15  and  C_16
REMARK    8  A    between atoms: C_16  and  C_17
REMARK                            x       y       z     vdW  Elec       q    Type
REMARK                         _______ _______ _______ _____ _____    ______ ____
ROOT
ATOM      1  C   UNL     1      -0.062  -0.386  -7.277  0.00  0.00    +0.085 C 
ENDROOT
BRANCH   1   2
ATOM      2  C   UNL     1      -0.061  -1.297  -8.477  0.00  0.00    +0.111 A 
ATOM      3  N   UNL     1      -0.074  -0.759  -9.723  0.00  0.00    -0.310 N 
ATOM      4  H   UNL     1      -0.084   0.206  -9.824  0.00  0.00    +0.170 HD
ATOM      5  C   UNL     1      -0.073  -1.536 -10.822  0.00  0.00    +0.260 A 
ATOM      6  O   UNL     1      -0.085  -1.037 -11.934  0.00  0.00    -0.267 OA
ATOM      7  C   UNL     1      -0.059  -2.961 -10.663  0.00  0.00    +0.075 A 
ATOM      8  C   UNL     1      -0.056  -3.991 -11.701  0.00  0.00    -0.023 A 
ATOM      9  C   UNL     1      -0.040  -5.276 -11.288  0.00  0.00    -0.004 A 
ATOM     10  S   UNL     1      -0.028  -5.189  -9.517  0.00  0.00    -0.073 S 
ATOM     11  C   UNL     1      -0.045  -3.423  -9.338  0.00  0.00    +0.116 A 
ATOM     12  N   UNL     1      -0.041  -2.591  -8.300  0.00  0.00    -0.227 NA
ATOM     13  C   UNL     1      -0.036  -6.505 -12.145  0.00  0.00    +0.043 C 
ATOM     14  C   UNL     1      -0.427  -6.100 -13.573  0.00  0.00    +0.005 C 
ATOM     15  C   UNL     1       0.395  -4.874 -13.979  0.00  0.00    +0.005 C 
ATOM     16  C   UNL     1      -0.071  -3.651 -13.188  0.00  0.00    +0.037 C 
ENDBRANCH   1   2
BRANCH   1  17
ATOM     17  C   UNL     1      -0.038  -1.226  -5.998  0.00  0.00    +0.128 C 
BRANCH  17  18
ATOM     18  C   UNL     1      -0.039  -0.314  -4.798  0.00  0.00    +0.308 C 
ATOM     19  O   UNL     1      -0.057   0.884  -4.950  0.00  0.00    -0.251 OA
BRANCH  18  20
ATOM     20  O   UNL     1      -0.020  -0.834  -3.561  0.00  0.00    -0.455 OA
BRANCH  20  21
ATOM     21  C   UNL     1      -0.023   0.089  -2.470  0.00  0.00    +0.327 C 
BRANCH  21  24
ATOM     22  C   UNL     1      -0.018   1.461   0.010  0.00  0.00    +0.132 C 
ATOM     23  N   UNL     1       0.002  -0.004   0.002  0.00  0.00    -0.299 N 
ATOM     24  C   UNL     1       0.000  -0.672  -1.169  0.00  0.00    +0.253 C 
ATOM     25  O   UNL     1       0.017  -1.884  -1.175  0.00  0.00    -0.272 OA
BRANCH  23  26
ATOM     26  C   UNL     1       0.024  -0.743   1.267  0.00  0.00    +0.076 C 
ATOM     27  C   UNL     1       1.276  -0.361   2.059  0.00  0.00    +0.022 C 
ATOM     28  C   UNL     1       1.299  -1.133   3.380  0.00  0.00    +0.002 C 
ATOM     29  C   UNL     1       0.052  -0.785   4.196  0.00  0.00    +0.000 C 
ATOM     30  C   UNL     1      -1.199  -1.167   3.404  0.00  0.00    +0.002 C 
ATOM     31  C   UNL     1      -1.222  -0.395   2.083  0.00  0.00    +0.022 C 
ENDBRANCH  23  26
ENDBRANCH  21  24
ENDBRANCH  20  21
ENDBRANCH  18  20
ENDBRANCH  17  18
ENDBRANCH   1  17
TORSDOF 7
