REMARK  Name = ZINC35325139
REMARK  13 active torsions:
REMARK  status: ('A' for Active; 'I' for Inactive)
REMARK    1  A    between atoms: C_1  and  C_2
REMARK    2  A    between atoms: C_2  and  O_3
REMARK    3  A    between atoms: O_3  and  C_4
REMARK    4  A    between atoms: C_4  and  C_6
REMARK    5  A    between atoms: C_9  and  C_12
REMARK    6  A    between atoms: C_12  and  C_13
REMARK    7  A    between atoms: C_14  and  C_26
REMARK    8  A    between atoms: C_17  and  O_21
REMARK    9  A    between atoms: C_18  and  O_19
REMARK   10  A    between atoms: O_19  and  C_20
REMARK   11  A    between atoms: O_21  and  C_22
REMARK   12  A    between atoms: N_27  and  N_28
REMARK   13  A    between atoms: C_29  and  C_31
REMARK                            x       y       z     vdW  Elec       q    Type
REMARK                         _______ _______ _______ _____ _____    ______ ____
ROOT
ATOM      1  C   UNL     1      -6.897  -4.952   0.014  0.00  0.00    +0.014 A 
ATOM      2  C   UNL     1      -7.787  -4.142   0.727  0.00  0.00    +0.047 A 
ATOM      3  C   UNL     1      -9.140  -4.108   0.367  0.00  0.00    +0.179 A 
ATOM      4  C   UNL     1      -9.591  -4.879  -0.696  0.00  0.00    +0.212 A 
ATOM      5  C   UNL     1      -8.701  -5.681  -1.399  0.00  0.00    +0.208 A 
ATOM      6  C   UNL     1      -7.354  -5.711  -1.046  0.00  0.00    +0.169 A 
ATOM      7  O   UNL     1     -10.934  -4.673  -0.846  0.00  0.00    -0.449 OA
ATOM      8  C   UNL     1     -11.372  -4.083   0.392  0.00  0.00    +0.467 C 
ATOM      9  O   UNL     1     -10.196  -3.417   0.887  0.00  0.00    -0.452 OA
ENDROOT
BRANCH   6  10
ATOM     10  O   UNL     1      -6.487  -6.494  -1.743  0.00  0.00    -0.491 OA
ATOM     11  C   UNL     1      -6.308  -7.834  -1.282  0.00  0.00    +0.277 C 
ENDBRANCH   6  10
BRANCH   5  12
ATOM     12  O   UNL     1      -9.145  -6.435  -2.440  0.00  0.00    -0.488 OA
ATOM     13  C   UNL     1      -9.119  -5.832  -3.736  0.00  0.00    +0.277 C 
ENDBRANCH   5  12
BRANCH   2  14
ATOM     14  C   UNL     1      -7.302  -3.327   1.855  0.00  0.00    +0.142 C 
ATOM     15  N   UNL     1      -8.130  -2.576   2.516  0.00  0.00    -0.188 NA
BRANCH  15  16
ATOM     16  N   UNL     1      -7.668  -1.801   3.588  0.00  0.00    -0.206 N 
ATOM     17  C   UNL     1      -8.527  -1.021   4.274  0.00  0.00    +0.244 C 
ATOM     18  O   UNL     1      -9.700  -0.990   3.963  0.00  0.00    -0.273 OA
ATOM     19  H   UNL     1      -6.731  -1.825   3.836  0.00  0.00    +0.177 HD
BRANCH  17  20
ATOM     20  C   UNL     1      -8.031  -0.187   5.427  0.00  0.00    +0.162 C 
ATOM     21  C   UNL     1      -9.200   0.601   6.025  0.00  0.00    +0.024 C 
ATOM     22  C   UNL     1      -8.740   1.220   7.350  0.00  0.00    +0.020 C 
ATOM     23  C   UNL     1      -8.498   0.095   8.358  0.00  0.00    +0.104 C 
ATOM     24  N   UNL     1      -7.638  -0.931   7.781  0.00  0.00    -0.315 N 
ATOM     25  C   UNL     1      -7.436  -1.086   6.473  0.00  0.00    +0.225 C 
ATOM     26  O   UNL     1      -6.732  -2.003   6.108  0.00  0.00    -0.275 OA
ATOM     27  H   UNL     1      -7.186  -1.538   8.386  0.00  0.00    +0.149 HD
ENDBRANCH  17  20
ENDBRANCH  15  16
ENDBRANCH   2  14
BRANCH   1  28
ATOM     28  C   UNL     1      -5.441  -4.992   0.398  0.00  0.00    +0.087 C 
BRANCH  28  32
ATOM     29  C   UNL     1      -2.852  -2.419   0.016  0.00  0.00    +0.167 C 
ATOM     30  N   UNL     1      -3.959  -1.757   0.025  0.00  0.00    -0.082 NA
ATOM     31  O   UNL     1      -5.100  -2.592   0.040  0.00  0.00    -0.389 OA
ATOM     32  C   UNL     1      -4.681  -3.909  -0.372  0.00  0.00    +0.215 C 
ATOM     33  C   UNL     1      -3.183  -3.899   0.011  0.00  0.00    +0.113 C 
BRANCH  29  34
ATOM     34  C   UNL     1      -1.497  -1.837   0.006  0.00  0.00    +0.357 C 
ATOM     35  O   UNL     1      -0.524  -2.564  -0.007  0.00  0.00    -0.243 OA
BRANCH  34  36
ATOM     36  O   UNL     1      -1.339  -0.499   0.012  0.00  0.00    -0.461 OA
BRANCH  36  38
ATOM     37  C   UNL     1      -0.019   1.526   0.010  0.00  0.00    +0.048 C 
ATOM     38  C   UNL     1       0.002  -0.004   0.002  0.00  0.00    +0.229 C 
ENDBRANCH  36  38
ENDBRANCH  34  36
ENDBRANCH  29  34
ENDBRANCH  28  32
ENDBRANCH   1  28
TORSDOF 10
