REMARK  Name = ZINC65402462
REMARK  12 active torsions:
REMARK  status: ('A' for Active; 'I' for Inactive)
REMARK    1  A    between atoms: C_1  and  C_2
REMARK    2  A    between atoms: C_2  and  C_3
REMARK    3  A    between atoms: C_3  and  C_4
REMARK    4  A    between atoms: C_6  and  C_9
REMARK    5  A    between atoms: C_9  and  C_10
REMARK    6  A    between atoms: C_9  and  C_11
REMARK    7  A    between atoms: C_9  and  N_12
REMARK    8  A    between atoms: C_13  and  C_15
REMARK    9  A    between atoms: C_16  and  C_28
REMARK   10  A    between atoms: C_18  and  C_20
REMARK   11  A    between atoms: C_23  and  C_27
REMARK   12  A    between atoms: C_25  and  C_26
REMARK                            x       y       z     vdW  Elec       q    Type
REMARK                         _______ _______ _______ _____ _____    ______ ____
ROOT
ATOM      1  N   UNL     1      -1.348  -6.517   0.840  0.00  0.00    -0.299 N 
ATOM      2  C   UNL     1      -1.329  -7.709   1.469  0.00  0.00    +0.253 C 
ATOM      3  O   UNL     1      -1.322  -7.756   2.685  0.00  0.00    -0.270 OA
ATOM      4  H   UNL     1      -1.353  -6.480  -0.129  0.00  0.00    +0.150 HD
ENDROOT
BRANCH   2   5
ATOM      5  C   UNL     1      -1.315  -8.950   0.688  0.00  0.00    +0.097 A 
ATOM      6  C   UNL     1      -1.301 -10.270   1.119  0.00  0.00    +0.058 A 
ATOM      7  N   UNL     1      -1.291 -11.186   0.187  0.00  0.00    -0.243 NA
ATOM      8  C   UNL     1      -1.295 -10.866  -1.096  0.00  0.00    +0.109 A 
ATOM      9  S   UNL     1      -1.321  -9.183  -1.083  0.00  0.00    -0.062 S 
ATOM     10  C   UNL     1      -1.296 -10.627   2.584  0.00  0.00    +0.067 C 
BRANCH   8  11
ATOM     11  C   UNL     1      -1.286 -11.771  -2.264  0.00  0.00    +0.010 A 
ATOM     12  C   UNL     1      -1.286 -11.246  -3.558  0.00  0.00    +0.011 A 
ATOM     13  C   UNL     1      -1.277 -12.097  -4.644  0.00  0.00    +0.004 A 
ATOM     14  C   UNL     1      -1.269 -13.467  -4.453  0.00  0.00    -0.050 A 
ATOM     15  C   UNL     1      -1.269 -13.994  -3.174  0.00  0.00    +0.007 A 
ATOM     16  C   UNL     1      -1.271 -13.154  -2.079  0.00  0.00    -0.041 A 
ATOM     17  C   UNL     1      -1.264 -13.730  -0.686  0.00  0.00    +0.044 C 
ATOM     18  C   UNL     1      -1.260 -14.390  -5.645  0.00  0.00    +0.044 C 
ENDBRANCH   8  11
ENDBRANCH   2   5
BRANCH   1  19
ATOM     19  C   UNL     1      -1.361  -5.277   1.621  0.00  0.00    +0.092 C 
ATOM     20  C   UNL     1      -0.108  -5.213   2.497  0.00  0.00    +0.040 C 
ATOM     21  C   UNL     1      -2.607  -5.247   2.509  0.00  0.00    +0.040 C 
BRANCH  19  24
ATOM     22  C   UNL     1      -1.413  -2.041   0.005  0.00  0.00    +0.227 A 
ATOM     23  N   UNL     1      -1.398  -2.810   1.057  0.00  0.00    -0.194 NA
ATOM     24  C   UNL     1      -1.382  -4.096   0.686  0.00  0.00    +0.194 A 
ATOM     25  N   UNL     1      -1.387  -4.159  -0.615  0.00  0.00    -0.059 NA
ATOM     26  O   UNL     1      -1.413  -2.819  -1.085  0.00  0.00    -0.338 OA
BRANCH  22  27
ATOM     27  C   UNL     1      -1.433  -0.534   0.013  0.00  0.00    +0.098 C 
BRANCH  27  29
ATOM     28  C   UNL     1      -0.019   1.526   0.010  0.00  0.00    +0.004 C 
ATOM     29  C   UNL     1       0.002  -0.004   0.002  0.00  0.00    +0.006 C 
ENDBRANCH  27  29
ENDBRANCH  22  27
ENDBRANCH  19  24
ENDBRANCH   1  19
TORSDOF 6
