REMARK  Name = ZINC39498380
REMARK  11 active torsions:
REMARK  status: ('A' for Active; 'I' for Inactive)
REMARK    1  A    between atoms: C_4  and  C_7
REMARK    2  A    between atoms: C_7  and  C_8
REMARK    3  A    between atoms: C_9  and  C_32
REMARK    4  A    between atoms: C_12  and  C_24
REMARK    5  A    between atoms: C_13  and  S_14
REMARK    6  A    between atoms: S_14  and  O_17
REMARK    7  A    between atoms: O_17  and  C_18
REMARK    8  A    between atoms: C_24  and  C_26
REMARK    9  A    between atoms: C_24  and  N_29
REMARK   10  A    between atoms: C_26  and  C_27
REMARK   11  A    between atoms: C_37  and  O_38
REMARK                            x       y       z     vdW  Elec       q    Type
REMARK                         _______ _______ _______ _____ _____    ______ ____
ROOT
ATOM      1  C   UNL     1       4.401  -0.995   1.393  0.00  0.00    -0.007 A 
ATOM      2  C   UNL     1       4.318   0.224   2.063  0.00  0.00    -0.009 A 
ATOM      3  C   UNL     1       4.375   0.254   3.455  0.00  0.00    +0.009 A 
ATOM      4  C   UNL     1       4.515  -0.923   4.163  0.00  0.00    +0.008 A 
ATOM      5  C   UNL     1       4.598  -2.130   3.493  0.00  0.00    +0.002 A 
ATOM      6  C   UNL     1       4.535  -2.166   2.111  0.00  0.00    +0.137 A 
ENDROOT
BRANCH   2   7
ATOM      7  C   UNL     1       4.168   1.486   1.298  0.00  0.00    +0.024 A 
ATOM      8  C   UNL     1       5.236   1.983   0.554  0.00  0.00    +0.012 A 
ATOM      9  C   UNL     1       5.092   3.157  -0.157  0.00  0.00    +0.001 A 
ATOM     10  C   UNL     1       3.890   3.844  -0.133  0.00  0.00    +0.004 A 
ATOM     11  C   UNL     1       2.825   3.359   0.602  0.00  0.00    +0.046 A 
ATOM     12  C   UNL     1       2.954   2.178   1.315  0.00  0.00    +0.125 A 
BRANCH  12  13
ATOM     13  O   UNL     1       1.906   1.698   2.034  0.00  0.00    -0.506 OA
ATOM     14  H   UNL     1       1.874   2.018   2.945  0.00  0.00    +0.292 HD
ENDBRANCH  12  13
ENDBRANCH   2   7
BRANCH   6  15
ATOM     15  S   UNL     1       4.635  -3.709   1.266  0.00  0.00    +0.152 S 
ATOM     16  O   UNL     1       5.641  -4.467   1.922  0.00  0.00    -0.131 OA
ATOM     17  O   UNL     1       3.302  -4.178   1.119  0.00  0.00    -0.131 OA
BRANCH  15  18
ATOM     18  O   UNL     1       5.152  -3.421  -0.137  0.00  0.00    -0.342 OA
BRANCH  18  19
ATOM     19  C   UNL     1       6.504  -3.316  -0.217  0.00  0.00    +0.157 A 
ATOM     20  C   UNL     1       7.123  -2.102   0.047  0.00  0.00    +0.048 A 
ATOM     21  C   UNL     1       8.498  -1.998  -0.034  0.00  0.00    +0.004 A 
ATOM     22  C   UNL     1       9.258  -3.101  -0.379  0.00  0.00    +0.000 A 
ATOM     23  C   UNL     1       8.643  -4.311  -0.642  0.00  0.00    +0.004 A 
ATOM     24  C   UNL     1       7.269  -4.422  -0.556  0.00  0.00    +0.048 A 
ENDBRANCH  18  19
ENDBRANCH  15  18
ENDBRANCH   6  15
BRANCH   1  25
ATOM     25  C   UNL     1       4.339  -1.035  -0.112  0.00  0.00    +0.073 C 
BRANCH  25  29
ATOM     26  C   UNL     1       0.335  -1.856  -1.353  0.00  0.00    +0.000 A 
ATOM     27  C   UNL     1       0.701  -0.569  -1.004  0.00  0.00    +0.000 A 
ATOM     28  C   UNL     1       1.996  -0.304  -0.602  0.00  0.00    +0.004 A 
ATOM     29  C   UNL     1       2.927  -1.325  -0.549  0.00  0.00    -0.043 A 
ATOM     30  C   UNL     1       2.561  -2.612  -0.897  0.00  0.00    +0.004 A 
ATOM     31  C   UNL     1       1.266  -2.877  -1.301  0.00  0.00    +0.000 A 
ENDBRANCH  25  29
ENDBRANCH   1  25
BRANCH   5  32
ATOM     32  C   UNL     1       4.751  -3.412   4.270  0.00  0.00    +0.112 C 
BRANCH  32  33
ATOM     33  N   UNL     1       6.162  -3.805   4.291  0.00  0.00    -0.311 N 
ATOM     34  C   UNL     1       6.498  -5.105   4.409  0.00  0.00    +0.326 C 
ATOM     35  O   UNL     1       5.635  -5.957   4.407  0.00  0.00    -0.280 OA
ATOM     36  H   UNL     1       6.855  -3.130   4.220  0.00  0.00    +0.149 HD
ENDBRANCH  32  33
BRANCH  32  37
ATOM     37  C   UNL     1       4.260  -3.201   5.704  0.00  0.00    +0.097 C 
BRANCH  37  38
ATOM     38  C   UNL     1       4.304  -4.510   6.448  0.00  0.00    +0.225 C 
ATOM     39  O   UNL     1       4.936  -4.601   7.473  0.00  0.00    -0.301 OA
ENDBRANCH  37  38
ENDBRANCH  32  37
ENDBRANCH   5  32
TORSDOF 11
