REMARK  Name = ZINC39363137
REMARK  7 active torsions:
REMARK  status: ('A' for Active; 'I' for Inactive)
REMARK    1  A    between atoms: C_1  and  C_2
REMARK    2  A    between atoms: C_8  and  C_10
REMARK    3  A    between atoms: C_10  and  S_11
REMARK    4  A    between atoms: S_11  and  C_12
REMARK    5  A    between atoms: C_15  and  C_25
REMARK    6  A    between atoms: N_17  and  C_18
REMARK    7  A    between atoms: C_25  and  C_26
REMARK                            x       y       z     vdW  Elec       q    Type
REMARK                         _______ _______ _______ _____ _____    ______ ____
ROOT
ATOM      1  C   UNL     1      -6.284  -5.438   0.226  0.00  0.00    +0.180 C 
ATOM      2  N   UNL     1      -5.713  -6.593   0.155  0.00  0.00    -0.162 NA
ATOM      3  N   UNL     1      -6.637  -7.605  -0.129  0.00  0.00    -0.246 N 
ATOM      4  C   UNL     1      -7.949  -6.944  -0.241  0.00  0.00    +0.187 C 
ATOM      5  N   UNL     1      -7.652  -5.523   0.007  0.00  0.00    -0.258 N 
ATOM      6  H   UNL     1      -6.451  -8.552  -0.231  0.00  0.00    +0.170 HD
ENDROOT
BRANCH   5   7
ATOM      7  C   UNL     1      -8.567  -4.467   0.018  0.00  0.00    +0.038 A 
ATOM      8  C   UNL     1      -9.536  -4.396   1.011  0.00  0.00    +0.025 A 
ATOM      9  C   UNL     1     -10.439  -3.351   1.019  0.00  0.00    +0.022 A 
ATOM     10  C   UNL     1     -10.380  -2.376   0.038  0.00  0.00    +0.041 A 
ATOM     11  C   UNL     1      -9.416  -2.445  -0.952  0.00  0.00    +0.022 A 
ATOM     12  C   UNL     1      -8.507  -3.484  -0.962  0.00  0.00    +0.025 A 
ATOM     13 CL   UNL     1     -11.518  -1.065   0.051  0.00  0.00    -0.084 Cl
ENDBRANCH   5   7
BRANCH   1  14
ATOM     14  S   UNL     1      -5.431  -3.934   0.567  0.00  0.00    -0.079 S 
BRANCH  14  15
ATOM     15  C   UNL     1      -3.701  -4.444   0.757  0.00  0.00    +0.173 C 
BRANCH  15  23
ATOM     16  C   UNL     1      -0.170   1.350   2.107  0.00  0.00    +0.089 C 
ATOM     17  C   UNL     1      -0.135  -0.142   1.902  0.00  0.00    +0.136 A 
ATOM     18  C   UNL     1      -1.194  -0.926   1.632  0.00  0.00    +0.091 A 
ATOM     19  C   UNL     1      -0.735  -2.257   1.513  0.00  0.00    +0.168 A 
ATOM     20  N   UNL     1       0.558  -2.255   1.709  0.00  0.00    -0.063 NA
ATOM     21  O   UNL     1       0.958  -0.919   1.953  0.00  0.00    -0.358 OA
ATOM     22  N   UNL     1      -1.522  -3.375   1.237  0.00  0.00    -0.267 N 
ATOM     23  C   UNL     1      -2.851  -3.236   1.056  0.00  0.00    +0.229 C 
ATOM     24  O   UNL     1      -3.362  -2.139   1.133  0.00  0.00    -0.275 OA
ATOM     25  H   UNL     1      -1.113  -4.253   1.175  0.00  0.00    +0.156 HD
ENDBRANCH  15  23
ENDBRANCH  14  15
ENDBRANCH   1  14
BRANCH   4  26
ATOM     26  C   UNL     1      -8.531  -7.142  -1.642  0.00  0.00    +0.097 C 
BRANCH  26  27
ATOM     27  C   UNL     1      -8.849  -8.600  -1.853  0.00  0.00    +0.029 A 
ATOM     28  N   UNL     1      -7.874  -9.462  -2.275  0.00  0.00    -0.311 N 
ATOM     29  C   UNL     1      -8.148 -10.765  -2.465  0.00  0.00    +0.327 A 
ATOM     30  O   UNL     1      -7.266 -11.514  -2.840  0.00  0.00    -0.247 OA
ATOM     31  N   UNL     1      -9.383 -11.252  -2.246  0.00  0.00    -0.275 N 
ATOM     32  C   UNL     1     -10.371 -10.435  -1.830  0.00  0.00    +0.254 A 
ATOM     33  O   UNL     1     -11.490 -10.875  -1.631  0.00  0.00    -0.268 OA
ATOM     34  C   UNL     1     -10.096  -9.063  -1.621  0.00  0.00    +0.091 A 
ATOM     35  H   UNL     1      -9.563 -12.195  -2.388  0.00  0.00    +0.173 HD
ATOM     36  H   UNL     1      -6.977  -9.130  -2.438  0.00  0.00    +0.170 HD
ENDBRANCH  26  27
ENDBRANCH   4  26
TORSDOF 6
