REMARK  Name = ZINC29571626
REMARK  11 active torsions:
REMARK  status: ('A' for Active; 'I' for Inactive)
REMARK    1  A    between atoms: C_1  and  C_2
REMARK    2  A    between atoms: C_2  and  C_3
REMARK    3  A    between atoms: C_3  and  C_4
REMARK    4  A    between atoms: C_6  and  C_9
REMARK    5  A    between atoms: C_9  and  S_10
REMARK    6  A    between atoms: S_10  and  C_11
REMARK    7  A    between atoms: N_21  and  C_22
REMARK    8  A    between atoms: C_22  and  C_23
REMARK    9  A    between atoms: C_23  and  C_24
REMARK   10  A    between atoms: C_27  and  S_30
REMARK   11  A    between atoms: S_30  and  N_33
REMARK                            x       y       z     vdW  Elec       q    Type
REMARK                         _______ _______ _______ _____ _____    ______ ____
ROOT
ATOM      1  C   UNL     1      -1.118  -2.037   0.003  0.00  0.00    +0.173 A 
ATOM      2  N   UNL     1      -1.136  -0.727   0.009  0.00  0.00    -0.223 NA
ATOM      3  C   UNL     1       0.002  -0.004   0.002  0.00  0.00    +0.079 A 
ATOM      4  C   UNL     1      -0.017   1.394   0.010  0.00  0.00    +0.028 A 
ATOM      5  C   UNL     1       1.161   2.086   0.002  0.00  0.00    +0.002 A 
ATOM      6  C   UNL     1       2.381   1.422  -0.013  0.00  0.00    +0.001 A 
ATOM      7  C   UNL     1       2.432   0.055  -0.021  0.00  0.00    +0.015 A 
ATOM      8  C   UNL     1       1.245  -0.677  -0.013  0.00  0.00    +0.065 A 
ATOM      9  C   UNL     1       1.240  -2.146  -0.021  0.00  0.00    +0.262 A 
ATOM     10  O   UNL     1       2.278  -2.781  -0.035  0.00  0.00    -0.267 OA
ATOM     11  N   UNL     1       0.037  -2.766  -0.012  0.00  0.00    -0.287 N 
ENDROOT
BRANCH   1  12
ATOM     12  S   UNL     1      -2.655  -2.898   0.013  0.00  0.00    -0.078 S 
BRANCH  12  13
ATOM     13  C   UNL     1      -3.800  -1.496   0.030  0.00  0.00    +0.176 C 
BRANCH  13  16
ATOM     14  C   UNL     1      -7.130  -2.700   0.628  0.00  0.00    +0.172 A 
ATOM     15  N   UNL     1      -5.942  -2.281   1.100  0.00  0.00    -0.195 NA
ATOM     16  C   UNL     1      -5.218  -2.007   0.041  0.00  0.00    +0.238 A 
ATOM     17  O   UNL     1      -5.977  -2.271  -1.027  0.00  0.00    -0.337 OA
ATOM     18  N   UNL     1      -7.067  -2.667  -0.669  0.00  0.00    -0.061 NA
BRANCH  14  19
ATOM     19  C   UNL     1      -8.314  -3.134   1.453  0.00  0.00    +0.079 C 
BRANCH  19  21
ATOM     20  C   UNL     1      -9.428  -5.078   2.559  0.00  0.00    +0.004 C 
ATOM     21  C   UNL     1      -8.225  -4.637   1.721  0.00  0.00    +0.004 C 
ENDBRANCH  19  21
ENDBRANCH  14  19
ENDBRANCH  13  16
ENDBRANCH  12  13
ENDBRANCH   1  12
BRANCH  11  22
ATOM     22  C   UNL     1      -0.027  -4.229  -0.019  0.00  0.00    +0.132 C 
BRANCH  22  23
ATOM     23  C   UNL     1      -0.063  -4.731  -1.464  0.00  0.00    +0.057 C 
BRANCH  23  24
ATOM     24  C   UNL     1      -0.129  -6.237  -1.472  0.00  0.00    -0.046 A 
ATOM     25  C   UNL     1       1.036  -6.980  -1.493  0.00  0.00    +0.005 A 
ATOM     26  C   UNL     1       0.976  -8.361  -1.495  0.00  0.00    +0.029 A 
ATOM     27  C   UNL     1      -0.250  -8.999  -1.486  0.00  0.00    +0.105 A 
ATOM     28  C   UNL     1      -1.416  -8.256  -1.470  0.00  0.00    +0.029 A 
ATOM     29  C   UNL     1      -1.355  -6.875  -1.464  0.00  0.00    +0.005 A 
BRANCH  27  30
ATOM     30  S   UNL     1      -0.327 -10.759  -1.493  0.00  0.00    +0.056 S 
ATOM     31  O   UNL     1       0.905 -11.222  -0.957  0.00  0.00    -0.153 OA
ATOM     32  O   UNL     1      -1.583 -11.113  -0.931  0.00  0.00    -0.153 OA
BRANCH  30  33
ATOM     33  N   UNL     1      -0.365 -11.241  -3.077  0.00  0.00    -0.204 NA
ATOM     34  H   UNL     1      -0.413 -12.339  -3.126  0.00  0.00    +0.144 HD
ATOM     35  H   UNL     1       0.544 -10.891  -3.588  0.00  0.00    +0.144 HD
ENDBRANCH  30  33
ENDBRANCH  27  30
ENDBRANCH  23  24
ENDBRANCH  22  23
ENDBRANCH  11  22
TORSDOF 10
