REMARK  Name = ZINC36397532
REMARK  7 active torsions:
REMARK  status: ('A' for Active; 'I' for Inactive)
REMARK    1  A    between atoms: C_1  and  C_2
REMARK    2  A    between atoms: C_2  and  C_4
REMARK    3  A    between atoms: C_2  and  N_17
REMARK    4  A    between atoms: N_6  and  C_7
REMARK    5  A    between atoms: C_10  and  O_13
REMARK    6  A    between atoms: O_13  and  C_14
REMARK    7  A    between atoms: C_20  and  C_23
REMARK                            x       y       z     vdW  Elec       q    Type
REMARK                         _______ _______ _______ _____ _____    ______ ____
ROOT
ATOM      1  N   UNL     1      -1.300  -0.662  -0.170  0.00  0.00    +0.387 N 
ATOM      2  C   UNL     1      -1.960  -0.256  -1.416  0.00  0.00    -0.077 C 
ATOM      3  C   UNL     1      -3.351  -0.889  -1.492  0.00  0.00    -0.006 C 
ATOM      4  C   UNL     1      -3.214  -2.414  -1.459  0.00  0.00    +0.072 C 
ATOM      5  C   UNL     1      -2.459  -2.822  -0.191  0.00  0.00    -0.006 C 
ATOM      6  C   UNL     1      -1.101  -2.116  -0.163  0.00  0.00    -0.077 C 
ATOM      7  H   UNL     1      -1.877  -0.400   0.615  0.00  0.00    -0.081 HD
ENDROOT
BRANCH   4   8
ATOM      8  C   UNL     1      -4.583  -3.043  -1.454  0.00  0.00    +0.200 A 
ATOM      9  N   UNL     1      -5.488  -2.845  -0.543  0.00  0.00    -0.213 NA
ATOM     10  C   UNL     1      -6.595  -3.570  -0.860  0.00  0.00    +0.111 A 
ATOM     11  C   UNL     1      -7.843  -3.741  -0.258  0.00  0.00    +0.051 A 
ATOM     12  C   UNL     1      -8.777  -4.568  -0.843  0.00  0.00    +0.043 A 
ATOM     13  C   UNL     1      -8.483  -5.232  -2.026  0.00  0.00    +0.024 A 
ATOM     14  C   UNL     1      -7.254  -5.072  -2.631  0.00  0.00    +0.050 A 
ATOM     15  C   UNL     1      -6.303  -4.244  -2.055  0.00  0.00    +0.155 A 
ATOM     16  O   UNL     1      -5.045  -3.884  -2.393  0.00  0.00    -0.439 OA
ATOM     17 CL   UNL     1     -10.329  -4.782  -0.096  0.00  0.00    -0.083 Cl
ENDBRANCH   4   8
BRANCH   1  19
ATOM     18  C   UNL     1      -0.191   1.520  -0.209  0.00  0.00    -0.004 C 
ATOM     19  C   UNL     1       0.002   0.010  -0.065  0.00  0.00    +0.016 C 
BRANCH  19  20
ATOM     20  C   UNL     1       0.616  -0.292   1.278  0.00  0.00    +0.203 C 
ATOM     21  O   UNL     1      -0.058  -0.791   2.155  0.00  0.00    -0.277 OA
ATOM     22  N   UNL     1       1.914  -0.008   1.504  0.00  0.00    -0.287 N 
ATOM     23  H   UNL     1       2.433   0.459   0.831  0.00  0.00    +0.155 HD
BRANCH  22  24
ATOM     24  C   UNL     1       2.513  -0.387   2.713  0.00  0.00    +0.034 A 
ATOM     25  C   UNL     1       3.843  -0.785   2.733  0.00  0.00    +0.027 A 
ATOM     26  C   UNL     1       4.434  -1.157   3.925  0.00  0.00    +0.047 A 
ATOM     27  C   UNL     1       3.698  -1.134   5.101  0.00  0.00    +0.127 A 
ATOM     28  C   UNL     1       2.369  -0.737   5.081  0.00  0.00    +0.047 A 
ATOM     29  C   UNL     1       1.780  -0.358   3.891  0.00  0.00    +0.027 A 
BRANCH  27  30
ATOM     30  O   UNL     1       4.280  -1.501   6.274  0.00  0.00    -0.434 OA
BRANCH  30  31
ATOM     31  C   UNL     1       3.464  -1.453   7.446  0.00  0.00    +0.541 C 
ATOM     32  F   UNL     1       3.010  -0.145   7.645  0.00  0.00    -0.166 F 
ATOM     33  F   UNL     1       2.368  -2.308   7.286  0.00  0.00    -0.166 F 
ENDBRANCH  30  31
ENDBRANCH  27  30
ENDBRANCH  22  24
ENDBRANCH  19  20
ENDBRANCH   1  19
TORSDOF 6
