REMARK  Name = ZINC36569684
REMARK  11 active torsions:
REMARK  status: ('A' for Active; 'I' for Inactive)
REMARK    1  A    between atoms: C_1  and  O_2
REMARK    2  A    between atoms: O_2  and  C_3
REMARK    3  A    between atoms: C_6  and  C_10
REMARK    4  A    between atoms: N_23  and  C_24
REMARK    5  A    between atoms: C_24  and  C_26
REMARK    6  A    between atoms: C_24  and  C_30
REMARK    7  A    between atoms: C_26  and  C_27
REMARK    8  A    between atoms: C_27  and  S_28
REMARK    9  A    between atoms: S_28  and  C_29
REMARK   10  A    between atoms: C_30  and  O_32
REMARK   11  A    between atoms: O_32  and  C_33
REMARK                            x       y       z     vdW  Elec       q    Type
REMARK                         _______ _______ _______ _____ _____    ______ ____
ROOT
ATOM      1  C   UNL     1       2.507  -2.500  -4.386  0.00  0.00    +0.159 C 
ATOM      2  C   UNL     1       3.947  -2.802  -4.049  0.00  0.00    +0.062 A 
ATOM      3  C   UNL     1       4.996  -2.132  -4.572  0.00  0.00    +0.040 A 
ATOM      4  N   UNL     1       6.123  -2.677  -4.036  0.00  0.00    -0.349 N 
ATOM      5  H   UNL     1       7.037  -2.407  -4.217  0.00  0.00    +0.166 HD
ATOM      6  C   UNL     1       5.728  -3.666  -3.202  0.00  0.00    +0.171 A 
ATOM      7  N   UNL     1       4.422  -3.733  -3.218  0.00  0.00    -0.348 N 
ATOM      8  C   UNL     1       4.888  -1.006  -5.566  0.00  0.00    +0.074 C 
ATOM      9  C   UNL     1       3.455  -0.459  -5.540  0.00  0.00    +0.116 C 
ATOM     10  N   UNL     1       2.509  -1.586  -5.543  0.00  0.00    -0.273 N 
ATOM     11  C   UNL     1       1.666  -1.780  -6.577  0.00  0.00    +0.304 C 
ATOM     12  O   UNL     1       0.829  -2.660  -6.522  0.00  0.00    -0.253 OA
ATOM     13  N   UNL     1       1.753  -1.000  -7.672  0.00  0.00    -0.286 N 
ATOM     14  H   UNL     1       2.467  -0.348  -7.748  0.00  0.00    +0.151 HD
ATOM     15  H   UNL     1       3.884  -4.358  -2.707  0.00  0.00    +0.167 HD
ENDROOT
BRANCH   1  19
ATOM     16  C   UNL     1       0.596  -0.622  -1.054  0.00  0.00    +0.123 A 
ATOM     17  C   UNL     1       1.980  -0.717  -1.101  0.00  0.00    +0.046 A 
ATOM     18  C   UNL     1       2.595  -1.324  -2.178  0.00  0.00    +0.012 A 
ATOM     19  C   UNL     1       1.833  -1.838  -3.211  0.00  0.00    +0.014 A 
ATOM     20  C   UNL     1       0.452  -1.745  -3.168  0.00  0.00    +0.132 A 
ATOM     21  C   UNL     1      -0.168  -1.143  -2.088  0.00  0.00    +0.084 A 
ATOM     22  F   UNL     1      -0.290  -2.248  -4.179  0.00  0.00    -0.205 F 
BRANCH  16  24
ATOM     23  C   UNL     1       0.840   0.489   1.034  0.00  0.00    +0.277 C 
ATOM     24  O   UNL     1      -0.010  -0.025   0.005  0.00  0.00    -0.495 OA
ENDBRANCH  16  24
ENDBRANCH   1  19
BRANCH  13  25
ATOM     25  C   UNL     1       0.767  -1.135  -8.748  0.00  0.00    +0.184 C 
BRANCH  25  26
ATOM     26  C   UNL     1      -0.446  -0.301  -8.425  0.00  0.00    +0.327 C 
ATOM     27  O   UNL     1      -0.483   0.341  -7.402  0.00  0.00    -0.249 OA
BRANCH  26  28
ATOM     28  O   UNL     1      -1.485  -0.271  -9.275  0.00  0.00    -0.467 OA
ATOM     29  C   UNL     1      -2.601   0.541  -8.906  0.00  0.00    +0.280 C 
ENDBRANCH  26  28
ENDBRANCH  25  26
BRANCH  25  30
ATOM     30  C   UNL     1       1.381  -0.655 -10.065  0.00  0.00    +0.044 C 
BRANCH  30  31
ATOM     31  C   UNL     1       2.536  -1.579 -10.455  0.00  0.00    +0.071 C 
BRANCH  31  32
ATOM     32  S   UNL     1       3.263  -1.011 -12.017  0.00  0.00    -0.164 S 
ATOM     33  C   UNL     1       4.599  -2.195 -12.336  0.00  0.00    +0.084 C 
ENDBRANCH  31  32
ENDBRANCH  30  31
ENDBRANCH  25  30
ENDBRANCH  13  25
TORSDOF 8
