REMARK  Name = ZINC44893550
REMARK  7 active torsions:
REMARK  status: ('A' for Active; 'I' for Inactive)
REMARK    1  A    between atoms: C_1  and  C_2
REMARK    2  A    between atoms: C_2  and  N_3
REMARK    3  A    between atoms: N_3  and  C_4
REMARK    4  A    between atoms: C_5  and  C_19
REMARK    5  A    between atoms: C_6  and  N_18
REMARK    6  A    between atoms: C_7  and  C_9
REMARK    7  A    between atoms: C_14  and  C_17
REMARK                            x       y       z     vdW  Elec       q    Type
REMARK                         _______ _______ _______ _____ _____    ______ ____
ROOT
ATOM      1  C   UNL     1       0.830  -1.827  -1.430  0.00  0.00    +0.086 A 
ATOM      2  C   UNL     1       1.453  -2.453  -2.509  0.00  0.00    +0.101 A 
ATOM      3  C   UNL     1       1.476  -3.846  -2.525  0.00  0.00    +0.063 A 
ATOM      4  C   UNL     1       0.864  -4.472  -1.444  0.00  0.00    +0.098 A 
ATOM      5  S   UNL     1       0.299  -3.095  -0.466  0.00  0.00    -0.066 S 
ENDROOT
BRANCH   4   6
ATOM      6  C   UNL     1       0.730  -5.851  -1.184  0.00  0.00    +0.258 C 
ATOM      7  O   UNL     1       1.185  -6.666  -1.968  0.00  0.00    -0.269 OA
ATOM      8  N   UNL     1       0.097  -6.268  -0.070  0.00  0.00    -0.263 N 
ATOM      9  C   UNL     1      -0.036  -7.632   0.187  0.00  0.00    +0.168 A 
ATOM     10  C   UNL     1       0.446  -8.682  -0.626  0.00  0.00    +0.091 A 
ATOM     11  C   UNL     1       0.120  -9.847  -0.040  0.00  0.00    +0.136 A 
ATOM     12  O   UNL     1      -0.539  -9.574   1.097  0.00  0.00    -0.358 OA
ATOM     13  N   UNL     1      -0.624  -8.166   1.227  0.00  0.00    -0.063 NA
ATOM     14  C   UNL     1       0.440 -11.222  -0.567  0.00  0.00    +0.089 C 
ATOM     15  H   UNL     1      -0.265  -5.620   0.554  0.00  0.00    +0.157 HD
ENDBRANCH   4   6
BRANCH   3  16
ATOM     16  N   UNL     1       2.070  -4.564  -3.554  0.00  0.00    -0.356 N 
ATOM     17  H   UNL     1       2.487  -4.095  -4.293  0.00  0.00    +0.142 HD
ATOM     18  H   UNL     1       2.067  -5.534  -3.533  0.00  0.00    +0.142 HD
ENDBRANCH   3  16
BRANCH   1  19
ATOM     19  N   UNL     1       0.688  -0.476  -1.203  0.00  0.00    -0.338 N 
ATOM     20  H   UNL     1       1.042   0.162  -1.842  0.00  0.00    +0.147 HD
BRANCH  19  22
ATOM     21  C   UNL     1      -0.019   1.526   0.010  0.00  0.00    +0.024 C 
ATOM     22  C   UNL     1       0.002  -0.004   0.002  0.00  0.00    +0.098 C 
ENDBRANCH  19  22
ENDBRANCH   1  19
BRANCH   2  23
ATOM     23  C   UNL     1       2.047  -1.690  -3.565  0.00  0.00    +0.103 C 
ATOM     24  N   UNL     1       2.519  -1.085  -4.403  0.00  0.00    -0.191 NA
ENDBRANCH   2  23
TORSDOF 5
