REMARK  Name = ZINC43732493
REMARK  5 active torsions:
REMARK  status: ('A' for Active; 'I' for Inactive)
REMARK    1  A    between atoms: C_16  and  C_19
REMARK    2  A    between atoms: C_19  and  C_21
REMARK    3  A    between atoms: C_19  and  O_28
REMARK    4  A    between atoms: N_31  and  C_34
REMARK    5  A    between atoms: C_34  and  C_35
REMARK                            x       y       z     vdW  Elec       q    Type
REMARK                         _______ _______ _______ _____ _____    ______ ____
ROOT
ATOM      1  C   UNL     1      -0.017   1.378   0.010  0.00  0.00    +0.002 A 
ATOM      2  C   UNL     1       1.174   2.083   0.002  0.00  0.00    +0.008 A 
ATOM      3  C   UNL     1       2.375   1.410  -0.015  0.00  0.00    +0.005 A 
ATOM      4  C   UNL     1       2.407   0.018  -0.024  0.00  0.00    +0.057 A 
ATOM      5  C   UNL     1       1.203  -0.684  -0.014  0.00  0.00    +0.062 A 
ATOM      6  C   UNL     1       0.002  -0.004   0.002  0.00  0.00    +0.022 A 
ATOM      7 CL   UNL     1       1.215  -2.420  -0.024  0.00  0.00    -0.082 Cl
ATOM      8  N   UNL     1       3.728  -0.434  -0.040  0.00  0.00    -0.282 N 
ATOM      9  C   UNL     1       4.613   0.581  -0.046  0.00  0.00    +0.243 C 
ATOM     10  O   UNL     1       5.822   0.489  -0.061  0.00  0.00    -0.273 OA
ATOM     11  C   UNL     1       3.810   1.853  -0.030  0.00  0.00    +0.136 C 
ATOM     12  C   UNL     1       4.149   2.714   1.193  0.00  0.00    +0.123 C 
ATOM     13  C   UNL     1       5.165   3.763   0.663  0.00  0.00    +0.110 C 
ATOM     14  C   UNL     1       5.357   3.413  -0.827  0.00  0.00    +0.101 C 
ATOM     15  N   UNL     1       4.106   2.691  -1.208  0.00  0.00    -0.293 NA
ATOM     16  C   UNL     1       4.418   5.070   0.793  0.00  0.00    +0.227 C 
ATOM     17  O   UNL     1       4.849   6.158   0.478  0.00  0.00    -0.275 OA
ATOM     18  N   UNL     1       3.205   4.839   1.308  0.00  0.00    -0.239 N 
ATOM     19  C   UNL     1       2.944   3.540   1.583  0.00  0.00    +0.228 C 
ATOM     20  O   UNL     1       1.918   3.103   2.059  0.00  0.00    -0.275 OA
ATOM     21  H   UNL     1       3.980  -1.371  -0.046  0.00  0.00    +0.155 HD
ATOM     22  H   UNL     1       4.257   2.122  -2.027  0.00  0.00    +0.124 HD
ENDROOT
BRANCH  14  23
ATOM     23  C   UNL     1       5.493   4.689  -1.661  0.00  0.00    +0.162 C 
BRANCH  23  24
ATOM     24  C   UNL     1       5.679   4.324  -3.111  0.00  0.00    -0.018 A 
ATOM     25  C   UNL     1       6.921   3.926  -3.570  0.00  0.00    +0.007 A 
ATOM     26  C   UNL     1       7.092   3.592  -4.900  0.00  0.00    +0.020 A 
ATOM     27  C   UNL     1       6.020   3.655  -5.772  0.00  0.00    +0.041 A 
ATOM     28  C   UNL     1       4.777   4.053  -5.312  0.00  0.00    +0.020 A 
ATOM     29  C   UNL     1       4.606   4.382  -3.981  0.00  0.00    +0.007 A 
ATOM     30 CL   UNL     1       6.234   3.236  -7.443  0.00  0.00    -0.084 Cl
ENDBRANCH  23  24
BRANCH  23  31
ATOM     31  O   UNL     1       6.625   5.434  -1.208  0.00  0.00    -0.386 OA
ATOM     32  H   UNL     1       7.464   4.957  -1.277  0.00  0.00    +0.210 HD
ENDBRANCH  23  31
ENDBRANCH  14  23
BRANCH  18  33
ATOM     33  C   UNL     1       2.236   5.908   1.563  0.00  0.00    +0.148 C 
BRANCH  33  34
ATOM     34  C   UNL     1       1.364   6.113   0.323  0.00  0.00    +0.136 C 
ATOM     35  C   UNL     1       0.354   7.264   0.559  0.00  0.00    +0.035 C 
ATOM     36  C   UNL     1       0.077   7.717  -0.900  0.00  0.00    +0.031 C 
ATOM     37  C   UNL     1       1.444   7.489  -1.580  0.00  0.00    +0.160 C 
ATOM     38  O   UNL     1       2.170   6.540  -0.787  0.00  0.00    -0.375 OA
ENDBRANCH  33  34
ENDBRANCH  18  33
TORSDOF 5
