REMARK  Name = ZINC04185036
REMARK  6 active torsions:
REMARK  status: ('A' for Active; 'I' for Inactive)
REMARK    1  A    between atoms: C_4  and  N_7
REMARK    2  A    between atoms: N_9  and  C_30
REMARK    3  A    between atoms: C_18  and  C_20
REMARK    4  A    between atoms: C_30  and  C_31
REMARK    5  A    between atoms: N_33  and  C_34
REMARK    6  A    between atoms: C_34  and  C_35
REMARK                            x       y       z     vdW  Elec       q    Type
REMARK                         _______ _______ _______ _____ _____    ______ ____
ROOT
ATOM      1  N   UNL     1       3.620  -0.649  -0.036  0.00  0.00    -0.300 N 
ATOM      2  C   UNL     1       4.960  -0.060  -0.142  0.00  0.00    +0.217 C 
ATOM      3  N   UNL     1       5.937  -1.148  -0.117  0.00  0.00    -0.275 N 
ATOM      4  C   UNL     1       5.312  -2.332  -0.007  0.00  0.00    +0.241 C 
ATOM      5  O   UNL     1       5.858  -3.414   0.039  0.00  0.00    -0.273 OA
ATOM      6  C   UNL     1       3.825  -2.100   0.056  0.00  0.00    +0.115 C 
ATOM      7  C   UNL     1       3.266  -2.621   1.380  0.00  0.00    +0.054 C 
ATOM      8  C   UNL     1       1.764  -2.328   1.448  0.00  0.00    +0.110 C 
ATOM      9  N   UNL     1       1.119  -2.886   0.252  0.00  0.00    -0.297 N 
ATOM     10  C   UNL     1       1.634  -2.507  -1.071  0.00  0.00    +0.110 C 
ATOM     11  C   UNL     1       3.137  -2.799  -1.117  0.00  0.00    +0.054 C 
ATOM     12  C   UNL     1       0.075  -3.731   0.366  0.00  0.00    +0.247 C 
ATOM     13  O   UNL     1      -0.400  -3.966   1.461  0.00  0.00    -0.270 OA
ENDROOT
BRANCH  12  14
ATOM     14  C   UNL     1      -0.492  -4.369  -0.836  0.00  0.00    +0.045 A 
ATOM     15  C   UNL     1      -0.920  -3.595  -1.905  0.00  0.00    +0.014 A 
ATOM     16  C   UNL     1      -1.455  -4.190  -3.041  0.00  0.00    +0.001 A 
ATOM     17  C   UNL     1      -1.575  -5.544  -3.138  0.00  0.00    +0.008 A 
ATOM     18  C   UNL     1      -1.155  -6.367  -2.079  0.00  0.00    -0.017 A 
ATOM     19  C   UNL     1      -0.601  -5.779  -0.915  0.00  0.00    -0.006 A 
ATOM     20  C   UNL     1      -0.178  -6.601   0.138  0.00  0.00    +0.009 A 
ATOM     21  C   UNL     1      -0.297  -7.954   0.028  0.00  0.00    +0.001 A 
ATOM     22  C   UNL     1      -0.836  -8.535  -1.118  0.00  0.00    +0.001 A 
ATOM     23  C   UNL     1      -1.269  -7.766  -2.155  0.00  0.00    +0.008 A 
ENDBRANCH  12  14
BRANCH   1  27
ATOM     24  C   UNL     1      -0.017   1.379   0.009  0.00  0.00    +0.000 A 
ATOM     25  C   UNL     1       1.169   2.089  -0.023  0.00  0.00    +0.002 A 
ATOM     26  C   UNL     1       2.377   1.420  -0.037  0.00  0.00    +0.023 A 
ATOM     27  C   UNL     1       2.400   0.031  -0.021  0.00  0.00    +0.032 A 
ATOM     28  C   UNL     1       1.207  -0.680   0.011  0.00  0.00    +0.023 A 
ATOM     29  C   UNL     1       0.002  -0.004   0.025  0.00  0.00    +0.002 A 
ENDBRANCH   1  27
BRANCH   3  30
ATOM     30  C   UNL     1       7.389  -0.972  -0.202  0.00  0.00    +0.205 C 
BRANCH  30  31
ATOM     31  C   UNL     1       7.957  -0.817   1.185  0.00  0.00    +0.231 C 
ATOM     32  O   UNL     1       7.222  -0.849   2.149  0.00  0.00    -0.274 OA
ATOM     33  N   UNL     1       9.283  -0.641   1.354  0.00  0.00    -0.312 N 
ATOM     34  H   UNL     1       9.871  -0.615   0.583  0.00  0.00    +0.149 HD
BRANCH  33  35
ATOM     35  C   UNL     1       9.836  -0.490   2.703  0.00  0.00    +0.135 C 
BRANCH  35  36
ATOM     36  C   UNL     1      11.352  -0.306   2.615  0.00  0.00    +0.135 C 
ATOM     37  C   UNL     1      11.958  -0.267   4.034  0.00  0.00    +0.035 C 
ATOM     38  C   UNL     1      13.047   0.832   3.897  0.00  0.00    +0.031 C 
ATOM     39  C   UNL     1      12.370   1.794   2.889  0.00  0.00    +0.160 C 
ATOM     40  O   UNL     1      11.654   0.941   1.978  0.00  0.00    -0.375 OA
ENDBRANCH  35  36
ENDBRANCH  33  35
ENDBRANCH  30  31
ENDBRANCH   3  30
TORSDOF 6
