REMARK  Name = ZINC57388097
REMARK  6 active torsions:
REMARK  status: ('A' for Active; 'I' for Inactive)
REMARK    1  A    between atoms: C_1  and  C_2
REMARK    2  A    between atoms: C_8  and  N_10
REMARK    3  A    between atoms: C_11  and  C_13
REMARK    4  A    between atoms: C_17  and  N_19
REMARK    5  A    between atoms: N_19  and  S_20
REMARK    6  A    between atoms: S_20  and  C_23
REMARK                            x       y       z     vdW  Elec       q    Type
REMARK                         _______ _______ _______ _____ _____    ______ ____
ROOT
ATOM      1  C   UNL     1       4.182   0.639   2.378  0.00  0.00    +0.038 A 
ATOM      2  C   UNL     1       4.789   0.993   1.171  0.00  0.00    +0.013 A 
ATOM      3  C   UNL     1       6.084   1.470   1.164  0.00  0.00    +0.003 A 
ATOM      4  C   UNL     1       6.784   1.600   2.349  0.00  0.00    +0.024 A 
ATOM      5  C   UNL     1       6.189   1.251   3.555  0.00  0.00    +0.049 A 
ATOM      6  C   UNL     1       4.886   0.777   3.574  0.00  0.00    +0.037 A 
ENDROOT
BRANCH   1   8
ATOM      7  N   UNL     1       2.116  -0.004   1.231  0.00  0.00    -0.308 N 
ATOM      8  C   UNL     1       2.795   0.128   2.388  0.00  0.00    +0.244 C 
ATOM      9  O   UNL     1       2.267  -0.174   3.440  0.00  0.00    -0.270 OA
ATOM     10  H   UNL     1       2.538   0.237   0.392  0.00  0.00    +0.149 HD
BRANCH   7  17
ATOM     11  C   UNL     1      -0.019   1.526   0.010  0.00  0.00    +0.009 C 
ATOM     12  C   UNL     1       0.002  -0.004   0.002  0.00  0.00    +0.006 C 
ATOM     13  C   UNL     1      -1.433  -0.534   0.013  0.00  0.00    +0.005 C 
ATOM     14  C   UNL     1      -1.413  -2.063   0.004  0.00  0.00    +0.000 C 
ATOM     15  C   UNL     1      -0.673  -2.570   1.244  0.00  0.00    +0.002 C 
ATOM     16  C   UNL     1       0.763  -2.041   1.233  0.00  0.00    +0.022 C 
ATOM     17  C   UNL     1       0.742  -0.511   1.242  0.00  0.00    +0.076 C 
ENDBRANCH   7  17
ENDBRANCH   1   8
BRANCH   5  18
ATOM     18  N   UNL     1       6.901   1.384   4.750  0.00  0.00    -0.216 N 
ATOM     19  H   UNL     1       6.884   0.671   5.407  0.00  0.00    +0.174 HD
BRANCH  18  20
ATOM     20  S   UNL     1       7.776   2.760   5.044  0.00  0.00    +0.072 S 
ATOM     21  O   UNL     1       8.355   2.605   6.332  0.00  0.00    -0.150 OA
ATOM     22  O   UNL     1       8.557   3.001   3.881  0.00  0.00    -0.150 OA
BRANCH  20  23
ATOM     23  C   UNL     1       6.628   4.091   5.164  0.00  0.00    +0.112 A 
ATOM     24  C   UNL     1       6.271   4.798   4.031  0.00  0.00    +0.032 A 
ATOM     25  C   UNL     1       5.371   5.845   4.117  0.00  0.00    +0.051 A 
ATOM     26  C   UNL     1       4.825   6.181   5.345  0.00  0.00    +0.162 A 
ATOM     27  C   UNL     1       5.183   5.471   6.482  0.00  0.00    +0.164 A 
ATOM     28  C   UNL     1       6.081   4.421   6.391  0.00  0.00    +0.078 A 
ATOM     29  O   UNL     1       4.639   5.810   7.687  0.00  0.00    -0.488 OA
ATOM     30  C   UNL     1       5.041   7.072   8.222  0.00  0.00    +0.232 C 
ATOM     31  C   UNL     1       4.192   8.196   7.648  0.00  0.00    +0.082 C 
ATOM     32  C   UNL     1       4.391   8.366   6.150  0.00  0.00    +0.232 C 
ATOM     33  O   UNL     1       3.934   7.210   5.444  0.00  0.00    -0.488 OA
ENDBRANCH  20  23
ENDBRANCH  18  20
ENDBRANCH   5  18
TORSDOF 5
