REMARK  Name = ZINC06196733
REMARK  11 active torsions:
REMARK  status: ('A' for Active; 'I' for Inactive)
REMARK    1  A    between atoms: C_1  and  C_2
REMARK    2  A    between atoms: C_2  and  O_3
REMARK    3  A    between atoms: O_3  and  C_4
REMARK    4  A    between atoms: C_11  and  C_16
REMARK    5  A    between atoms: C_16  and  N_62
REMARK    6  A    between atoms: C_17  and  C_18
REMARK    7  A    between atoms: C_17  and  N_62
REMARK    8  A    between atoms: C_23  and  C_24
REMARK    9  A    between atoms: C_23  and  N_62
REMARK   10  A    between atoms: N_28  and  C_29
REMARK   11  A    between atoms: C_29  and  C_30
REMARK                            x       y       z     vdW  Elec       q    Type
REMARK                         _______ _______ _______ _____ _____    ______ ____
ROOT
ATOM      1  N   UNL     1      -1.589  -0.964  -1.427  0.00  0.00    +0.390 N 
ATOM      2  H   UNL     1      -1.638  -0.031  -1.853  0.00  0.00    -0.080 HD
ENDROOT
BRANCH   1   3
ATOM      3  C   UNL     1      -2.891  -1.641  -1.600  0.00  0.00    -0.036 C 
BRANCH   3  11
ATOM      4  C   UNL     1      -3.907  -2.862  -7.592  0.00  0.00    +0.121 A 
ATOM      5  C   UNL     1      -4.540  -1.656  -7.885  0.00  0.00    +0.047 A 
ATOM      6  C   UNL     1      -4.722  -0.703  -6.908  0.00  0.00    +0.030 A 
ATOM      7  C   UNL     1      -4.271  -0.940  -5.613  0.00  0.00    +0.049 A 
ATOM      8  C   UNL     1      -3.631  -2.157  -5.313  0.00  0.00    +0.002 A 
ATOM      9  C   UNL     1      -3.452  -3.117  -6.314  0.00  0.00    +0.055 A 
ATOM     10  C   UNL     1      -3.162  -2.394  -3.946  0.00  0.00    +0.017 A 
ATOM     11  C   UNL     1      -3.362  -1.428  -3.016  0.00  0.00    +0.001 A 
ATOM     12  C   UNL     1      -4.015  -0.227  -3.367  0.00  0.00    +0.251 A 
ATOM     13  O   UNL     1      -4.189   0.625  -2.513  0.00  0.00    -0.268 OA
ATOM     14  N   UNL     1      -4.444   0.002  -4.620  0.00  0.00    -0.322 N 
ATOM     15  H   UNL     1      -4.894   0.869  -4.836  0.00  0.00    +0.169 HD
BRANCH   4  16
ATOM     16  O   UNL     1      -3.736  -3.792  -8.569  0.00  0.00    -0.492 OA
BRANCH  16  18
ATOM     17  C   UNL     1      -3.949  -4.622 -10.829  0.00  0.00    +0.048 C 
ATOM     18  C   UNL     1      -4.230  -3.464  -9.870  0.00  0.00    +0.225 C 
ENDBRANCH  16  18
ENDBRANCH   4  16
ENDBRANCH   3  11
ENDBRANCH   1   3
BRANCH   1  19
ATOM     19  C   UNL     1      -0.523  -1.741  -2.094  0.00  0.00    -0.035 C 
BRANCH  19  20
ATOM     20  C   UNL     1      -0.282  -3.039  -1.367  0.00  0.00    -0.027 A 
ATOM     21  C   UNL     1      -0.891  -4.238  -1.536  0.00  0.00    +0.009 A 
ATOM     22  C   UNL     1      -0.502  -5.305  -0.747  0.00  0.00    +0.008 A 
ATOM     23  C   UNL     1       0.477  -5.120   0.172  0.00  0.00    +0.045 A 
ATOM     24  S   UNL     1       0.886  -3.399  -0.066  0.00  0.00    -0.103 S 
ENDBRANCH  19  20
ENDBRANCH   1  19
BRANCH   1  25
ATOM     25  C   UNL     1      -1.282  -0.819   0.012  0.00  0.00    +0.001 C 
BRANCH  25  26
ATOM     26  C   UNL     1      -0.232   0.249   0.176  0.00  0.00    +0.135 A 
ATOM     27  N   UNL     1       1.061   0.065   0.284  0.00  0.00    -0.115 NA
ATOM     28  N   UNL     1       1.619   1.220   0.408  0.00  0.00    -0.023 NA
ATOM     29  N   UNL     1       0.715   2.136   0.382  0.00  0.00    -0.044 NA
ATOM     30  N   UNL     1      -0.440   1.578   0.241  0.00  0.00    -0.229 N 
BRANCH  30  31
ATOM     31  C   UNL     1      -1.734   2.261   0.165  0.00  0.00    +0.178 C 
BRANCH  31  32
ATOM     32  C   UNL     1      -2.248   2.537   1.580  0.00  0.00    +0.140 C 
ATOM     33  C   UNL     1      -3.613   3.267   1.523  0.00  0.00    +0.035 C 
ATOM     34  C   UNL     1      -4.217   2.867   2.898  0.00  0.00    +0.031 C 
ATOM     35  C   UNL     1      -3.666   1.439   3.097  0.00  0.00    +0.160 C 
ATOM     36  O   UNL     1      -2.508   1.302   2.265  0.00  0.00    -0.375 OA
ENDBRANCH  31  32
ENDBRANCH  30  31
ENDBRANCH  25  26
ENDBRANCH   1  25
TORSDOF 10
