REMARK  Name = ZINC56045443
REMARK  7 active torsions:
REMARK  status: ('A' for Active; 'I' for Inactive)
REMARK    1  A    between atoms: C_1  and  C_2
REMARK    2  A    between atoms: C_5  and  C_8
REMARK    3  A    between atoms: C_10  and  C_20
REMARK    4  A    between atoms: C_11  and  C_16
REMARK    5  A    between atoms: C_16  and  O_18
REMARK    6  A    between atoms: O_18  and  C_19
REMARK    7  A    between atoms: C_20  and  C_22
REMARK                            x       y       z     vdW  Elec       q    Type
REMARK                         _______ _______ _______ _____ _____    ______ ____
ROOT
ATOM      1  C   UNL     1       0.238  -3.908  -0.031  0.00  0.00    +0.173 C 
ATOM      2  C   UNL     1       1.581  -4.572   0.077  0.00  0.00    +0.057 C 
ATOM      3  C   UNL     1       1.863  -5.408   1.104  0.00  0.00    +0.127 C 
ATOM      4  N   UNL     1       0.893  -5.662   2.060  0.00  0.00    -0.288 N 
ATOM      5  C   UNL     1      -0.422  -5.363   1.786  0.00  0.00    +0.166 C 
ATOM      6  S   UNL     1      -1.693  -6.086   2.769  0.00  0.00    -0.014 SA
ATOM      7  N   UNL     1      -0.746  -4.561   0.823  0.00  0.00    -0.250 NA
ATOM      8  H   UNL     1       1.140  -6.048   2.915  0.00  0.00    +0.154 HD
ENDROOT
BRANCH   1  13
ATOM      9  C   UNL     1       0.729   1.629   1.548  0.00  0.00    +0.044 C 
ATOM     10  C   UNL     1       0.601   0.185   1.136  0.00  0.00    -0.050 A 
ATOM     11  C   UNL     1       0.530  -0.148  -0.203  0.00  0.00    +0.004 A 
ATOM     12  C   UNL     1       0.413  -1.472  -0.581  0.00  0.00    +0.006 A 
ATOM     13  C   UNL     1       0.367  -2.464   0.381  0.00  0.00    -0.019 A 
ATOM     14  C   UNL     1       0.439  -2.131   1.721  0.00  0.00    +0.006 A 
ATOM     15  C   UNL     1       0.560  -0.807   2.098  0.00  0.00    +0.004 A 
ENDBRANCH   1  13
BRANCH   3  16
ATOM     16  C   UNL     1       3.194  -6.047   1.203  0.00  0.00    +0.354 C 
ATOM     17  O   UNL     1       4.002  -5.909   0.307  0.00  0.00    -0.244 OA
BRANCH  16  18
ATOM     18  O   UNL     1       3.510  -6.780   2.288  0.00  0.00    -0.464 OA
ATOM     19  C   UNL     1       4.813  -7.367   2.317  0.00  0.00    +0.280 C 
ENDBRANCH  16  18
ENDBRANCH   3  16
BRANCH   2  20
ATOM     20  C   UNL     1       2.601  -4.310  -0.943  0.00  0.00    +0.200 C 
ATOM     21  O   UNL     1       3.619  -3.707  -0.648  0.00  0.00    -0.286 OA
BRANCH  20  22
ATOM     22  C   UNL     1       2.398  -4.774  -2.318  0.00  0.00    +0.059 A 
ATOM     23  C   UNL     1       3.173  -4.536  -3.447  0.00  0.00    +0.019 A 
ATOM     24  C   UNL     1       2.724  -5.111  -4.610  0.00  0.00    +0.008 A 
ATOM     25  C   UNL     1       1.587  -5.852  -4.584  0.00  0.00    +0.046 A 
ATOM     26  S   UNL     1       1.096  -5.797  -2.978  0.00  0.00    -0.093 S 
ENDBRANCH  20  22
ENDBRANCH   2  20
TORSDOF 5
