REMARK  Name = ZINC10007442
REMARK  8 active torsions:
REMARK  status: ('A' for Active; 'I' for Inactive)
REMARK    1  A    between atoms: C_1  and  C_2
REMARK    2  A    between atoms: C_2  and  C_3
REMARK    3  A    between atoms: C_3  and  N_4
REMARK    4  A    between atoms: C_14  and  S_17
REMARK    5  A    between atoms: S_17  and  C_18
REMARK    6  A    between atoms: C_18  and  C_19
REMARK    7  A    between atoms: N_21  and  C_22
REMARK    8  A    between atoms: C_28  and  C_30
REMARK                            x       y       z     vdW  Elec       q    Type
REMARK                         _______ _______ _______ _____ _____    ______ ____
ROOT
ATOM      1  N   UNL     1       3.622  -8.115   4.848  0.00  0.00    -0.323 N 
ATOM      2  C   UNL     1       3.027  -9.292   4.422  0.00  0.00    +0.053 A 
ATOM      3  C   UNL     1       3.350 -10.630   4.624  0.00  0.00    +0.026 A 
ATOM      4  C   UNL     1       2.566 -11.620   4.072  0.00  0.00    +0.002 A 
ATOM      5  C   UNL     1       1.452 -11.296   3.313  0.00  0.00    +0.001 A 
ATOM      6  C   UNL     1       1.115  -9.976   3.102  0.00  0.00    +0.012 A 
ATOM      7  C   UNL     1       1.899  -8.966   3.654  0.00  0.00    +0.029 A 
ATOM      8  C   UNL     1       1.827  -7.494   3.626  0.00  0.00    +0.138 A 
ATOM      9  C   UNL     1       2.921  -7.029   4.384  0.00  0.00    +0.165 A 
ATOM     10  N   UNL     1       3.086  -5.717   4.515  0.00  0.00    -0.201 NA
ATOM     11  C   UNL     1       2.223  -4.893   3.935  0.00  0.00    +0.212 A 
ATOM     12  N   UNL     1       1.195  -5.356   3.230  0.00  0.00    -0.122 NA
ATOM     13  N   UNL     1       1.000  -6.620   3.072  0.00  0.00    -0.143 NA
ENDROOT
BRANCH   1  14
ATOM     14  C   UNL     1       4.828  -8.040   5.676  0.00  0.00    +0.123 C 
BRANCH  14  16
ATOM     15  C   UNL     1       5.691  -7.953   8.019  0.00  0.00    +0.005 C 
ATOM     16  C   UNL     1       4.432  -8.031   7.154  0.00  0.00    +0.018 C 
ENDBRANCH  14  16
ENDBRANCH   1  14
BRANCH  11  17
ATOM     17  S   UNL     1       2.438  -3.153   4.109  0.00  0.00    -0.075 S 
BRANCH  17  18
ATOM     18  C   UNL     1       1.023  -2.564   3.147  0.00  0.00    +0.173 C 
BRANCH  18  19
ATOM     19  C   UNL     1       1.002  -1.057   3.155  0.00  0.00    +0.224 C 
ATOM     20  O   UNL     1       1.860  -0.442   3.752  0.00  0.00    -0.275 OA
ATOM     21  N   UNL     1       0.031  -0.392   2.498  0.00  0.00    -0.312 N 
ATOM     22  H   UNL     1      -0.655  -0.884   2.020  0.00  0.00    +0.149 HD
BRANCH  21  23
ATOM     23  C   UNL     1       0.011   1.072   2.506  0.00  0.00    +0.076 C 
ATOM     24  C   UNL     1      -0.705   1.566   3.765  0.00  0.00    +0.022 C 
ATOM     25  C   UNL     1      -0.726   3.096   3.774  0.00  0.00    +0.002 C 
ATOM     26  C   UNL     1      -1.466   3.603   2.534  0.00  0.00    +0.000 C 
ATOM     27  C   UNL     1      -0.750   3.109   1.275  0.00  0.00    +0.005 C 
ATOM     28  C   UNL     1      -0.729   1.579   1.267  0.00  0.00    +0.006 C 
ATOM     29  C   UNL     1      -0.013   1.086   0.008  0.00  0.00    +0.009 C 
ENDBRANCH  21  23
ENDBRANCH  18  19
ENDBRANCH  17  18
ENDBRANCH  11  17
TORSDOF 6
