REMARK  Name = ZINC09615237
REMARK  7 active torsions:
REMARK  status: ('A' for Active; 'I' for Inactive)
REMARK    1  A    between atoms: C_1  and  C_2
REMARK    2  A    between atoms: C_2  and  O_3
REMARK    3  A    between atoms: O_3  and  C_4
REMARK    4  A    between atoms: C_11  and  C_40
REMARK    5  A    between atoms: N_18  and  C_19
REMARK    6  A    between atoms: C_23  and  C_25
REMARK    7  A    between atoms: N_30  and  C_33
REMARK                            x       y       z     vdW  Elec       q    Type
REMARK                         _______ _______ _______ _____ _____    ______ ____
ROOT
ATOM      1  C   UNL     1       1.469  -1.425   2.717  0.00  0.00    +0.042 A 
ATOM      2  C   UNL     1       0.398  -2.286   2.506  0.00  0.00    +0.024 A 
ATOM      3  C   UNL     1      -0.179  -2.951   3.570  0.00  0.00    +0.003 A 
ATOM      4  C   UNL     1       0.304  -2.768   4.850  0.00  0.00    +0.013 A 
ATOM      5  C   UNL     1       1.379  -1.906   5.072  0.00  0.00    +0.039 A 
ATOM      6  C   UNL     1       1.965  -1.238   3.997  0.00  0.00    +0.036 A 
ENDROOT
BRANCH   1  20
ATOM      7  C   UNL     1       1.092  -2.414  -2.108  0.00  0.00    +0.162 A 
ATOM      8  C   UNL     1       0.534  -1.837  -3.235  0.00  0.00    +0.049 A 
ATOM      9  C   UNL     1       0.788  -0.510  -3.530  0.00  0.00    +0.004 A 
ATOM     10  C   UNL     1       1.592   0.241  -2.693  0.00  0.00    +0.009 A 
ATOM     11  C   UNL     1       2.146  -0.330  -1.561  0.00  0.00    +0.018 A 
ATOM     12  C   UNL     1       1.903  -1.656  -1.261  0.00  0.00    +0.170 A 
ATOM     13  O   UNL     1       2.435  -2.256  -0.164  0.00  0.00    -0.464 OA
ATOM     14  C   UNL     1       3.053  -1.443   0.829  0.00  0.00    +0.185 C 
ATOM     15  C   UNL     1       3.946  -0.407   0.131  0.00  0.00    +0.096 C 
ATOM     16  C   UNL     1       3.012   0.523  -0.661  0.00  0.00    +0.114 C 
ATOM     17  N   UNL     1       2.122   1.187   0.306  0.00  0.00    -0.292 N 
ATOM     18  C   UNL     1       1.669   0.506   1.371  0.00  0.00    +0.310 C 
ATOM     19  O   UNL     1       0.884   1.050   2.124  0.00  0.00    -0.252 OA
ATOM     20  N   UNL     1       2.051  -0.753   1.635  0.00  0.00    -0.216 N 
ATOM     21  C   UNL     1       3.913  -2.321   1.741  0.00  0.00    +0.079 C 
ATOM     22  H   UNL     1       1.830   2.237   0.154  0.00  0.00    +0.151 HD
BRANCH   7  23
ATOM     23  O   UNL     1       0.846  -3.721  -1.823  0.00  0.00    -0.489 OA
BRANCH  23  25
ATOM     24  C   UNL     1      -0.152  -5.880  -2.249  0.00  0.00    +0.048 C 
ATOM     25  C   UNL     1       0.008  -4.437  -2.732  0.00  0.00    +0.226 C 
ENDBRANCH  23  25
ENDBRANCH   7  23
ENDBRANCH   1  20
BRANCH   5  26
ATOM     26  C   UNL     1       1.899  -1.707   6.442  0.00  0.00    +0.247 C 
ATOM     27  O   UNL     1       2.159  -0.588   6.837  0.00  0.00    -0.270 OA
ATOM     28  N   UNL     1       2.086  -2.768   7.252  0.00  0.00    -0.295 N 
ATOM     29  C   UNL     1       1.699  -4.121   6.826  0.00  0.00    +0.127 C 
ATOM     30  C   UNL     1       2.900  -5.056   7.041  0.00  0.00    +0.124 C 
ATOM     31  N   UNL     1       3.353  -4.950   8.435  0.00  0.00    -0.327 N 
ATOM     32  C   UNL     1       3.833  -3.596   8.738  0.00  0.00    +0.124 C 
ATOM     33  C   UNL     1       2.676  -2.602   8.589  0.00  0.00    +0.127 C 
BRANCH  31  34
ATOM     34  C   UNL     1       4.335  -5.905   8.716  0.00  0.00    +0.030 A 
ATOM     35  C   UNL     1       5.570  -5.507   9.210  0.00  0.00    +0.026 A 
ATOM     36  C   UNL     1       6.537  -6.452   9.492  0.00  0.00    +0.040 A 
ATOM     37  C   UNL     1       6.279  -7.795   9.274  0.00  0.00    +0.124 A 
ATOM     38  C   UNL     1       5.049  -8.194   8.777  0.00  0.00    +0.040 A 
ATOM     39  C   UNL     1       4.077  -7.252   8.498  0.00  0.00    +0.026 A 
ATOM     40  F   UNL     1       7.227  -8.717   9.546  0.00  0.00    -0.205 F 
ENDBRANCH  31  34
ENDBRANCH   5  26
TORSDOF 5
