REMARK  Name = ZINC12475309
REMARK  8 active torsions:
REMARK  status: ('A' for Active; 'I' for Inactive)
REMARK    1  A    between atoms: C_1  and  C_2
REMARK    2  A    between atoms: C_5  and  C_26
REMARK    3  A    between atoms: C_6  and  N_8
REMARK    4  A    between atoms: C_9  and  C_11
REMARK    5  A    between atoms: C_13  and  C_17
REMARK    6  A    between atoms: C_19  and  C_25
REMARK    7  A    between atoms: C_21  and  C_24
REMARK    8  A    between atoms: C_22  and  O_23
REMARK                            x       y       z     vdW  Elec       q    Type
REMARK                         _______ _______ _______ _____ _____    ______ ____
ROOT
ATOM      1  C   UNL     1       0.276  -2.885   4.827  0.00  0.00    +0.148 A 
ATOM      2  C   UNL     1       0.381  -2.331   6.122  0.00  0.00    +0.062 A 
ATOM      3  C   UNL     1       0.476  -3.399   6.969  0.00  0.00    +0.070 A 
ATOM      4  N   UNL     1       0.428  -4.521   6.195  0.00  0.00    -0.276 N 
ATOM      5  H   UNL     1       0.474  -5.431   6.529  0.00  0.00    +0.189 HD
ATOM      6  N   UNL     1       0.306  -4.197   4.958  0.00  0.00    -0.169 NA
ENDROOT
BRANCH   3   7
ATOM      7  C   UNL     1       0.608  -3.349   8.441  0.00  0.00    +0.042 A 
ATOM      8  C   UNL     1       1.418  -2.384   9.040  0.00  0.00    +0.017 A 
ATOM      9  C   UNL     1       1.536  -2.341  10.414  0.00  0.00    -0.049 A 
ATOM     10  C   UNL     1       0.854  -3.252  11.201  0.00  0.00    +0.010 A 
ATOM     11  C   UNL     1       0.048  -4.213  10.619  0.00  0.00    -0.008 A 
ATOM     12  C   UNL     1      -0.085  -4.265   9.241  0.00  0.00    +0.129 A 
ATOM     13  C   UNL     1      -0.691  -5.201  11.484  0.00  0.00    +0.047 C 
ATOM     14  C   UNL     1       2.411  -1.298  11.060  0.00  0.00    +0.044 C 
BRANCH  12  15
ATOM     15  O   UNL     1      -0.881  -5.205   8.668  0.00  0.00    -0.506 OA
ATOM     16  H   UNL     1      -0.425  -6.032   8.460  0.00  0.00    +0.292 HD
ENDBRANCH  12  15
ENDBRANCH   3   7
BRANCH   1  18
ATOM     17  N   UNL     1       0.050  -2.797   2.392  0.00  0.00    -0.280 N 
ATOM     18  C   UNL     1       0.149  -2.135   3.561  0.00  0.00    +0.268 C 
ATOM     19  O   UNL     1       0.133  -0.919   3.574  0.00  0.00    -0.268 OA
ATOM     20  H   UNL     1      -0.018  -3.765   2.387  0.00  0.00    +0.155 HD
BRANCH  17  26
ATOM     21  C   UNL     1       1.263   1.227  -0.158  0.00  0.00    +0.044 C 
ATOM     22  C   UNL     1       0.627  -0.137  -0.079  0.00  0.00    -0.049 A 
ATOM     23  C   UNL     1       0.038  -0.690  -1.201  0.00  0.00    +0.004 A 
ATOM     24  C   UNL     1      -0.546  -1.941  -1.133  0.00  0.00    +0.005 A 
ATOM     25  C   UNL     1      -0.544  -2.643   0.057  0.00  0.00    -0.029 A 
ATOM     26  C   UNL     1       0.046  -2.090   1.185  0.00  0.00    +0.037 A 
ATOM     27  C   UNL     1       0.638  -0.835   1.112  0.00  0.00    +0.027 A 
ATOM     28  C   UNL     1      -1.182  -4.006   0.130  0.00  0.00    +0.045 C 
ENDBRANCH  17  26
ENDBRANCH   1  18
TORSDOF 4
