REMARK  Name = ZINC20736460
REMARK  12 active torsions:
REMARK  status: ('A' for Active; 'I' for Inactive)
REMARK    1  A    between atoms: C_1  and  C_2
REMARK    2  A    between atoms: C_5  and  C_38
REMARK    3  A    between atoms: N_8  and  C_10
REMARK    4  A    between atoms: C_10  and  C_11
REMARK    5  A    between atoms: C_11  and  C_12
REMARK    6  A    between atoms: C_12  and  N_13
REMARK    7  A    between atoms: C_14  and  C_16
REMARK    8  A    between atoms: C_26  and  C_27
REMARK    9  A    between atoms: C_30  and  O_35
REMARK   10  A    between atoms: C_31  and  O_33
REMARK   11  A    between atoms: O_33  and  C_34
REMARK   12  A    between atoms: O_35  and  C_36
REMARK                            x       y       z     vdW  Elec       q    Type
REMARK                         _______ _______ _______ _____ _____    ______ ____
ROOT
ATOM      1  C   UNL     1      -4.272  -6.269  -2.068  0.00  0.00    +0.039 A 
ATOM      2  C   UNL     1      -2.968  -6.752  -1.922  0.00  0.00    +0.014 A 
ATOM      3  C   UNL     1      -2.742  -8.110  -1.912  0.00  0.00    +0.017 A 
ATOM      4  C   UNL     1      -3.804  -8.995  -2.044  0.00  0.00    +0.034 A 
ATOM      5  C   UNL     1      -5.115  -8.529  -2.190  0.00  0.00    +0.048 A 
ATOM      6  C   UNL     1      -5.339  -7.158  -2.196  0.00  0.00    +0.037 A 
ATOM      7  N   UNL     1      -6.207  -9.378  -2.323  0.00  0.00    -0.280 N 
ATOM      8  C   UNL     1      -6.265 -10.664  -1.966  0.00  0.00    +0.255 C 
ATOM      9  O   UNL     1      -7.317 -11.269  -2.058  0.00  0.00    -0.269 OA
ATOM     10  C   UNL     1      -5.063 -11.359  -1.460  0.00  0.00    +0.075 C 
ATOM     11  C   UNL     1      -5.147 -12.411  -0.609  0.00  0.00    +0.028 C 
ATOM     12  S   UNL     1      -3.503 -10.738  -2.031  0.00  0.00    -0.082 S 
ATOM     13  H   UNL     1      -7.145  -9.005  -2.761  0.00  0.00    +0.155 HD
ENDROOT
BRANCH  11  14
ATOM     14  C   UNL     1      -6.441 -12.769  -0.011  0.00  0.00    -0.020 A 
ATOM     15  C   UNL     1      -7.355 -11.768   0.339  0.00  0.00    +0.012 A 
ATOM     16  C   UNL     1      -8.569 -12.108   0.894  0.00  0.00    +0.050 A 
ATOM     17  C   UNL     1      -8.885 -13.441   1.119  0.00  0.00    +0.162 A 
ATOM     18  C   UNL     1      -7.978 -14.444   0.779  0.00  0.00    +0.162 A 
ATOM     19  C   UNL     1      -6.761 -14.113   0.217  0.00  0.00    +0.057 A 
BRANCH  18  20
ATOM     20  O   UNL     1      -8.292 -15.748   1.002  0.00  0.00    -0.491 OA
ATOM     21  C   UNL     1      -7.316 -16.723   0.630  0.00  0.00    +0.277 C 
ENDBRANCH  18  20
BRANCH  17  22
ATOM     22  O   UNL     1     -10.082 -13.770   1.672  0.00  0.00    -0.491 OA
ATOM     23  C   UNL     1     -10.964 -12.693   1.996  0.00  0.00    +0.277 C 
ENDBRANCH  17  22
ENDBRANCH  11  14
BRANCH   1  25
ATOM     24  N   UNL     1      -3.492  -3.954  -1.952  0.00  0.00    -0.311 N 
ATOM     25  C   UNL     1      -4.521  -4.815  -2.081  0.00  0.00    +0.244 C 
ATOM     26  O   UNL     1      -5.654  -4.393  -2.208  0.00  0.00    -0.270 OA
ATOM     27  H   UNL     1      -2.466  -4.335  -1.837  0.00  0.00    +0.149 HD
BRANCH  24  28
ATOM     28  C   UNL     1      -3.739  -2.510  -1.965  0.00  0.00    +0.102 C 
BRANCH  28  29
ATOM     29  C   UNL     1      -2.413  -1.764  -1.802  0.00  0.00    +0.000 C 
BRANCH  29  30
ATOM     30  C   UNL     1      -2.671  -0.256  -1.816  0.00  0.00    -0.077 C 
BRANCH  30  36
ATOM     31  C   UNL     1       1.482   0.229  -1.326  0.00  0.00    +0.005 C 
ATOM     32  C   UNL     1       0.576   0.851  -0.262  0.00  0.00    -0.031 C 
ATOM     33  C   UNL     1       0.453   2.357  -0.512  0.00  0.00    +0.003 C 
ATOM     34  C   UNL     1      -0.203   2.587  -1.876  0.00  0.00    -0.031 C 
ATOM     35  C   UNL     1      -1.569   1.898  -1.903  0.00  0.00    -0.076 C 
ATOM     36  N   UNL     1      -1.397   0.460  -1.660  0.00  0.00    +0.380 N 
ATOM     37  C   UNL     1      -0.813   0.211  -0.336  0.00  0.00    -0.076 C 
ATOM     38  C   UNL     1      -0.385   4.089  -2.108  0.00  0.00    +0.005 C 
ATOM     39  H   UNL     1      -0.696   0.073  -2.414  0.00  0.00    -0.082 HD
ENDBRANCH  30  36
ENDBRANCH  29  30
ENDBRANCH  28  29
ENDBRANCH  24  28
ENDBRANCH   1  25
TORSDOF 8
