REMARK  Name = ZINC39560290
REMARK  15 active torsions:
REMARK  status: ('A' for Active; 'I' for Inactive)
REMARK    1  A    between atoms: C_1  and  C_2
REMARK    2  A    between atoms: C_5  and  O_19
REMARK    3  A    between atoms: C_8  and  C_17
REMARK    4  A    between atoms: C_8  and  C_18
REMARK    5  A    between atoms: C_9  and  C_11
REMARK    6  A    between atoms: C_11  and  C_12
REMARK    7  A    between atoms: C_12  and  C_13
REMARK    8  A    between atoms: C_13  and  C_15
REMARK    9  A    between atoms: C_13  and  O_16
REMARK   10  A    between atoms: O_19  and  C_20
REMARK   11  A    between atoms: C_22  and  O_35
REMARK   12  A    between atoms: C_24  and  O_34
REMARK   13  A    between atoms: C_26  and  O_33
REMARK   14  A    between atoms: C_28  and  C_31
REMARK   15  A    between atoms: C_31  and  O_32
REMARK                            x       y       z     vdW  Elec       q    Type
REMARK                         _______ _______ _______ _____ _____    ______ ____
ROOT
ATOM      1  O   UNL     1       1.574  -2.880  -2.249  0.00  0.00    -0.345 OA
ENDROOT
BRANCH   1   5
ATOM      2  C   UNL     1      -0.696   0.926  -0.122  0.00  0.00    +0.008 C 
ATOM      3  C   UNL     1      -0.173  -0.499   0.073  0.00  0.00    -0.008 C 
ATOM      4  C   UNL     1       0.460  -0.993  -1.229  0.00  0.00    +0.035 C 
ATOM      5  C   UNL     1       0.983  -2.418  -1.033  0.00  0.00    +0.122 C 
ATOM      6  C   UNL     1       2.033  -2.428   0.080  0.00  0.00    +0.038 C 
ATOM      7  C   UNL     1       1.399  -1.933   1.382  0.00  0.00    -0.029 C 
ATOM      8  C   UNL     1       0.877  -0.509   1.187  0.00  0.00    -0.002 C 
ATOM      9  C   UNL     1       2.449  -1.943   2.495  0.00  0.00    +0.011 C 
ATOM     10  C   UNL     1       0.239  -2.854   1.767  0.00  0.00    +0.011 C 
BRANCH   8  11
ATOM     11  C   UNL     1       0.244  -0.015   2.489  0.00  0.00    +0.007 C 
BRANCH  11  12
ATOM     12  C   UNL     1       0.223   1.515   2.497  0.00  0.00    +0.031 C 
BRANCH  12  13
ATOM     13  C   UNL     1      -0.265   2.011   3.860  0.00  0.00    +0.111 C 
ATOM     14  C   UNL     1      -0.167   3.537   3.912  0.00  0.00    +0.037 C 
BRANCH  13  15
ATOM     15  O   UNL     1      -1.623   1.614   4.054  0.00  0.00    -0.392 OA
ATOM     16  H   UNL     1      -1.999   1.895   4.899  0.00  0.00    +0.210 HD
ENDBRANCH  13  15
ENDBRANCH  12  13
ENDBRANCH  11  12
ENDBRANCH   8  11
ENDBRANCH   1   5
BRANCH   1  17
ATOM     17  C   UNL     1       0.660  -3.543  -3.125  0.00  0.00    +0.282 C 
ATOM     18  C   UNL     1       1.367  -3.882  -4.440  0.00  0.00    +0.201 C 
ATOM     19  C   UNL     1       0.400  -4.646  -5.349  0.00  0.00    +0.179 C 
ATOM     20  C   UNL     1      -0.093  -5.897  -4.615  0.00  0.00    +0.177 C 
ATOM     21  C   UNL     1      -0.744  -5.480  -3.293  0.00  0.00    +0.178 C 
ATOM     22  O   UNL     1       0.200  -4.747  -2.509  0.00  0.00    -0.341 OA
BRANCH  20  23
ATOM     23  O   UNL     1      -1.052  -6.580  -5.426  0.00  0.00    -0.386 OA
ATOM     24  H   UNL     1      -0.707  -6.869  -6.282  0.00  0.00    +0.210 HD
ENDBRANCH  20  23
BRANCH  19  25
ATOM     25  O   UNL     1       1.073  -5.029  -6.550  0.00  0.00    -0.386 OA
ATOM     26  H   UNL     1       1.417  -4.284  -7.062  0.00  0.00    +0.210 HD
ENDBRANCH  19  25
BRANCH  18  27
ATOM     27  O   UNL     1       1.779  -2.676  -5.085  0.00  0.00    -0.384 OA
ATOM     28  H   UNL     1       2.391  -2.139  -4.563  0.00  0.00    +0.210 HD
ENDBRANCH  18  27
BRANCH  21  29
ATOM     29  C   UNL     1      -1.186  -6.728  -2.526  0.00  0.00    +0.190 C 
BRANCH  29  30
ATOM     30  O   UNL     1      -1.896  -6.337  -1.349  0.00  0.00    -0.392 OA
ATOM     31  H   UNL     1      -2.207  -7.079  -0.813  0.00  0.00    +0.210 HD
ENDBRANCH  29  30
ENDBRANCH  21  29
ENDBRANCH   1  17
TORSDOF 11
