REMARK  Name = ZINC38673171
REMARK  12 active torsions:
REMARK  status: ('A' for Active; 'I' for Inactive)
REMARK    1  A    between atoms: C_1  and  C_2
REMARK    2  A    between atoms: C_2  and  C_3
REMARK    3  A    between atoms: C_3  and  C_4
REMARK    4  A    between atoms: N_6  and  C_7
REMARK    5  A    between atoms: C_10  and  S_13
REMARK    6  A    between atoms: S_13  and  N_16
REMARK    7  A    between atoms: N_16  and  C_17
REMARK    8  A    between atoms: C_17  and  C_18
REMARK    9  A    between atoms: C_18  and  C_20
REMARK   10  A    between atoms: C_18  and  N_31
REMARK   11  A    between atoms: N_29  and  C_30
REMARK   12  A    between atoms: N_34  and  C_37
REMARK                            x       y       z     vdW  Elec       q    Type
REMARK                         _______ _______ _______ _____ _____    ______ ____
ROOT
ATOM      1  C   UNL     1       4.954 -10.052   0.973  0.00  0.00    +0.102 C 
ENDROOT
BRANCH   1   2
ATOM      2  C   UNL     1       6.401  -9.817   1.321  0.00  0.00    -0.029 A 
ATOM      3  C   UNL     1       7.087  -8.762   0.748  0.00  0.00    +0.007 A 
ATOM      4  C   UNL     1       8.412  -8.548   1.066  0.00  0.00    +0.024 A 
ATOM      5  C   UNL     1       9.058  -9.392   1.963  0.00  0.00    +0.033 A 
ATOM      6  C   UNL     1       8.370 -10.447   2.540  0.00  0.00    -0.026 A 
ATOM      7  C   UNL     1       7.038 -10.653   2.217  0.00  0.00    +0.010 A 
ATOM      8  C   UNL     1       9.033 -11.376   3.523  0.00  0.00    +0.038 C 
ATOM      9  C   UNL     1      10.553 -11.316   3.374  0.00  0.00    +0.024 C 
ATOM     10  C   UNL     1      10.998  -9.848   3.422  0.00  0.00    +0.105 C 
ATOM     11  N   UNL     1      10.404  -9.160   2.269  0.00  0.00    -0.333 N 
ATOM     12  C   UNL     1      11.206  -8.247   1.451  0.00  0.00    +0.129 C 
ENDBRANCH   1   2
BRANCH   1  13
ATOM     13  N   UNL     1       4.753  -9.823  -0.464  0.00  0.00    -0.298 NA
ATOM     14  C   UNL     1       3.325  -9.868  -0.810  0.00  0.00    +0.066 C 
ATOM     15  C   UNL     1       3.155  -9.566  -2.301  0.00  0.00    -0.064 C 
ATOM     16  N   UNL     1       3.900 -10.557  -3.090  0.00  0.00    +0.379 N 
ATOM     17  C   UNL     1       5.327 -10.482  -2.751  0.00  0.00    -0.064 C 
ATOM     18  C   UNL     1       5.516 -10.792  -1.264  0.00  0.00    +0.066 C 
ATOM     19  C   UNL     1       3.721 -10.277  -4.521  0.00  0.00    -0.096 C 
ATOM     20  H   UNL     1       3.553 -11.481  -2.882  0.00  0.00    -0.082 HD
ENDBRANCH   1  13
BRANCH   1  21
ATOM     21  C   UNL     1       4.074  -9.088   1.771  0.00  0.00    +0.129 C 
BRANCH  21  22
ATOM     22  N   UNL     1       4.195  -9.387   3.200  0.00  0.00    -0.188 NA
ATOM     23  H   UNL     1       4.559 -10.238   3.489  0.00  0.00    +0.148 HD
BRANCH  22  24
ATOM     24  S   UNL     1       3.709  -8.271   4.323  0.00  0.00    +0.058 S 
ATOM     25  O   UNL     1       4.295  -7.033   3.945  0.00  0.00    -0.153 OA
ATOM     26  O   UNL     1       3.925  -8.858   5.599  0.00  0.00    -0.153 OA
BRANCH  24  30
ATOM     27  C   UNL     1      -0.770  -7.774   3.867  0.00  0.00    +0.033 A 
ATOM     28  C   UNL     1      -0.260  -8.732   4.735  0.00  0.00    +0.025 A 
ATOM     29  C   UNL     1       1.106  -8.880   4.872  0.00  0.00    +0.030 A 
ATOM     30  C   UNL     1       1.966  -8.078   4.146  0.00  0.00    +0.105 A 
ATOM     31  C   UNL     1       1.463  -7.124   3.281  0.00  0.00    +0.030 A 
ATOM     32  C   UNL     1       0.097  -6.974   3.135  0.00  0.00    +0.025 A 
BRANCH  27  35
ATOM     33  C   UNL     1      -2.678  -7.307   2.525  0.00  0.00    +0.217 C 
ATOM     34  O   UNL     1      -1.946  -7.065   1.588  0.00  0.00    -0.275 OA
ATOM     35  N   UNL     1      -2.153  -7.621   3.726  0.00  0.00    -0.285 N 
ATOM     36  H   UNL     1      -2.735  -7.741   4.493  0.00  0.00    +0.155 HD
BRANCH  33  37
ATOM     37  C   UNL     1      -4.173  -7.256   2.346  0.00  0.00    +0.096 C 
BRANCH  37  39
ATOM     38  C   UNL     1      -6.019  -6.827   0.718  0.00  0.00    +0.004 C 
ATOM     39  C   UNL     1      -4.501  -6.879   0.900  0.00  0.00    +0.006 C 
ENDBRANCH  37  39
ENDBRANCH  33  37
ENDBRANCH  27  35
ENDBRANCH  24  30
ENDBRANCH  22  24
ENDBRANCH  21  22
ENDBRANCH   1  21
TORSDOF 9
