REMARK  Name = ZINC42267812
REMARK  8 active torsions:
REMARK  status: ('A' for Active; 'I' for Inactive)
REMARK    1  A    between atoms: C_1  and  N_2
REMARK    2  A    between atoms: N_2  and  C_3
REMARK    3  A    between atoms: N_2  and  C_14
REMARK    4  A    between atoms: C_3  and  C_4
REMARK    5  A    between atoms: C_4  and  O_5
REMARK    6  A    between atoms: O_5  and  C_6
REMARK    7  A    between atoms: C_9  and  C_12
REMARK    8  A    between atoms: C_14  and  C_15
REMARK                            x       y       z     vdW  Elec       q    Type
REMARK                         _______ _______ _______ _____ _____    ______ ____
ROOT
ATOM      1  C   UNL     1      -0.041   1.482   0.051  0.00  0.00    -0.096 C 
ATOM      2  N   UNL     1       0.001   0.016   0.129  0.00  0.00    +0.383 N 
ATOM      3  H   UNL     1       0.472  -0.263   0.976  0.00  0.00    -0.082 HD
ENDROOT
BRANCH   2   4
ATOM      4  C   UNL     1      -1.370  -0.513   0.133  0.00  0.00    -0.037 C 
BRANCH   4   5
ATOM      5  C   UNL     1      -1.332  -2.023   0.375  0.00  0.00    +0.210 C 
BRANCH   5   6
ATOM      6  O   UNL     1      -0.816  -2.284   1.681  0.00  0.00    -0.494 OA
BRANCH   6   7
ATOM      7  C   UNL     1      -0.716  -3.585   2.057  0.00  0.00    +0.120 A 
ATOM      8  C   UNL     1      -1.104  -4.591   1.179  0.00  0.00    +0.047 A 
ATOM      9  C   UNL     1      -1.004  -5.912   1.556  0.00  0.00    +0.022 A 
ATOM     10  C   UNL     1      -0.512  -6.240   2.822  0.00  0.00    +0.052 A 
ATOM     11  C   UNL     1      -0.123  -5.226   3.701  0.00  0.00    +0.022 A 
ATOM     12  C   UNL     1      -0.221  -3.907   3.314  0.00  0.00    +0.047 A 
BRANCH  10  13
ATOM     13  C   UNL     1      -0.407  -7.612   3.218  0.00  0.00    +0.099 C 
ATOM     14  N   UNL     1      -0.323  -8.701   3.532  0.00  0.00    -0.191 NA
ENDBRANCH  10  13
ENDBRANCH   6   7
ENDBRANCH   5   6
ENDBRANCH   4   5
ENDBRANCH   2   4
BRANCH   2  15
ATOM     15  C   UNL     1       0.727  -0.515  -1.033  0.00  0.00    -0.043 C 
BRANCH  15  16
ATOM     16  C   UNL     1       2.166  -0.071  -0.971  0.00  0.00    -0.064 A 
ATOM     17  C   UNL     1       2.547   1.119  -1.561  0.00  0.00    +0.004 A 
ATOM     18  C   UNL     1       3.867   1.527  -1.505  0.00  0.00    +0.038 A 
ATOM     19  C   UNL     1       4.806   0.743  -0.857  0.00  0.00    +0.123 A 
ATOM     20  C   UNL     1       4.423  -0.449  -0.267  0.00  0.00    +0.038 A 
ATOM     21  C   UNL     1       3.102  -0.853  -0.320  0.00  0.00    +0.004 A 
ATOM     22  F   UNL     1       6.096   1.141  -0.802  0.00  0.00    -0.205 F 
ENDBRANCH  15  16
ENDBRANCH   2  15
TORSDOF 7
