REMARK  Name = ZINC15673678
REMARK  8 active torsions:
REMARK  status: ('A' for Active; 'I' for Inactive)
REMARK    1  A    between atoms: C_3  and  C_6
REMARK    2  A    between atoms: C_6  and  N_7
REMARK    3  A    between atoms: C_8  and  C_10
REMARK    4  A    between atoms: C_10  and  C_11
REMARK    5  A    between atoms: C_16  and  C_18
REMARK    6  A    between atoms: C_18  and  C_19
REMARK    7  A    between atoms: C_21  and  C_24
REMARK    8  A    between atoms: C_24  and  C_25
REMARK                            x       y       z     vdW  Elec       q    Type
REMARK                         _______ _______ _______ _____ _____    ______ ____
ROOT
ATOM      1  C   UNL     1       1.400   3.558   0.134  0.00  0.00    -0.002 C 
ATOM      2  C   UNL     1       2.836   4.084   0.061  0.00  0.00    -0.015 C 
ATOM      3  C   UNL     1       3.471   3.641  -1.258  0.00  0.00    -0.082 C 
ATOM      4  C   UNL     1       2.093   1.649  -1.319  0.00  0.00    -0.079 C 
ATOM      5  C   UNL     1       1.417   2.032  -0.001  0.00  0.00    -0.019 C 
ATOM      6  N   UNL     1       3.474   2.168  -1.339  0.00  0.00    +0.379 N 
ATOM      7  H   UNL     1       3.991   1.786  -0.538  0.00  0.00    -0.086 HD
ATOM      8  H   UNL     1       3.932   1.878  -2.211  0.00  0.00    -0.086 HD
ENDROOT
BRANCH   1   9
ATOM      9  C   UNL     1       0.576   4.162  -1.005  0.00  0.00    +0.099 C 
BRANCH   9  11
ATOM     10  N   UNL     1      -0.230   6.398  -1.690  0.00  0.00    -0.308 N 
ATOM     11  C   UNL     1       0.458   5.651  -0.804  0.00  0.00    +0.214 C 
ATOM     12  O   UNL     1       0.981   6.177   0.156  0.00  0.00    -0.276 OA
ATOM     13  H   UNL     1      -0.648   5.977  -2.458  0.00  0.00    +0.149 HD
BRANCH  10  14
ATOM     14  C   UNL     1      -0.345   7.845  -1.495  0.00  0.00    +0.178 C 
BRANCH  14  17
ATOM     15  C   UNL     1      -2.829   9.192  -3.861  0.00  0.00    +0.041 A 
ATOM     16  C   UNL     1      -2.493   8.600  -2.622  0.00  0.00    +0.046 A 
ATOM     17  C   UNL     1      -1.157   8.440  -2.616  0.00  0.00    +0.122 A 
ATOM     18  O   UNL     1      -0.669   8.907  -3.777  0.00  0.00    -0.466 OA
ATOM     19  C   UNL     1      -1.679   9.358  -4.539  0.00  0.00    +0.195 A 
ENDBRANCH  14  17
ENDBRANCH  10  14
ENDBRANCH   9  11
ENDBRANCH   1   9
BRANCH   5  20
ATOM     20  C   UNL     1      -0.018   1.503   0.010  0.00  0.00    +0.061 C 
BRANCH  20  21
ATOM     21  C   UNL     1       0.002  -0.004   0.002  0.00  0.00    +0.084 A 
ATOM     22  C   UNL     1      -0.622  -0.865   0.934  0.00  0.00    +0.071 A 
ATOM     23  C   UNL     1      -0.312  -2.107   0.491  0.00  0.00    +0.138 A 
ATOM     24  O   UNL     1       0.439  -1.942  -0.606  0.00  0.00    -0.359 OA
ATOM     25  N   UNL     1       0.603  -0.771  -0.862  0.00  0.00    -0.083 NA
BRANCH  23  26
ATOM     26  C   UNL     1      -0.726  -3.416   1.113  0.00  0.00    +0.080 C 
BRANCH  26  27
ATOM     27  C   UNL     1      -2.055  -3.871   0.508  0.00  0.00    -0.004 C 
ATOM     28  C   UNL     1      -3.155  -2.877   0.887  0.00  0.00    +0.004 C 
ATOM     29  C   UNL     1      -4.484  -3.333   0.282  0.00  0.00    +0.000 C 
ATOM     30  C   UNL     1      -4.842  -4.719   0.820  0.00  0.00    +0.000 C 
ATOM     31  C   UNL     1      -3.742  -5.713   0.441  0.00  0.00    +0.000 C 
ATOM     32  C   UNL     1      -2.412  -5.258   1.047  0.00  0.00    +0.004 C 
ENDBRANCH  26  27
ENDBRANCH  23  26
ENDBRANCH  20  21
ENDBRANCH   5  20
TORSDOF 8
