REMARK  Name = ZINC04073938
REMARK  7 active torsions:
REMARK  status: ('A' for Active; 'I' for Inactive)
REMARK    1  A    between atoms: C_1  and  C_2
REMARK    2  A    between atoms: C_2  and  O_4
REMARK    3  A    between atoms: O_4  and  C_5
REMARK    4  A    between atoms: C_11  and  C_32
REMARK    5  A    between atoms: C_19  and  O_31
REMARK    6  A    between atoms: C_23  and  C_30
REMARK    7  A    between atoms: C_26  and  O_29
REMARK                            x       y       z     vdW  Elec       q    Type
REMARK                         _______ _______ _______ _____ _____    ______ ____
ROOT
ATOM      1  C   UNL     1      -3.833  -1.695  -2.186  0.00  0.00    +0.183 C 
ATOM      2  C   UNL     1      -2.533  -1.814  -3.020  0.00  0.00    +0.045 C 
ATOM      3  C   UNL     1      -1.775  -0.469  -2.849  0.00  0.00    +0.008 C 
ATOM      4  C   UNL     1      -2.359   0.081  -1.542  0.00  0.00    +0.002 C 
ATOM      5  C   UNL     1      -3.865  -0.236  -1.714  0.00  0.00    +0.008 C 
ATOM      6  C   UNL     1      -4.544   0.012  -0.387  0.00  0.00    +0.011 C 
ATOM      7  C   UNL     1      -4.353   1.471   0.029  0.00  0.00    +0.005 C 
ATOM      8  C   UNL     1      -2.911   1.961  -0.005  0.00  0.00    -0.001 C 
ATOM      9  C   UNL     1      -2.178   1.549  -1.273  0.00  0.00    -0.001 C 
ATOM     10  C   UNL     1      -0.707   1.948  -1.243  0.00  0.00    +0.035 C 
ATOM     11  C   UNL     1      -0.017   1.417   0.010  0.00  0.00    +0.119 C 
ATOM     12  C   UNL     1      -0.708   1.981   1.242  0.00  0.00    +0.026 C 
ATOM     13  C   UNL     1      -2.189   1.652   1.301  0.00  0.00    -0.024 C 
ATOM     14  C   UNL     1      -2.427   0.215   1.744  0.00  0.00    +0.010 C 
ATOM     15  C   UNL     1      -1.770  -0.058   3.094  0.00  0.00    +0.032 C 
ATOM     16  C   UNL     1      -0.277   0.232   3.054  0.00  0.00    +0.115 C 
ATOM     17  C   UNL     1       0.039   1.613   2.512  0.00  0.00    +0.038 C 
ATOM     18  C   UNL     1      -2.805   2.586   2.376  0.00  0.00    +0.012 C 
ATOM     19  C   UNL     1      -4.509   0.610  -2.810  0.00  0.00    +0.015 C 
ENDROOT
BRANCH  16  20
ATOM     20  O   UNL     1       0.410  -0.783   2.323  0.00  0.00    -0.392 OA
ATOM     21  H   UNL     1       0.311  -1.670   2.694  0.00  0.00    +0.210 HD
ENDBRANCH  16  20
BRANCH  11  22
ATOM     22  O   UNL     1       0.002  -0.004   0.002  0.00  0.00    -0.391 OA
ATOM     23  H   UNL     1       0.442  -0.387  -0.769  0.00  0.00    +0.210 HD
ENDBRANCH  11  22
BRANCH   1  24
ATOM     24  O   UNL     1      -4.992  -1.974  -3.013  0.00  0.00    -0.461 OA
BRANCH  24  26
ATOM     25  C   UNL     1      -6.664  -3.595  -3.833  0.00  0.00    +0.136 C 
ATOM     26  C   UNL     1      -5.463  -3.231  -2.999  0.00  0.00    +0.304 C 
ATOM     27  O   UNL     1      -4.923  -4.070  -2.318  0.00  0.00    -0.251 OA
ENDBRANCH  24  26
ENDBRANCH   1  24
TORSDOF 4
