REMARK  Name = ZINC09019700
REMARK  9 active torsions:
REMARK  status: ('A' for Active; 'I' for Inactive)
REMARK    1  A    between atoms: C_1  and  C_2
REMARK    2  A    between atoms: C_2  and  C_27
REMARK    3  A    between atoms: N_3  and  N_4
REMARK    4  A    between atoms: C_5  and  C_7
REMARK    5  A    between atoms: C_7  and  S_8
REMARK    6  A    between atoms: S_8  and  C_9
REMARK    7  A    between atoms: C_12  and  C_21
REMARK    8  A    between atoms: N_13  and  C_14
REMARK    9  A    between atoms: C_31  and  O_33
REMARK                            x       y       z     vdW  Elec       q    Type
REMARK                         _______ _______ _______ _____ _____    ______ ____
ROOT
ATOM      1  C   UNL     1      -3.841  11.855   0.102  0.00  0.00    +0.197 A 
ATOM      2  N   UNL     1      -2.675  12.463   0.095  0.00  0.00    -0.122 NA
ATOM      3  N   UNL     1      -2.841  13.738   0.103  0.00  0.00    -0.128 NA
ATOM      4  C   UNL     1      -4.122  14.024   0.117  0.00  0.00    +0.169 A 
ATOM      5  N   UNL     1      -4.804  12.827   0.111  0.00  0.00    -0.270 N 
ENDROOT
BRANCH   5   6
ATOM      6  C   UNL     1      -6.194  12.643   0.116  0.00  0.00    +0.051 A 
ATOM      7  C   UNL     1      -6.955  13.066  -0.966  0.00  0.00    +0.028 A 
ATOM      8  C   UNL     1      -8.323  12.878  -0.962  0.00  0.00    +0.022 A 
ATOM      9  C   UNL     1      -8.937  12.280   0.125  0.00  0.00    +0.041 A 
ATOM     10  C   UNL     1      -8.182  11.864   1.207  0.00  0.00    +0.022 A 
ATOM     11  C   UNL     1      -6.812  12.044   1.205  0.00  0.00    +0.028 A 
ATOM     12 CL   UNL     1     -10.658  12.053   0.131  0.00  0.00    -0.084 Cl
ENDBRANCH   5   6
BRANCH   4  13
ATOM     13  C   UNL     1      -4.720  15.376   0.129  0.00  0.00    +0.020 A 
ATOM     14  C   UNL     1      -6.068  15.543   0.449  0.00  0.00    +0.011 A 
ATOM     15  C   UNL     1      -6.619  16.808   0.463  0.00  0.00    +0.001 A 
ATOM     16  C   UNL     1      -5.840  17.909   0.151  0.00  0.00    +0.000 A 
ATOM     17  C   UNL     1      -4.504  17.749  -0.171  0.00  0.00    +0.001 A 
ATOM     18  C   UNL     1      -3.940  16.490  -0.184  0.00  0.00    +0.011 A 
ENDBRANCH   4  13
BRANCH   1  19
ATOM     19  S   UNL     1      -4.113  10.115   0.095  0.00  0.00    -0.076 S 
BRANCH  19  20
ATOM     20  C   UNL     1      -2.400   9.530   0.076  0.00  0.00    +0.174 C 
BRANCH  20  22
ATOM     21  N   UNL     1      -1.210   7.361   0.053  0.00  0.00    -0.206 N 
ATOM     22  C   UNL     1      -2.384   8.023   0.068  0.00  0.00    +0.242 C 
ATOM     23  O   UNL     1      -3.428   7.405   0.073  0.00  0.00    -0.273 OA
ATOM     24  H   UNL     1      -0.375   7.855   0.049  0.00  0.00    +0.177 HD
BRANCH  21  27
ATOM     25  C   UNL     1       1.232   6.091   0.024  0.00  0.00    +0.068 C 
ATOM     26  C   UNL     1      -0.065   5.324   0.031  0.00  0.00    +0.063 C 
ATOM     27  N   UNL     1      -1.195   5.960   0.045  0.00  0.00    -0.185 NA
BRANCH  26  28
ATOM     28  C   UNL     1      -0.049   3.849   0.023  0.00  0.00    +0.001 A 
ATOM     29  C   UNL     1       1.167   3.160   0.008  0.00  0.00    +0.010 A 
ATOM     30  C   UNL     1       1.177   1.781   0.000  0.00  0.00    +0.004 A 
ATOM     31  C   UNL     1      -0.013   1.076   0.008  0.00  0.00    +0.045 A 
ATOM     32  C   UNL     1      -1.226   1.751   0.017  0.00  0.00    +0.117 A 
ATOM     33  C   UNL     1      -1.249   3.135   0.030  0.00  0.00    +0.055 A 
BRANCH  32  34
ATOM     34  O   UNL     1      -2.392   1.052   0.019  0.00  0.00    -0.507 OA
ATOM     35  H   UNL     1      -2.725   0.845   0.903  0.00  0.00    +0.292 HD
ENDBRANCH  32  34
ENDBRANCH  26  28
ENDBRANCH  21  27
ENDBRANCH  20  22
ENDBRANCH  19  20
ENDBRANCH   1  19
TORSDOF 8
