REMARK  Name = ZINC02340399
REMARK  5 active torsions:
REMARK  status: ('A' for Active; 'I' for Inactive)
REMARK    1  A    between atoms: C_1  and  C_2
REMARK    2  A    between atoms: C_8  and  C_24
REMARK    3  A    between atoms: C_8  and  C_25
REMARK    4  A    between atoms: C_9  and  C_15
REMARK    5  A    between atoms: C_16  and  C_17
REMARK                            x       y       z     vdW  Elec       q    Type
REMARK                         _______ _______ _______ _____ _____    ______ ____
ROOT
ATOM      1  C   UNL     1       2.675   7.450  -3.057  0.00  0.00    +0.044 C 
ATOM      2  C   UNL     1       2.197   6.395  -2.094  0.00  0.00    -0.050 A 
ATOM      3  C   UNL     1       2.954   6.077  -0.981  0.00  0.00    +0.005 A 
ATOM      4  C   UNL     1       2.523   5.109  -0.099  0.00  0.00    +0.024 A 
ATOM      5  C   UNL     1       1.318   4.443  -0.323  0.00  0.00    +0.036 A 
ATOM      6  C   UNL     1       0.562   4.774  -1.440  0.00  0.00    -0.016 A 
ATOM      7  C   UNL     1       1.000   5.741  -2.321  0.00  0.00    +0.009 A 
ATOM      8  C   UNL     1      -0.687   3.916  -1.430  0.00  0.00    +0.034 C 
ATOM      9  C   UNL     1      -0.735   3.396   0.024  0.00  0.00    +0.131 C 
ATOM     10  N   UNL     1       0.697   3.436   0.426  0.00  0.00    -0.296 N 
ATOM     11  C   UNL     1       1.201   2.108   0.002  0.00  0.00    +0.203 C 
ATOM     12  C   UNL     1      -0.014   1.209   0.009  0.00  0.00    +0.232 C 
ATOM     13  O   UNL     1       0.002  -0.004   0.002  0.00  0.00    -0.274 OA
ATOM     14  N   UNL     1      -1.119   1.981   0.018  0.00  0.00    -0.289 N 
ATOM     15  C   UNL     1      -0.555   2.754  -2.416  0.00  0.00    +0.020 C 
ATOM     16  C   UNL     1      -1.928   4.753  -1.747  0.00  0.00    +0.020 C 
ATOM     17  H   UNL     1      -2.031   1.650   0.021  0.00  0.00    +0.151 HD
ENDROOT
BRANCH   9  18
ATOM     18  C   UNL     1      -1.611   4.242   0.912  0.00  0.00    +0.020 C 
ATOM     19  C   UNL     1      -1.081   4.900   1.933  0.00  0.00    +0.007 C 
BRANCH  19  20
ATOM     20  C   UNL     1      -1.940   5.730   2.804  0.00  0.00    -0.025 A 
ATOM     21  C   UNL     1      -3.309   5.826   2.550  0.00  0.00    +0.009 A 
ATOM     22  C   UNL     1      -4.107   6.597   3.369  0.00  0.00    +0.020 A 
ATOM     23  C   UNL     1      -3.551   7.284   4.435  0.00  0.00    +0.041 A 
ATOM     24  C   UNL     1      -2.192   7.197   4.688  0.00  0.00    +0.020 A 
ATOM     25  C   UNL     1      -1.385   6.424   3.879  0.00  0.00    +0.009 A 
ATOM     26 CL   UNL     1      -4.560   8.258   5.458  0.00  0.00    -0.084 Cl
ENDBRANCH  19  20
ENDBRANCH   9  18
TORSDOF 2
