REMARK  Name = ZINC15812610
REMARK  9 active torsions:
REMARK  status: ('A' for Active; 'I' for Inactive)
REMARK    1  A    between atoms: C_1  and  C_2
REMARK    2  A    between atoms: C_2  and  C_4
REMARK    3  A    between atoms: C_2  and  S_14
REMARK    4  A    between atoms: N_9  and  C_10
REMARK    5  A    between atoms: C_10  and  C_11
REMARK    6  A    between atoms: C_10  and  C_12
REMARK    7  A    between atoms: C_10  and  C_13
REMARK    8  A    between atoms: S_14  and  C_15
REMARK    9  A    between atoms: N_20  and  C_21
REMARK                            x       y       z     vdW  Elec       q    Type
REMARK                         _______ _______ _______ _____ _____    ______ ____
ROOT
ATOM      1  S   UNL     1      -1.676  -0.717   0.053  0.00  0.00    -0.084 S 
ENDROOT
BRANCH   1   2
ATOM      2  C   UNL     1      -2.304  -0.226   1.624  0.00  0.00    +0.161 A 
ATOM      3  N   UNL     1      -1.657   0.241   2.675  0.00  0.00    -0.133 NA
ATOM      4  N   UNL     1      -2.352   0.568   3.816  0.00  0.00    -0.125 NA
ATOM      5  C   UNL     1      -3.661   0.413   3.855  0.00  0.00    +0.187 A 
ATOM      6  S   UNL     1      -3.989  -0.219   2.217  0.00  0.00    -0.024 S 
ATOM      7  N   UNL     1      -4.548   0.677   4.892  0.00  0.00    -0.290 N 
ATOM      8  H   UNL     1      -5.482   0.431   4.805  0.00  0.00    +0.154 HD
BRANCH   7   9
ATOM      9  C   UNL     1      -4.095   1.298   6.060  0.00  0.00    +0.068 A 
ATOM     10  C   UNL     1      -2.807   1.814   6.119  0.00  0.00    +0.026 A 
ATOM     11  C   UNL     1      -2.361   2.427   7.274  0.00  0.00    +0.002 A 
ATOM     12  C   UNL     1      -3.195   2.525   8.373  0.00  0.00    +0.003 A 
ATOM     13  C   UNL     1      -4.479   2.012   8.320  0.00  0.00    +0.040 A 
ATOM     14  C   UNL     1      -4.934   1.404   7.165  0.00  0.00    +0.144 A 
ATOM     15  F   UNL     1      -6.189   0.908   7.111  0.00  0.00    -0.204 F 
ENDBRANCH   7   9
ENDBRANCH   1   2
BRANCH   1  17
ATOM     16  C   UNL     1       0.390   1.049   0.360  0.00  0.00    +0.029 C 
ATOM     17  C   UNL     1       0.112  -0.446   0.191  0.00  0.00    +0.136 C 
BRANCH  17  18
ATOM     18  C   UNL     1       0.794  -0.946  -1.056  0.00  0.00    +0.233 C 
ATOM     19  O   UNL     1       0.180  -1.010  -2.099  0.00  0.00    -0.274 OA
ATOM     20  N   UNL     1       2.088  -1.323  -1.012  0.00  0.00    -0.239 N 
ATOM     21  C   UNL     1       2.697  -1.771  -2.128  0.00  0.00    +0.306 C 
ATOM     22  O   UNL     1       2.081  -1.834  -3.173  0.00  0.00    -0.252 OA
ATOM     23  N   UNL     1       3.991  -2.148  -2.084  0.00  0.00    -0.294 N 
ATOM     24  H   UNL     1       2.579  -1.273  -0.178  0.00  0.00    +0.159 HD
ATOM     25  H   UNL     1       4.482  -2.097  -1.249  0.00  0.00    +0.151 HD
BRANCH  23  26
ATOM     26  C   UNL     1       4.654  -2.634  -3.296  0.00  0.00    +0.028 C 
ATOM     27  C   UNL     1       4.623  -1.541  -4.367  0.00  0.00    +0.031 C 
ATOM     28  C   UNL     1       6.106  -2.993  -2.975  0.00  0.00    +0.031 C 
ATOM     29  C   UNL     1       3.924  -3.875  -3.814  0.00  0.00    +0.031 C 
ENDBRANCH  23  26
ENDBRANCH  17  18
ENDBRANCH   1  17
TORSDOF 5
