REMARK  Name = ZINC02465363
REMARK  5 active torsions:
REMARK  status: ('A' for Active; 'I' for Inactive)
REMARK    1  A    between atoms: C_1  and  C_2
REMARK    2  A    between atoms: C_12  and  C_14
REMARK    3  A    between atoms: C_14  and  N_15
REMARK    4  A    between atoms: N_15  and  S_16
REMARK    5  A    between atoms: S_16  and  C_19
REMARK                            x       y       z     vdW  Elec       q    Type
REMARK                         _______ _______ _______ _____ _____    ______ ____
ROOT
ATOM      1  C   UNL     1      -0.018   1.503   0.010  0.00  0.00    +0.044 C 
ATOM      2  C   UNL     1       0.002  -0.004   0.002  0.00  0.00    -0.049 A 
ATOM      3  C   UNL     1       0.006  -0.698  -1.199  0.00  0.00    +0.005 A 
ATOM      4  C   UNL     1       0.024  -2.068  -1.235  0.00  0.00    +0.029 A 
ATOM      5  C   UNL     1       0.040  -2.822  -0.038  0.00  0.00    +0.080 A 
ATOM      6  C   UNL     1       0.036  -2.081   1.166  0.00  0.00    +0.041 A 
ATOM      7  C   UNL     1       0.023  -0.709   1.191  0.00  0.00    +0.020 A 
ATOM      8  S   UNL     1       0.059  -3.361   2.397  0.00  0.00    -0.052 S 
ATOM      9  C   UNL     1       0.073  -4.752   1.275  0.00  0.00    +0.165 A 
ATOM     10  N   UNL     1       0.059  -4.165   0.101  0.00  0.00    -0.225 NA
ATOM     11  N   UNL     1       0.093  -6.106   1.569  0.00  0.00    -0.264 N 
ATOM     12  C   UNL     1       0.101  -7.012   0.571  0.00  0.00    +0.234 C 
ATOM     13  O   UNL     1       0.090  -6.643  -0.584  0.00  0.00    -0.274 OA
ATOM     14  H   UNL     1       0.101  -6.402   2.493  0.00  0.00    +0.157 HD
ENDROOT
BRANCH  12  15
ATOM     15  C   UNL     1       0.122  -8.485   0.891  0.00  0.00    +0.201 C 
BRANCH  15  16
ATOM     16  N   UNL     1       0.127  -9.255  -0.355  0.00  0.00    -0.181 NA
ATOM     17  H   UNL     1      -0.100  -8.823  -1.193  0.00  0.00    +0.149 HD
BRANCH  16  18
ATOM     18  S   UNL     1       0.520 -10.864  -0.333  0.00  0.00    +0.065 S 
ATOM     19  O   UNL     1       0.409 -11.328  -1.671  0.00  0.00    -0.153 OA
ATOM     20  O   UNL     1       1.723 -10.977   0.416  0.00  0.00    -0.153 OA
BRANCH  18  21
ATOM     21  C   UNL     1      -0.729 -11.693   0.593  0.00  0.00    +0.143 A 
ATOM     22  C   UNL     1      -1.887 -12.247   0.158  0.00  0.00    +0.037 A 
ATOM     23  C   UNL     1      -2.726 -12.852   1.075  0.00  0.00    +0.025 A 
ATOM     24  C   UNL     1      -2.365 -12.874   2.382  0.00  0.00    +0.057 A 
ATOM     25  S   UNL     1      -0.794 -12.027   2.345  0.00  0.00    -0.062 S 
ATOM     26 BR   UNL     1      -3.284 -13.614   3.859  0.00  0.00    -0.043 Br
ENDBRANCH  18  21
ENDBRANCH  16  18
ENDBRANCH  15  16
ENDBRANCH  12  15
TORSDOF 4
