REMARK  Name = ZINC13940409
REMARK  2 active torsions:
REMARK  status: ('A' for Active; 'I' for Inactive)
REMARK    1  A    between atoms: C_6  and  C_7
REMARK    2  A    between atoms: C_8  and  C_9
REMARK                            x       y       z     vdW  Elec       q    Type
REMARK                         _______ _______ _______ _____ _____    ______ ____
ROOT
ATOM      1  C   UNL     1      -1.030  -4.732  -0.417  0.00  0.00    +0.183 C 
ATOM      2  N   UNL     1      -2.050  -3.723  -0.077  0.00  0.00    -0.317 N 
ATOM      3  C   UNL     1      -1.650  -2.412  -0.109  0.00  0.00    +0.080 A 
ATOM      4  C   UNL     1      -0.312  -2.021   0.050  0.00  0.00    +0.068 A 
ATOM      5  C   UNL     1      -0.056  -0.591  -0.021  0.00  0.00    -0.023 A 
ATOM      6  C   UNL     1      -1.142   0.187  -0.224  0.00  0.00    -0.005 A 
ATOM      7  S   UNL     1      -2.504  -0.945  -0.328  0.00  0.00    -0.078 S 
ATOM      8  C   UNL     1      -1.177   1.680  -0.336  0.00  0.00    +0.043 C 
ATOM      9  C   UNL     1       0.156   2.236   0.183  0.00  0.00    +0.005 C 
ATOM     10  C   UNL     1       1.302   1.443  -0.452  0.00  0.00    +0.005 C 
ATOM     11  C   UNL     1       1.331   0.025   0.120  0.00  0.00    +0.037 C 
ATOM     12  C   UNL     1       0.690  -3.089   0.275  0.00  0.00    +0.248 C 
ATOM     13  O   UNL     1       1.835  -2.827   0.592  0.00  0.00    -0.270 OA
ATOM     14  N   UNL     1       0.278  -4.365   0.115  0.00  0.00    -0.290 N 
ATOM     15  H   UNL     1      -2.957  -3.974   0.158  0.00  0.00    +0.149 HD
ATOM     16  H   UNL     1       0.886  -5.077   0.368  0.00  0.00    +0.151 HD
ENDROOT
BRANCH   1  18
ATOM     17  C   UNL     1      -1.103  -6.031  -2.498  0.00  0.00    +0.007 C 
ATOM     18  C   UNL     1      -0.937  -4.851  -1.916  0.00  0.00    +0.015 C 
BRANCH  17  24
ATOM     19  C   UNL     1      -2.110  -8.257  -2.022  0.00  0.00    +0.012 A 
ATOM     20  C   UNL     1      -2.204  -9.398  -1.253  0.00  0.00    +0.050 A 
ATOM     21  C   UNL     1      -1.401  -9.552  -0.132  0.00  0.00    +0.166 A 
ATOM     22  C   UNL     1      -0.495  -8.553   0.220  0.00  0.00    +0.167 A 
ATOM     23  C   UNL     1      -0.393  -7.410  -0.551  0.00  0.00    +0.057 A 
ATOM     24  C   UNL     1      -1.205  -7.254  -1.675  0.00  0.00    -0.022 A 
ATOM     25  O   UNL     1       0.166  -8.943   1.349  0.00  0.00    -0.453 OA
ATOM     26  C   UNL     1      -0.050 -10.363   1.450  0.00  0.00    +0.466 C 
ATOM     27  O   UNL     1      -1.306 -10.566   0.777  0.00  0.00    -0.453 OA
ENDBRANCH  17  24
ENDBRANCH   1  18
TORSDOF 2
