REMARK  Name = ZINC40371578
REMARK  4 active torsions:
REMARK  status: ('A' for Active; 'I' for Inactive)
REMARK    1  A    between atoms: C_6  and  C_7
REMARK    2  A    between atoms: N_9  and  C_10
REMARK    3  A    between atoms: C_10  and  C_18
REMARK    4  A    between atoms: N_19  and  O_20
REMARK                            x       y       z     vdW  Elec       q    Type
REMARK                         _______ _______ _______ _____ _____    ______ ____
ROOT
ATOM      1  C   UNL     1      -2.453  -2.888   0.119  0.00  0.00    +0.093 C 
ATOM      2  C   UNL     1      -3.280  -2.341   1.280  0.00  0.00    +0.033 C 
ATOM      3  C   UNL     1      -3.505  -3.364   2.394  0.00  0.00    +0.002 C 
ATOM      4  C   UNL     1      -2.531  -3.050   3.546  0.00  0.00    +0.000 C 
ATOM      5  C   UNL     1      -1.118  -3.453   3.135  0.00  0.00    +0.000 C 
ATOM      6  C   UNL     1      -1.121  -4.819   2.462  0.00  0.00    +0.000 C 
ATOM      7  C   UNL     1      -0.857  -4.678   0.968  0.00  0.00    +0.002 C 
ATOM      8  C   UNL     1      -2.140  -4.367   0.212  0.00  0.00    +0.033 C 
ENDROOT
BRANCH   1   9
ATOM      9  C   UNL     1      -3.256  -2.660  -1.156  0.00  0.00    +0.155 C 
ATOM     10  N   UNL     1      -4.439  -3.166  -1.274  0.00  0.00    -0.075 NA
ATOM     11  N   UNL     1      -2.720  -1.915  -2.183  0.00  0.00    -0.342 N 
ATOM     12  H   UNL     1      -1.805  -1.599  -2.127  0.00  0.00    +0.144 HD
ATOM     13  H   UNL     1      -3.258  -1.706  -2.962  0.00  0.00    +0.144 HD
BRANCH  10  14
ATOM     14  O   UNL     1      -4.947  -4.020  -0.265  0.00  0.00    -0.408 OA
ATOM     15  H   UNL     1      -5.839  -4.349  -0.441  0.00  0.00    +0.328 HD
ENDBRANCH  10  14
ENDBRANCH   1   9
BRANCH   1  18
ATOM     16  C   UNL     1      -1.283  -0.750   0.000  0.00  0.00    +0.245 C 
ATOM     17  O   UNL     1      -2.362  -0.190   0.010  0.00  0.00    -0.270 OA
ATOM     18  N   UNL     1      -1.222  -2.096  -0.006  0.00  0.00    -0.299 N 
ATOM     19  H   UNL     1      -0.365  -2.542  -0.094  0.00  0.00    +0.150 HD
BRANCH  16  25
ATOM     20  C   UNL     1      -0.076   1.446   0.002  0.00  0.00    +0.033 A 
ATOM     21  C   UNL     1       1.113   2.151  -0.003  0.00  0.00    +0.111 A 
ATOM     22  N   UNL     1       2.272   1.523  -0.014  0.00  0.00    -0.263 NA
ATOM     23  C   UNL     1       2.355   0.207  -0.020  0.00  0.00    +0.111 A 
ATOM     24  C   UNL     1       1.216  -0.575  -0.016  0.00  0.00    +0.033 A 
ATOM     25  C   UNL     1      -0.035   0.048  -0.005  0.00  0.00    +0.040 A 
ENDBRANCH  16  25
ENDBRANCH   1  18
TORSDOF 4
