REMARK  Name = ZINC18129725
REMARK  5 active torsions:
REMARK  status: ('A' for Active; 'I' for Inactive)
REMARK    1  A    between atoms: C_6  and  C_7
REMARK    2  A    between atoms: N_8  and  N_9
REMARK    3  A    between atoms: C_10  and  S_12
REMARK    4  A    between atoms: S_12  and  C_13
REMARK    5  A    between atoms: N_18  and  C_21
REMARK                            x       y       z     vdW  Elec       q    Type
REMARK                         _______ _______ _______ _____ _____    ______ ____
ROOT
ATOM      1  N   UNL     1      -3.599  -0.848   0.033  0.00  0.00    -0.217 N 
ATOM      2  C   UNL     1      -4.802  -0.178   0.049  0.00  0.00    +0.146 C 
ATOM      3  N   UNL     1      -4.822   1.127   0.056  0.00  0.00    -0.380 N 
ATOM      4  H   UNL     1      -3.585  -1.818   0.028  0.00  0.00    +0.176 HD
ATOM      5  H   UNL     1      -5.669   1.599   0.067  0.00  0.00    +0.158 HD
ATOM      6  H   UNL     1      -3.989   1.624   0.050  0.00  0.00    +0.158 HD
ENDROOT
BRANCH   1   8
ATOM      7  C   UNL     1      -1.263  -0.761   0.011  0.00  0.00    +0.138 C 
ATOM      8  N   UNL     1      -2.397  -0.129   0.025  0.00  0.00    -0.188 NA
BRANCH   7  14
ATOM      9  C   UNL     1      -0.017   1.393   0.010  0.00  0.00    +0.013 A 
ATOM     10  C   UNL     1       1.168   2.098   0.002  0.00  0.00    +0.050 A 
ATOM     11  C   UNL     1       2.381   1.425  -0.013  0.00  0.00    +0.166 A 
ATOM     12  C   UNL     1       2.408   0.031  -0.021  0.00  0.00    +0.167 A 
ATOM     13  C   UNL     1       1.224  -0.682  -0.013  0.00  0.00    +0.059 A 
ATOM     14  C   UNL     1       0.002  -0.004   0.002  0.00  0.00    -0.002 A 
ATOM     15  O   UNL     1       3.709  -0.380  -0.036  0.00  0.00    -0.453 OA
ATOM     16  C   UNL     1       4.471   0.769  -0.450  0.00  0.00    +0.466 C 
ATOM     17  O   UNL     1       3.667   1.885  -0.023  0.00  0.00    -0.453 OA
ENDBRANCH   7  14
ENDBRANCH   1   8
BRANCH   2  18
ATOM     18  S   UNL     1      -6.314  -1.082   0.059  0.00  0.00    -0.078 S 
BRANCH  18  19
ATOM     19  C   UNL     1      -7.594   0.203   0.078  0.00  0.00    +0.149 C 
ATOM     20  C   UNL     1      -8.999  -0.429   0.017  0.00  0.00    +0.120 C 
ATOM     21  C   UNL     1      -9.644   0.013   1.312  0.00  0.00    +0.228 C 
ATOM     22  O   UNL     1     -10.768  -0.268   1.669  0.00  0.00    -0.275 OA
ATOM     23  N   UNL     1      -8.777   0.764   2.002  0.00  0.00    -0.208 N 
ATOM     24  C   UNL     1      -7.590   0.939   1.400  0.00  0.00    +0.240 C 
ATOM     25  O   UNL     1      -6.662   1.581   1.843  0.00  0.00    -0.274 OA
BRANCH  23  26
ATOM     26  C   UNL     1      -9.083   1.325   3.251  0.00  0.00    +0.064 A 
ATOM     27  C   UNL     1      -8.810   0.620   4.415  0.00  0.00    +0.045 A 
ATOM     28  C   UNL     1      -9.113   1.175   5.644  0.00  0.00    +0.043 A 
ATOM     29  C   UNL     1      -9.688   2.432   5.715  0.00  0.00    +0.021 A 
ATOM     30  C   UNL     1      -9.961   3.136   4.557  0.00  0.00    +0.023 A 
ATOM     31  C   UNL     1      -9.655   2.588   3.325  0.00  0.00    +0.063 A 
ATOM     32 CL   UNL     1      -9.993   3.476   1.871  0.00  0.00    -0.082 Cl
ATOM     33 CL   UNL     1      -8.772   0.294   7.101  0.00  0.00    -0.083 Cl
ENDBRANCH  23  26
ENDBRANCH  18  19
ENDBRANCH   2  18
TORSDOF 5
