REMARK  Name = ZINC03894287
REMARK  2 active torsions:
REMARK  status: ('A' for Active; 'I' for Inactive)
REMARK    1  A    between atoms: C_4  and  C_7
REMARK    2  A    between atoms: C_7  and  N_8
REMARK                            x       y       z     vdW  Elec       q    Type
REMARK                         _______ _______ _______ _____ _____    ______ ____
ROOT
ATOM      1  N   UNL     1       2.956  -2.150  -0.037  0.00  0.00    -0.247 N 
ATOM      2  C   UNL     1       3.525  -0.927  -0.036  0.00  0.00    +0.275 A 
ATOM      3  O   UNL     1       4.716  -0.683  -0.046  0.00  0.00    -0.266 OA
ATOM      4  C   UNL     1       2.426   0.060  -0.021  0.00  0.00    +0.066 A 
ATOM      5  C   UNL     1       2.391   1.450  -0.013  0.00  0.00    +0.016 A 
ATOM      6  C   UNL     1       1.178   2.116   0.002  0.00  0.00    +0.013 A 
ATOM      7  C   UNL     1      -0.017   1.403   0.010  0.00  0.00    +0.035 A 
ATOM      8  C   UNL     1       0.002  -0.004   0.002  0.00  0.00    +0.058 A 
ATOM      9  C   UNL     1       1.228  -0.680  -0.013  0.00  0.00    +0.079 A 
ATOM     10  N   UNL     1       1.565  -2.015  -0.023  0.00  0.00    -0.293 N 
ATOM     11  H   UNL     1       0.932  -2.751  -0.021  0.00  0.00    +0.187 HD
ATOM     12  C   UNL     1      -1.261  -0.761   0.011  0.00  0.00    +0.197 C 
ATOM     13  O   UNL     1      -1.241  -1.977   0.004  0.00  0.00    -0.287 OA
ATOM     14  C   UNL     1      -2.553  -0.043   0.027  0.00  0.00    +0.033 A 
ATOM     15  C   UNL     1      -3.750  -0.753   0.036  0.00  0.00    +0.012 A 
ATOM     16  C   UNL     1      -4.955  -0.072   0.052  0.00  0.00    +0.001 A 
ATOM     17  C   UNL     1      -4.979   1.311   0.060  0.00  0.00    +0.001 A 
ATOM     18  C   UNL     1      -3.798   2.032   0.051  0.00  0.00    +0.012 A 
ATOM     19  C   UNL     1      -2.576   1.363   0.035  0.00  0.00    +0.033 A 
ATOM     20  C   UNL     1      -1.310   2.123   0.020  0.00  0.00    +0.195 C 
ATOM     21  O   UNL     1      -1.330   3.338   0.026  0.00  0.00    -0.287 OA
ENDROOT
BRANCH   1  22
ATOM     22  C   UNL     1       3.683  -3.421  -0.051  0.00  0.00    +0.180 C 
BRANCH  22  26
ATOM     23  C   UNL     1       4.658  -4.462  -4.078  0.00  0.00    +0.000 A 
ATOM     24  C   UNL     1       5.536  -3.702  -3.329  0.00  0.00    +0.000 A 
ATOM     25  C   UNL     1       5.221  -3.365  -2.025  0.00  0.00    +0.005 A 
ATOM     26  C   UNL     1       4.027  -3.788  -1.472  0.00  0.00    -0.026 A 
ATOM     27  C   UNL     1       3.151  -4.553  -2.219  0.00  0.00    +0.005 A 
ATOM     28  C   UNL     1       3.464  -4.885  -3.524  0.00  0.00    +0.000 A 
ENDBRANCH  22  26
ENDBRANCH   1  22
TORSDOF 2
