REMARK  Name = ZINC39675353
REMARK  11 active torsions:
REMARK  status: ('A' for Active; 'I' for Inactive)
REMARK    1  A    between atoms: C_1  and  C_2
REMARK    2  A    between atoms: C_2  and  C_4
REMARK    3  A    between atoms: C_2  and  N_14
REMARK    4  A    between atoms: C_4  and  C_5
REMARK    5  A    between atoms: C_5  and  C_6
REMARK    6  A    between atoms: C_9  and  O_12
REMARK    7  A    between atoms: O_12  and  C_13
REMARK    8  A    between atoms: C_15  and  C_17
REMARK    9  A    between atoms: C_28  and  C_30
REMARK   10  A    between atoms: C_30  and  O_31
REMARK   11  A    between atoms: O_31  and  C_32
REMARK                            x       y       z     vdW  Elec       q    Type
REMARK                         _______ _______ _______ _____ _____    ______ ____
ROOT
ATOM      1  C   UNL     1       0.712  -1.094  -3.598  0.00  0.00    +0.100 C 
ATOM      2  C   UNL     1       1.342  -2.483  -3.349  0.00  0.00    +0.121 C 
ATOM      3  N   UNL     1       0.333  -3.447  -3.848  0.00  0.00    -0.297 N 
ATOM      4  C   UNL     1      -0.202  -2.817  -5.079  0.00  0.00    +0.115 C 
ATOM      5  C   UNL     1      -0.298  -1.317  -4.737  0.00  0.00    -0.004 C 
ATOM      6  C   UNL     1       0.078  -0.473  -5.950  0.00  0.00    -0.010 C 
ATOM      7  C   UNL     1      -0.973  -0.667  -7.047  0.00  0.00    -0.082 C 
ATOM      8  N   UNL     1      -2.291  -0.269  -6.540  0.00  0.00    +0.379 N 
ATOM      9  C   UNL     1      -2.687  -1.147  -5.431  0.00  0.00    -0.082 C 
ATOM     10  C   UNL     1      -1.709  -0.973  -4.266  0.00  0.00    -0.010 C 
ATOM     11  C   UNL     1      -0.019  -4.629  -3.304  0.00  0.00    +0.253 C 
ATOM     12  O   UNL     1      -0.870  -5.311  -3.836  0.00  0.00    -0.272 OA
ATOM     13  H   UNL     1      -2.251   0.685  -6.214  0.00  0.00    -0.086 HD
ATOM     14  H   UNL     1      -2.971  -0.340  -7.282  0.00  0.00    -0.086 HD
ENDROOT
BRANCH   1  16
ATOM     15  N   UNL     1      -0.108   0.714  -2.123  0.00  0.00    -0.312 N 
ATOM     16  C   UNL     1       0.006  -0.608  -2.358  0.00  0.00    +0.218 C 
ATOM     17  O   UNL     1      -0.459  -1.407  -1.573  0.00  0.00    -0.275 OA
ATOM     18  H   UNL     1       0.264   1.353  -2.751  0.00  0.00    +0.149 HD
BRANCH  15  20
ATOM     19  C   UNL     1      -2.299   1.252  -1.180  0.00  0.00    +0.028 C 
ATOM     20  C   UNL     1      -0.793   1.186  -0.917  0.00  0.00    +0.070 C 
BRANCH  20  21
ATOM     21  C   UNL     1      -0.278   2.579  -0.550  0.00  0.00    +0.026 C 
BRANCH  21  22
ATOM     22  C   UNL     1       1.200   2.492  -0.167  0.00  0.00    +0.037 C 
BRANCH  22  23
ATOM     23  C   UNL     1       1.708   3.864   0.195  0.00  0.00    -0.047 A 
ATOM     24  C   UNL     1       2.243   4.682  -0.783  0.00  0.00    +0.007 A 
ATOM     25  C   UNL     1       2.709   5.940  -0.455  0.00  0.00    +0.046 A 
ATOM     26  C   UNL     1       2.640   6.382   0.859  0.00  0.00    +0.120 A 
ATOM     27  C   UNL     1       2.103   5.560   1.838  0.00  0.00    +0.046 A 
ATOM     28  C   UNL     1       1.633   4.305   1.503  0.00  0.00    +0.007 A 
BRANCH  26  29
ATOM     29  O   UNL     1       3.099   7.620   1.185  0.00  0.00    -0.495 OA
ATOM     30  C   UNL     1       2.996   8.009   2.556  0.00  0.00    +0.277 C 
ENDBRANCH  26  29
ENDBRANCH  22  23
ENDBRANCH  21  22
ENDBRANCH  20  21
ENDBRANCH  15  20
ENDBRANCH   1  16
BRANCH  11  31
ATOM     31  C   UNL     1       0.644  -5.103  -2.037  0.00  0.00    +0.324 C 
BRANCH  31  32
ATOM     32  O   UNL     1       0.105  -6.373  -1.664  0.00  0.00    -0.483 OA
BRANCH  32  33
ATOM     33  C   UNL     1       0.599  -6.945  -0.534  0.00  0.00    +0.123 A 
ATOM     34  C   UNL     1       1.579  -6.295   0.202  0.00  0.00    +0.046 A 
ATOM     35  C   UNL     1       2.080  -6.877   1.350  0.00  0.00    +0.005 A 
ATOM     36  C   UNL     1       1.606  -8.108   1.766  0.00  0.00    +0.020 A 
ATOM     37  C   UNL     1       0.629  -8.759   1.033  0.00  0.00    +0.044 A 
ATOM     38  C   UNL     1       0.121  -8.177  -0.114  0.00  0.00    +0.065 A 
ATOM     39 CL   UNL     1       0.037 -10.305   1.557  0.00  0.00    -0.083 Cl
ENDBRANCH  32  33
ENDBRANCH  31  32
ENDBRANCH  11  31
TORSDOF 9
