REMARK  Name = ZINC39409967
REMARK  12 active torsions:
REMARK  status: ('A' for Active; 'I' for Inactive)
REMARK    1  A    between atoms: C_1  and  O_2
REMARK    2  A    between atoms: O_2  and  C_3
REMARK    3  A    between atoms: C_7  and  C_10
REMARK    4  A    between atoms: C_8  and  O_9
REMARK    5  A    between atoms: N_11  and  C_12
REMARK    6  A    between atoms: C_18  and  O_39
REMARK    7  A    between atoms: C_21  and  N_28
REMARK    8  A    between atoms: C_29  and  C_30
REMARK    9  A    between atoms: C_34  and  O_37
REMARK   10  A    between atoms: C_35  and  O_36
REMARK   11  A    between atoms: O_37  and  C_38
REMARK   12  A    between atoms: O_39  and  C_40
REMARK                            x       y       z     vdW  Elec       q    Type
REMARK                         _______ _______ _______ _____ _____    ______ ____
ROOT
ATOM      1  C   UNL     1      -1.561  -6.303  -0.204  0.00  0.00    +0.121 C 
ATOM      2  C   UNL     1      -0.941  -6.739  -1.506  0.00  0.00    +0.021 A 
ATOM      3  C   UNL     1      -1.199  -5.999  -2.650  0.00  0.00    +0.009 A 
ATOM      4  C   UNL     1      -0.651  -6.371  -3.861  0.00  0.00    +0.004 A 
ATOM      5  C   UNL     1       0.161  -7.488  -3.940  0.00  0.00    +0.049 A 
ATOM      6  C   UNL     1       0.424  -8.230  -2.802  0.00  0.00    +0.162 A 
ATOM      7  C   UNL     1      -0.127  -7.854  -1.576  0.00  0.00    +0.170 A 
ATOM      8  O   UNL     1       0.165  -8.596  -0.478  0.00  0.00    -0.461 OA
ATOM      9  C   UNL     1      -0.658  -8.443   0.682  0.00  0.00    +0.207 C 
ATOM     10  C   UNL     1      -0.812  -6.944   0.969  0.00  0.00    +0.083 C 
ATOM     11  C   UNL     1      -1.635  -6.751   2.244  0.00  0.00    +0.012 C 
ATOM     12  C   UNL     1      -0.932  -7.429   3.421  0.00  0.00    +0.001 C 
ATOM     13  C   UNL     1      -0.796  -8.926   3.133  0.00  0.00    +0.006 C 
ATOM     14  C   UNL     1       0.033  -9.122   1.867  0.00  0.00    +0.073 C 
ENDROOT
BRANCH   1  16
ATOM     15  C   UNL     1      -2.568  -4.145   0.015  0.00  0.00    +0.090 C 
ATOM     16  N   UNL     1      -1.484  -4.845  -0.092  0.00  0.00    -0.382 N 
ATOM     17  H   UNL     1      -0.620  -4.403  -0.098  0.00  0.00    +0.160 HD
BRANCH  15  22
ATOM     18  C   UNL     1      -1.201  -0.638   0.021  0.00  0.00    +0.162 A 
ATOM     19  C   UNL     1      -2.373   0.101   0.018  0.00  0.00    +0.049 A 
ATOM     20  C   UNL     1      -3.602  -0.537   0.015  0.00  0.00    +0.004 A 
ATOM     21  C   UNL     1      -3.671  -1.914   0.014  0.00  0.00    +0.013 A 
ATOM     22  C   UNL     1      -2.498  -2.673   0.016  0.00  0.00    +0.036 A 
ATOM     23  C   UNL     1      -1.255  -2.027   0.014  0.00  0.00    +0.167 A 
BRANCH  18  25
ATOM     24  C   UNL     1      -0.017   1.425   0.030  0.00  0.00    +0.277 C 
ATOM     25  O   UNL     1       0.002  -0.004   0.024  0.00  0.00    -0.491 OA
ENDBRANCH  18  25
BRANCH  23  26
ATOM     26  O   UNL     1      -0.108  -2.755   0.011  0.00  0.00    -0.503 OA
ATOM     27  H   UNL     1       0.223  -2.970   0.894  0.00  0.00    +0.292 HD
ENDBRANCH  23  26
ENDBRANCH  15  22
ENDBRANCH   1  16
BRANCH   9  28
ATOM     28  N   UNL     1      -1.968  -9.056   0.450  0.00  0.00    -0.246 NA
ATOM     29  C   UNL     1      -2.053 -10.319   0.179  0.00  0.00    +0.121 C 
BRANCH  29  30
ATOM     30  C   UNL     1      -3.371 -10.936  -0.055  0.00  0.00    +0.038 A 
ATOM     31  C   UNL     1      -3.466 -12.301  -0.342  0.00  0.00    +0.013 A 
ATOM     32  C   UNL     1      -4.700 -12.874  -0.559  0.00  0.00    +0.004 A 
ATOM     33  C   UNL     1      -5.850 -12.105  -0.496  0.00  0.00    +0.049 A 
ATOM     34  C   UNL     1      -5.771 -10.752  -0.213  0.00  0.00    +0.162 A 
ATOM     35  C   UNL     1      -4.533 -10.159   0.015  0.00  0.00    +0.167 A 
BRANCH  35  36
ATOM     36  O   UNL     1      -4.453  -8.834   0.298  0.00  0.00    -0.503 OA
ATOM     37  H   UNL     1      -4.361  -8.270  -0.482  0.00  0.00    +0.292 HD
ENDBRANCH  35  36
BRANCH  34  38
ATOM     38  O   UNL     1      -6.905 -10.002  -0.152  0.00  0.00    -0.491 OA
ATOM     39  C   UNL     1      -8.142 -10.677  -0.391  0.00  0.00    +0.277 C 
ENDBRANCH  34  38
ENDBRANCH  29  30
ENDBRANCH   9  28
BRANCH   6  40
ATOM     40  O   UNL     1       1.222  -9.329  -2.879  0.00  0.00    -0.491 OA
ATOM     41  C   UNL     1       1.752  -9.657  -4.164  0.00  0.00    +0.277 C 
ENDBRANCH   6  40
TORSDOF 9
