REMARK  Name = ZINC64746119
REMARK  9 active torsions:
REMARK  status: ('A' for Active; 'I' for Inactive)
REMARK    1  A    between atoms: C_1  and  C_2
REMARK    2  A    between atoms: C_5  and  C_9
REMARK    3  A    between atoms: C_7  and  C_8
REMARK    4  A    between atoms: C_10  and  N_29
REMARK    5  A    between atoms: N_20  and  C_23
REMARK    6  A    between atoms: N_29  and  C_30
REMARK    7  A    between atoms: C_30  and  C_31
REMARK    8  A    between atoms: C_30  and  C_32
REMARK    9  A    between atoms: C_30  and  C_33
REMARK                            x       y       z     vdW  Elec       q    Type
REMARK                         _______ _______ _______ _____ _____    ______ ____
ROOT
ATOM      1  C   UNL     1       0.221  -4.661   0.030  0.00  0.00    +0.114 A 
ATOM      2  C   UNL     1      -0.549  -5.321  -0.880  0.00  0.00    +0.150 A 
ATOM      3  N   UNL     1      -0.624  -6.648  -0.483  0.00  0.00    -0.190 N 
ATOM      4  C   UNL     1       0.118  -6.723   0.669  0.00  0.00    +0.199 A 
ATOM      5  N   UNL     1       0.618  -5.561   0.968  0.00  0.00    -0.218 NA
ATOM      6  S   UNL     1      -0.029  -8.439   1.109  0.00  0.00    -0.013 S 
ATOM      7  C   UNL     1      -1.061  -8.947  -0.257  0.00  0.00    +0.184 A 
ATOM      8  N   UNL     1      -1.213  -7.831  -0.917  0.00  0.00    -0.140 NA
ATOM      9  N   UNL     1      -1.569 -10.204  -0.544  0.00  0.00    -0.312 N 
ATOM     10  C   UNL     1      -2.404 -10.428  -1.733  0.00  0.00    +0.088 C 
ATOM     11  C   UNL     1      -1.844 -11.631  -2.500  0.00  0.00    -0.059 C 
ATOM     12  N   UNL     1      -1.751 -12.786  -1.597  0.00  0.00    +0.384 N 
ATOM     13  C   UNL     1      -0.781 -12.510  -0.531  0.00  0.00    -0.059 C 
ATOM     14  C   UNL     1      -1.284 -11.352   0.330  0.00  0.00    +0.088 C 
ATOM     15  H   UNL     1      -2.656 -12.965  -1.189  0.00  0.00    -0.081 HD
ENDROOT
BRANCH   1  20
ATOM     16  C   UNL     1       1.571   0.934  -0.088  0.00  0.00    +0.044 C 
ATOM     17  C   UNL     1       1.217  -0.531  -0.057  0.00  0.00    -0.047 A 
ATOM     18  C   UNL     1       1.093  -1.235  -1.242  0.00  0.00    +0.004 A 
ATOM     19  C   UNL     1       0.770  -2.576  -1.220  0.00  0.00    +0.010 A 
ATOM     20  C   UNL     1       0.569  -3.222   0.000  0.00  0.00    +0.004 A 
ATOM     21  C   UNL     1       0.695  -2.507   1.191  0.00  0.00    +0.013 A 
ATOM     22  C   UNL     1       1.024  -1.167   1.156  0.00  0.00    -0.047 A 
ATOM     23  C   UNL     1       1.167  -0.394   2.442  0.00  0.00    +0.044 C 
ENDBRANCH   1  20
BRANCH  12  24
ATOM     24  C   UNL     1      -1.319 -13.966  -2.358  0.00  0.00    -0.068 C 
ATOM     25  C   UNL     1      -2.335 -14.261  -3.463  0.00  0.00    -0.015 C 
ATOM     26  C   UNL     1      -1.884 -15.490  -4.255  0.00  0.00    -0.002 C 
ATOM     27  C   UNL     1      -1.787 -16.694  -3.316  0.00  0.00    -0.000 C 
ATOM     28  C   UNL     1      -0.771 -16.399  -2.211  0.00  0.00    -0.002 C 
ATOM     29  C   UNL     1      -1.222 -15.170  -1.419  0.00  0.00    -0.015 C 
ENDBRANCH  12  24
BRANCH   2  30
ATOM     30  N   UNL     1      -1.153  -4.762  -2.010  0.00  0.00    -0.323 N 
ATOM     31  H   UNL     1      -1.113  -3.804  -2.158  0.00  0.00    +0.148 HD
BRANCH  30  32
ATOM     32  C   UNL     1      -1.847  -5.623  -2.971  0.00  0.00    +0.025 C 
ATOM     33  C   UNL     1      -3.058  -6.270  -2.294  0.00  0.00    +0.031 C 
ATOM     34  C   UNL     1      -2.316  -4.784  -4.161  0.00  0.00    +0.031 C 
ATOM     35  C   UNL     1      -0.893  -6.715  -3.460  0.00  0.00    +0.031 C 
ENDBRANCH  30  32
ENDBRANCH   2  30
TORSDOF 4
