REMARK  Name = ZINC04251629
REMARK  4 active torsions:
REMARK  status: ('A' for Active; 'I' for Inactive)
REMARK    1  A    between atoms: C_7  and  N_20
REMARK    2  A    between atoms: C_8  and  C_10
REMARK    3  A    between atoms: N_12  and  C_13
REMARK    4  A    between atoms: C_21  and  C_23
REMARK                            x       y       z     vdW  Elec       q    Type
REMARK                         _______ _______ _______ _____ _____    ______ ____
ROOT
ATOM      1  C   UNL     1       2.339   0.198   1.044  0.00  0.00    +0.001 A 
ATOM      2  C   UNL     1       1.153  -0.514   0.934  0.00  0.00    +0.004 A 
ATOM      3  C   UNL     1      -0.019   0.119   0.580  0.00  0.00    +0.047 A 
ATOM      4  C   UNL     1      -0.017   1.487   0.329  0.00  0.00    +0.138 A 
ATOM      5  C   UNL     1       1.188   2.203   0.442  0.00  0.00    +0.042 A 
ATOM      6  C   UNL     1       2.363   1.542   0.801  0.00  0.00    +0.013 A 
ATOM      7  C   UNL     1       0.856   3.596   0.119  0.00  0.00    +0.092 A 
ATOM      8  C   UNL     1      -0.484   3.608  -0.155  0.00  0.00    +0.212 A 
ATOM      9  O   UNL     1      -0.981   2.357  -0.032  0.00  0.00    -0.448 OA
ENDROOT
BRANCH   8  10
ATOM     10  C   UNL     1      -1.257   4.790  -0.529  0.00  0.00    +0.285 C 
ATOM     11  O   UNL     1      -0.735   5.890  -0.511  0.00  0.00    -0.266 OA
ATOM     12  N   UNL     1      -2.549   4.663  -0.893  0.00  0.00    -0.279 N 
ATOM     13  H   UNL     1      -2.987   3.800  -0.832  0.00  0.00    +0.155 HD
BRANCH  12  14
ATOM     14  C   UNL     1      -3.257   5.776  -1.361  0.00  0.00    +0.034 A 
ATOM     15  C   UNL     1      -4.612   5.903  -1.087  0.00  0.00    +0.026 A 
ATOM     16  C   UNL     1      -5.307   7.006  -1.543  0.00  0.00    +0.040 A 
ATOM     17  C   UNL     1      -4.657   7.978  -2.285  0.00  0.00    +0.124 A 
ATOM     18  C   UNL     1      -3.307   7.850  -2.564  0.00  0.00    +0.040 A 
ATOM     19  C   UNL     1      -2.606   6.752  -2.104  0.00  0.00    +0.026 A 
ATOM     20  F   UNL     1      -5.340   9.052  -2.735  0.00  0.00    -0.205 F 
ENDBRANCH  12  14
ENDBRANCH   8  10
BRANCH   7  21
ATOM     21  N   UNL     1       1.726   4.679   0.097  0.00  0.00    -0.278 N 
ATOM     22  C   UNL     1       3.035   4.488  -0.160  0.00  0.00    +0.254 C 
ATOM     23  O   UNL     1       3.442   3.378  -0.444  0.00  0.00    -0.270 OA
ATOM     24  H   UNL     1       1.390   5.573   0.267  0.00  0.00    +0.155 HD
BRANCH  22  25
ATOM     25  C   UNL     1       3.972   5.625  -0.098  0.00  0.00    +0.107 A 
ATOM     26  C   UNL     1       4.612   5.943   1.105  0.00  0.00    +0.138 A 
ATOM     27  C   UNL     1       5.494   7.006   1.153  0.00  0.00    +0.039 A 
ATOM     28  C   UNL     1       5.736   7.762   0.020  0.00  0.00    +0.006 A 
ATOM     29  C   UNL     1       5.103   7.457  -1.171  0.00  0.00    +0.039 A 
ATOM     30  C   UNL     1       4.223   6.394  -1.239  0.00  0.00    +0.138 A 
ATOM     31  F   UNL     1       3.605   6.099  -2.404  0.00  0.00    -0.205 F 
ATOM     32  F   UNL     1       4.374   5.210   2.215  0.00  0.00    -0.205 F 
ENDBRANCH  22  25
ENDBRANCH   7  21
TORSDOF 4
