REMARK  Name = ZINC63957278
REMARK  11 active torsions:
REMARK  status: ('A' for Active; 'I' for Inactive)
REMARK    1  A    between atoms: C_1  and  C_2
REMARK    2  A    between atoms: C_3  and  C_13
REMARK    3  A    between atoms: C_5  and  C_7
REMARK    4  A    between atoms: N_15  and  C_16
REMARK    5  A    between atoms: C_16  and  C_17
REMARK    6  A    between atoms: C_16  and  C_18
REMARK    7  A    between atoms: C_16  and  C_19
REMARK    8  A    between atoms: C_21  and  C_24
REMARK    9  A    between atoms: C_24  and  C_25
REMARK   10  A    between atoms: C_24  and  C_26
REMARK   11  A    between atoms: C_24  and  C_27
REMARK                            x       y       z     vdW  Elec       q    Type
REMARK                         _______ _______ _______ _____ _____    ______ ____
ROOT
ATOM      1  C   UNL     1      -0.008  -0.258  -2.570  0.00  0.00    +0.253 C 
ATOM      2  O   UNL     1      -0.025   0.936  -2.807  0.00  0.00    -0.270 OA
ATOM      3  N   UNL     1      -0.001  -1.145  -3.584  0.00  0.00    -0.299 N 
ATOM      4  H   UNL     1       0.014  -2.097  -3.396  0.00  0.00    +0.150 HD
ENDROOT
BRANCH   1   7
ATOM      5  C   UNL     1      -0.018   1.503   0.010  0.00  0.00    +0.067 C 
ATOM      6  C   UNL     1       0.002  -0.004   0.002  0.00  0.00    +0.058 A 
ATOM      7  C   UNL     1       0.006  -0.730  -1.183  0.00  0.00    +0.097 A 
ATOM      8  S   UNL     1       0.032  -2.398  -0.546  0.00  0.00    -0.062 S 
ATOM      9  C   UNL     1       0.035  -2.021   1.095  0.00  0.00    +0.109 A 
ATOM     10  N   UNL     1       0.022  -0.699   1.109  0.00  0.00    -0.243 NA
BRANCH   9  11
ATOM     11  C   UNL     1       0.053  -2.948   2.246  0.00  0.00    +0.007 A 
ATOM     12  C   UNL     1       0.076  -4.328   2.035  0.00  0.00    +0.010 A 
ATOM     13  C   UNL     1       0.092  -5.187   3.114  0.00  0.00    +0.001 A 
ATOM     14  C   UNL     1       0.086  -4.684   4.403  0.00  0.00    +0.000 A 
ATOM     15  C   UNL     1       0.062  -3.318   4.619  0.00  0.00    +0.001 A 
ATOM     16  C   UNL     1       0.052  -2.447   3.549  0.00  0.00    +0.010 A 
ENDBRANCH   9  11
ENDBRANCH   1   7
BRANCH   3  17
ATOM     17  C   UNL     1      -0.014  -0.673  -4.971  0.00  0.00    +0.092 C 
ATOM     18  C   UNL     1      -1.276   0.157  -5.215  0.00  0.00    +0.040 C 
ATOM     19  C   UNL     1       1.222   0.191  -5.228  0.00  0.00    +0.040 C 
BRANCH  17  20
ATOM     20  C   UNL     1      -0.003  -1.856  -5.905  0.00  0.00    +0.194 A 
ATOM     21  N   UNL     1      -0.005  -1.792  -7.241  0.00  0.00    -0.193 NA
ATOM     22  C   UNL     1       0.007  -2.995  -7.746  0.00  0.00    +0.233 A 
ATOM     23  O   UNL     1       0.018  -3.874  -6.737  0.00  0.00    -0.337 OA
ATOM     24  N   UNL     1       0.017  -3.107  -5.542  0.00  0.00    -0.059 NA
BRANCH  22  25
ATOM     25  C   UNL     1       0.009  -3.336  -9.214  0.00  0.00    +0.041 C 
ATOM     26  C   UNL     1       1.251  -2.735  -9.876  0.00  0.00    +0.020 C 
ATOM     27  C   UNL     1       0.025  -4.856  -9.385  0.00  0.00    +0.020 C 
ATOM     28  C   UNL     1      -1.247  -2.762  -9.873  0.00  0.00    +0.020 C 
ENDBRANCH  22  25
ENDBRANCH  17  20
ENDBRANCH   3  17
TORSDOF 5
