REMARK  Name = ZINC10369745
REMARK  6 active torsions:
REMARK  status: ('A' for Active; 'I' for Inactive)
REMARK    1  A    between atoms: C_1  and  C_2
REMARK    2  A    between atoms: C_2  and  C_4
REMARK    3  A    between atoms: C_2  and  N_13
REMARK    4  A    between atoms: N_16  and  C_17
REMARK    5  A    between atoms: C_17  and  C_18
REMARK    6  A    between atoms: C_18  and  C_19
REMARK                            x       y       z     vdW  Elec       q    Type
REMARK                         _______ _______ _______ _____ _____    ______ ____
ROOT
ATOM      1  N   UNL     1       0.688  -0.476  -1.203  0.00  0.00    -0.290 N 
ATOM      2  C   UNL     1       2.031  -0.587  -1.215  0.00  0.00    +0.300 C 
ATOM      3  O   UNL     1       2.674  -0.294  -0.225  0.00  0.00    -0.253 OA
ATOM      4  N   UNL     1       2.662  -1.022  -2.324  0.00  0.00    -0.299 N 
ATOM      5  H   UNL     1       0.175  -0.710  -1.993  0.00  0.00    +0.151 HD
ATOM      6  H   UNL     1       2.149  -1.255  -3.114  0.00  0.00    +0.150 HD
ENDROOT
BRANCH   1   8
ATOM      7  C   UNL     1      -0.019   1.526   0.010  0.00  0.00    +0.036 C 
ATOM      8  C   UNL     1       0.002  -0.004   0.002  0.00  0.00    +0.137 C 
BRANCH   8   9
ATOM      9  C   UNL     1      -1.412  -0.526   0.013  0.00  0.00    +0.126 A 
ATOM     10  C   UNL     1      -2.057  -0.971   1.099  0.00  0.00    +0.055 A 
ATOM     11  C   UNL     1      -3.393  -1.375   0.645  0.00  0.00    +0.020 A 
ATOM     12  C   UNL     1      -4.517  -1.908   1.275  0.00  0.00    +0.011 A 
ATOM     13  C   UNL     1      -5.639  -2.180   0.542  0.00  0.00    +0.001 A 
ATOM     14  C   UNL     1      -5.665  -1.929  -0.822  0.00  0.00    +0.004 A 
ATOM     15  C   UNL     1      -4.564  -1.401  -1.462  0.00  0.00    +0.047 A 
ATOM     16  C   UNL     1      -3.414  -1.117  -0.736  0.00  0.00    +0.135 A 
ATOM     17  O   UNL     1      -2.211  -0.606  -1.066  0.00  0.00    -0.458 OA
ENDBRANCH   8   9
ENDBRANCH   1   8
BRANCH   4  18
ATOM     18  C   UNL     1       4.122  -1.142  -2.336  0.00  0.00    +0.110 C 
BRANCH  18  19
ATOM     19  C   UNL     1       4.580  -1.652  -3.704  0.00  0.00    +0.054 C 
BRANCH  19  20
ATOM     20  C   UNL     1       6.082  -1.776  -3.717  0.00  0.00    -0.041 A 
ATOM     21  C   UNL     1       6.859  -0.702  -4.109  0.00  0.00    +0.053 A 
ATOM     22  C   UNL     1       8.241  -0.812  -4.122  0.00  0.00    +0.164 A 
ATOM     23  C   UNL     1       8.843  -2.004  -3.737  0.00  0.00    +0.180 A 
ATOM     24  C   UNL     1       8.058  -3.079  -3.346  0.00  0.00    +0.086 A 
ATOM     25  C   UNL     1       6.680  -2.961  -3.332  0.00  0.00    +0.027 A 
ATOM     26 CL   UNL     1       8.805  -4.572  -2.869  0.00  0.00    -0.080 Cl
ATOM     27  O   UNL     1      10.199  -2.131  -3.735  0.00  0.00    -0.483 OA
ATOM     28  C   UNL     1      10.937  -1.161  -4.485  0.00  0.00    +0.270 C 
ATOM     29  C   UNL     1      10.378   0.230  -4.154  0.00  0.00    +0.270 C 
ATOM     30  O   UNL     1       8.993   0.253  -4.514  0.00  0.00    -0.485 OA
ENDBRANCH  19  20
ENDBRANCH  18  19
ENDBRANCH   4  18
TORSDOF 5
