REMARK  Name = ZINC13010816
REMARK  8 active torsions:
REMARK  status: ('A' for Active; 'I' for Inactive)
REMARK    1  A    between atoms: C_1  and  C_2
REMARK    2  A    between atoms: C_5  and  C_33
REMARK    3  A    between atoms: N_8  and  S_10
REMARK    4  A    between atoms: S_10  and  C_13
REMARK    5  A    between atoms: C_16  and  N_19
REMARK    6  A    between atoms: C_20  and  C_22
REMARK    7  A    between atoms: C_22  and  N_63
REMARK    8  A    between atoms: C_30  and  C_32
REMARK                            x       y       z     vdW  Elec       q    Type
REMARK                         _______ _______ _______ _____ _____    ______ ____
ROOT
ATOM      1  C   UNL     1      -3.254   3.624  -0.255  0.00  0.00    +0.106 A 
ATOM      2  C   UNL     1      -3.421   2.254  -0.330  0.00  0.00    +0.030 A 
ATOM      3  C   UNL     1      -2.321   1.419  -0.312  0.00  0.00    +0.025 A 
ATOM      4  C   UNL     1      -1.044   1.959  -0.219  0.00  0.00    +0.033 A 
ATOM      5  C   UNL     1      -0.879   3.335  -0.139  0.00  0.00    +0.025 A 
ATOM      6  C   UNL     1      -1.984   4.164  -0.163  0.00  0.00    +0.030 A 
ENDROOT
BRANCH   4   7
ATOM      7  N   UNL     1       0.073   1.116  -0.201  0.00  0.00    -0.287 N 
ATOM      8  C   UNL     1       1.231   1.521  -0.758  0.00  0.00    +0.201 C 
ATOM      9  O   UNL     1       1.282   2.578  -1.351  0.00  0.00    -0.278 OA
ATOM     10  H   UNL     1       0.012   0.239   0.209  0.00  0.00    +0.155 HD
BRANCH   8  11
ATOM     11  C   UNL     1       2.463   0.661  -0.644  0.00  0.00    +0.020 C 
BRANCH  11  21
ATOM     12  C   UNL     1       3.204   1.421  -2.821  0.00  0.00    -0.055 C 
ATOM     13  C   UNL     1       4.466   1.696  -3.648  0.00  0.00    +0.103 C 
ATOM     14  N   UNL     1       5.202   2.795  -3.011  0.00  0.00    -0.354 N 
ATOM     15  C   UNL     1       6.183   3.565  -3.546  0.00  0.00    +0.086 A 
ATOM     16  C   UNL     1       6.574   4.458  -2.611  0.00  0.00    +0.019 A 
ATOM     17  C   UNL     1       5.803   4.225  -1.453  0.00  0.00    +0.021 A 
ATOM     18  C   UNL     1       4.975   3.205  -1.723  0.00  0.00    +0.005 A 
ATOM     19  C   UNL     1       3.949   2.570  -0.816  0.00  0.00    -0.023 C 
ATOM     20  C   UNL     1       4.553   2.348   0.573  0.00  0.00    -0.007 C 
ATOM     21  N   UNL     1       3.584   1.256  -1.401  0.00  0.00    +0.392 N 
ATOM     22  H   UNL     1       4.395   0.629  -1.344  0.00  0.00    -0.080 HD
ENDBRANCH  11  21
ENDBRANCH   8  11
ENDBRANCH   4   7
BRANCH   1  23
ATOM     23  S   UNL     1      -4.660   4.685  -0.278  0.00  0.00    +0.061 S 
ATOM     24  O   UNL     1      -4.209   5.948  -0.746  0.00  0.00    -0.153 OA
ATOM     25  O   UNL     1      -5.703   3.963  -0.920  0.00  0.00    -0.153 OA
BRANCH  23  31
ATOM     26  C   UNL     1      -6.560   2.608   3.946  0.00  0.00    +0.009 C 
ATOM     27  C   UNL     1      -5.511   3.450   3.216  0.00  0.00    +0.002 C 
ATOM     28  C   UNL     1      -5.085   4.619   4.107  0.00  0.00    +0.009 C 
ATOM     29  C   UNL     1      -4.011   5.442   3.392  0.00  0.00    +0.002 C 
ATOM     30  C   UNL     1      -4.590   6.010   2.092  0.00  0.00    +0.112 C 
ATOM     31  N   UNL     1      -5.135   4.904   1.293  0.00  0.00    -0.176 NA
ATOM     32  C   UNL     1      -6.112   3.998   1.913  0.00  0.00    +0.112 C 
ATOM     33  C   UNL     1      -2.813   4.548   3.068  0.00  0.00    +0.009 C 
ENDBRANCH  23  31
ENDBRANCH   1  23
TORSDOF 5
