REMARK  Name = ZINC03841359
REMARK  9 active torsions:
REMARK  status: ('A' for Active; 'I' for Inactive)
REMARK    1  A    between atoms: C_1  and  C_2
REMARK    2  A    between atoms: N_4  and  C_5
REMARK    3  A    between atoms: C_8  and  S_11
REMARK    4  A    between atoms: S_11  and  N_14
REMARK    5  A    between atoms: N_14  and  C_15
REMARK    6  A    between atoms: C_30  and  C_31
REMARK    7  A    between atoms: C_30  and  N_69
REMARK    8  A    between atoms: C_31  and  C_32
REMARK    9  A    between atoms: C_32  and  C_33
REMARK                            x       y       z     vdW  Elec       q    Type
REMARK                         _______ _______ _______ _____ _____    ______ ____
ROOT
ATOM      1  C   UNL     1       2.321   6.188  -6.537  0.00  0.00    +0.112 A 
ATOM      2  C   UNL     1       1.109   5.554  -6.556  0.00  0.00    +0.031 A 
ATOM      3  C   UNL     1      -0.042   6.287  -6.244  0.00  0.00    +0.023 A 
ATOM      4  C   UNL     1       0.039   7.609  -5.946  0.00  0.00    +0.023 A 
ATOM      5  N   UNL     1       1.227   8.260  -6.002  0.00  0.00    -0.310 N 
ATOM      6  C   UNL     1       2.368   7.561  -6.228  0.00  0.00    +0.274 A 
ATOM      7  O   UNL     1       3.447   8.129  -6.162  0.00  0.00    -0.266 OA
ATOM      8  C   UNL     1       1.359   9.709  -5.846  0.00  0.00    +0.127 C 
ATOM      9  C   UNL     1       0.132  10.338  -5.211  0.00  0.00    -0.007 C 
ATOM     10  C   UNL     1      -1.128   9.800  -5.896  0.00  0.00    +0.011 C 
ATOM     11  C   UNL     1      -1.242   8.311  -5.551  0.00  0.00    +0.020 C 
ATOM     12  C   UNL     1      -1.383   8.187  -4.025  0.00  0.00    -0.069 C 
ATOM     13  C   UNL     1       0.079  10.093  -3.711  0.00  0.00    -0.074 C 
ATOM     14  N   UNL     1      -0.114   8.657  -3.424  0.00  0.00    +0.380 N 
ATOM     15  H   UNL     1       0.665   8.128  -3.833  0.00  0.00    -0.082 HD
ENDROOT
BRANCH   1  16
ATOM     16  N   UNL     1       3.497   5.483  -6.821  0.00  0.00    -0.211 N 
ATOM     17  H   UNL     1       4.358   5.920  -6.733  0.00  0.00    +0.174 HD
BRANCH  16  18
ATOM     18  S   UNL     1       3.417   3.902  -7.308  0.00  0.00    +0.072 S 
ATOM     19  O   UNL     1       4.751   3.491  -7.574  0.00  0.00    -0.150 OA
ATOM     20  O   UNL     1       2.585   3.230  -6.372  0.00  0.00    -0.150 OA
BRANCH  18  24
ATOM     21  C   UNL     1       1.227   3.830 -11.272  0.00  0.00    +0.033 A 
ATOM     22  C   UNL     1       2.587   4.109 -11.233  0.00  0.00    +0.025 A 
ATOM     23  C   UNL     1       3.252   4.130 -10.023  0.00  0.00    +0.030 A 
ATOM     24  C   UNL     1       2.565   3.874  -8.850  0.00  0.00    +0.109 A 
ATOM     25  C   UNL     1       1.212   3.591  -8.886  0.00  0.00    +0.030 A 
ATOM     26  C   UNL     1       0.540   3.573 -10.092  0.00  0.00    +0.025 A 
BRANCH  21  30
ATOM     27  C   UNL     1       0.498   3.468 -14.945  0.00  0.00    +0.109 C 
ATOM     28  C   UNL     1       1.173   3.356 -13.602  0.00  0.00    +0.214 C 
ATOM     29  O   UNL     1       2.276   2.859 -13.517  0.00  0.00    -0.276 OA
ATOM     30  N   UNL     1       0.550   3.808 -12.496  0.00  0.00    -0.286 N 
ATOM     31  H   UNL     1      -0.368   4.119 -12.549  0.00  0.00    +0.155 HD
ENDBRANCH  21  30
ENDBRANCH  18  24
ENDBRANCH  16  18
ENDBRANCH   1  16
BRANCH  14  32
ATOM     32  C   UNL     1      -0.132   8.432  -1.964  0.00  0.00    -0.078 C 
BRANCH  32  33
ATOM     33  C   UNL     1      -0.105   6.926  -1.698  0.00  0.00    -0.014 C 
BRANCH  33  34
ATOM     34  C   UNL     1      -0.100   6.675  -0.188  0.00  0.00    +0.033 C 
BRANCH  34  35
ATOM     35  C   UNL     1      -0.073   5.191   0.074  0.00  0.00    -0.047 A 
ATOM     36  C   UNL     1       1.137   4.533   0.195  0.00  0.00    +0.003 A 
ATOM     37  C   UNL     1       1.162   3.172   0.435  0.00  0.00    +0.000 A 
ATOM     38  C   UNL     1      -0.022   2.470   0.556  0.00  0.00    +0.000 A 
ATOM     39  C   UNL     1      -1.232   3.127   0.430  0.00  0.00    +0.000 A 
ATOM     40  C   UNL     1      -1.257   4.489   0.195  0.00  0.00    +0.003 A 
ENDBRANCH  34  35
ENDBRANCH  33  34
ENDBRANCH  32  33
ENDBRANCH  14  32
TORSDOF 8
