REMARK  Name = ZINC02749535
REMARK  4 active torsions:
REMARK  status: ('A' for Active; 'I' for Inactive)
REMARK    1  A    between atoms: C_1  and  C_2
REMARK    2  A    between atoms: C_5  and  C_7
REMARK    3  A    between atoms: C_9  and  C_17
REMARK    4  A    between atoms: C_23  and  C_25
REMARK                            x       y       z     vdW  Elec       q    Type
REMARK                         _______ _______ _______ _____ _____    ______ ____
ROOT
ATOM      1  C   UNL     1       0.161  -2.750   0.001  0.00  0.00    +0.107 A 
ATOM      2  C   UNL     1      -1.118  -2.167   0.017  0.00  0.00    +0.045 A 
ATOM      3  C   UNL     1      -1.236  -0.785   0.010  0.00  0.00    +0.048 A 
ATOM      4  C   UNL     1       0.002  -0.004  -0.013  0.00  0.00    +0.013 A 
ATOM      5  C   UNL     1      -0.017   1.394  -0.021  0.00  0.00    +0.011 A 
ATOM      6  C   UNL     1       1.159   2.084  -0.043  0.00  0.00    +0.001 A 
ATOM      7  C   UNL     1       2.380   1.414  -0.058  0.00  0.00    +0.002 A 
ATOM      8  C   UNL     1       2.434   0.053  -0.051  0.00  0.00    +0.028 A 
ATOM      9  C   UNL     1       1.241  -0.692  -0.028  0.00  0.00    +0.073 A 
ATOM     10  N   UNL     1       1.264  -2.026  -0.021  0.00  0.00    -0.244 NA
ENDROOT
BRANCH   3  11
ATOM     11  C   UNL     1      -2.560  -0.127   0.027  0.00  0.00    +0.250 C 
ATOM     12  O   UNL     1      -2.636   1.082   0.125  0.00  0.00    -0.270 OA
ATOM     13  N   UNL     1      -3.682  -0.867  -0.067  0.00  0.00    -0.259 N 
ATOM     14  C   UNL     1      -4.926  -0.249  -0.052  0.00  0.00    +0.188 A 
ATOM     15  N   UNL     1      -5.239   1.036   0.046  0.00  0.00    -0.126 NA
ATOM     16  N   UNL     1      -6.436   1.431   0.044  0.00  0.00    -0.144 NA
ATOM     17  C   UNL     1      -7.451   0.596  -0.055  0.00  0.00    +0.107 A 
ATOM     18  S   UNL     1      -6.567  -0.957  -0.166  0.00  0.00    -0.035 S 
ATOM     19  H   UNL     1      -3.621  -1.832  -0.146  0.00  0.00    +0.157 HD
BRANCH  17  20
ATOM     20  C   UNL     1      -8.933   0.870  -0.074  0.00  0.00    +0.047 C 
ATOM     21  C   UNL     1      -9.279   1.822  -1.238  0.00  0.00    +0.010 C 
ATOM     22  C   UNL     1     -10.395   2.731  -0.664  0.00  0.00    +0.001 C 
ATOM     23  C   UNL     1      -9.941   2.949   0.800  0.00  0.00    +0.001 C 
ATOM     24  C   UNL     1      -9.354   1.585   1.221  0.00  0.00    +0.010 C 
ENDBRANCH  17  20
ENDBRANCH   3  11
BRANCH   1  29
ATOM     25  C   UNL     1      -1.105  -7.604   0.049  0.00  0.00    +0.086 C 
ATOM     26  C   UNL     1      -0.274  -6.346   0.029  0.00  0.00    +0.103 A 
ATOM     27  C   UNL     1       1.073  -6.294   0.008  0.00  0.00    +0.045 A 
ATOM     28  C   UNL     1       1.433  -4.934  -0.011  0.00  0.00    +0.052 A 
ATOM     29  C   UNL     1       0.274  -4.221   0.008  0.00  0.00    +0.153 A 
ATOM     30  O   UNL     1      -0.753  -5.093   0.028  0.00  0.00    -0.458 OA
ENDBRANCH   1  29
TORSDOF 3
