REMARK  Name = ZINC16269085
REMARK  7 active torsions:
REMARK  status: ('A' for Active; 'I' for Inactive)
REMARK    1  A    between atoms: C_1  and  C_2
REMARK    2  A    between atoms: C_3  and  C_7
REMARK    3  A    between atoms: N_9  and  N_10
REMARK    4  A    between atoms: N_10  and  C_11
REMARK    5  A    between atoms: C_11  and  N_13
REMARK    6  A    between atoms: N_13  and  C_14
REMARK    7  A    between atoms: C_20  and  C_22
REMARK                            x       y       z     vdW  Elec       q    Type
REMARK                         _______ _______ _______ _____ _____    ______ ____
ROOT
ATOM      1  N   UNL     1      -4.827  -0.946   0.021  0.00  0.00    -0.246 N 
ATOM      2  H   UNL     1      -5.058  -0.004   0.028  0.00  0.00    +0.172 HD
ENDROOT
BRANCH   1   5
ATOM      3  C   UNL     1      -2.508  -0.405   0.012  0.00  0.00    +0.263 C 
ATOM      4  O   UNL     1      -2.798   0.776   0.021  0.00  0.00    -0.269 OA
ATOM      5  N   UNL     1      -3.482  -1.337   0.011  0.00  0.00    -0.231 N 
ATOM      6  H   UNL     1      -3.251  -2.280   0.005  0.00  0.00    +0.173 HD
BRANCH   3   9
ATOM      7  C   UNL     1      -0.018   1.503   0.010  0.00  0.00    +0.087 C 
ATOM      8  C   UNL     1       0.002  -0.004   0.002  0.00  0.00    +0.114 A 
ATOM      9  C   UNL     1      -1.093  -0.817   0.003  0.00  0.00    +0.079 A 
ATOM     10  C   UNL     1      -0.567  -2.190  -0.008  0.00  0.00    +0.054 A 
ATOM     11  C   UNL     1       0.769  -2.073  -0.014  0.00  0.00    +0.196 A 
ATOM     12  O   UNL     1       1.097  -0.771  -0.013  0.00  0.00    -0.467 OA
ENDBRANCH   3   9
ENDBRANCH   1   5
BRANCH   1  13
ATOM     13  C   UNL     1      -5.800  -1.878   0.020  0.00  0.00    +0.147 C 
ATOM     14  S   UNL     1      -7.444  -1.400   0.031  0.00  0.00    -0.017 S 
BRANCH  13  15
ATOM     15  N   UNL     1      -5.479  -3.187   0.010  0.00  0.00    -0.322 N 
ATOM     16  H   UNL     1      -4.548  -3.458   0.004  0.00  0.00    +0.148 HD
BRANCH  15  17
ATOM     17  C   UNL     1      -6.537  -4.201   0.010  0.00  0.00    +0.075 C 
ATOM     18  C   UNL     1      -7.000  -4.454  -1.427  0.00  0.00    +0.022 C 
ATOM     19  C   UNL     1      -8.104  -5.513  -1.427  0.00  0.00    +0.002 C 
ATOM     20  C   UNL     1      -7.565  -6.813  -0.828  0.00  0.00    +0.000 C 
ATOM     21  C   UNL     1      -7.103  -6.560   0.608  0.00  0.00    +0.005 C 
ATOM     22  C   UNL     1      -5.998  -5.501   0.609  0.00  0.00    +0.006 C 
ATOM     23  C   UNL     1      -5.535  -5.248   2.045  0.00  0.00    +0.009 C 
ENDBRANCH  15  17
ENDBRANCH  13  15
ENDBRANCH   1  13
TORSDOF 5
