REMARK  Name = ZINC35664024
REMARK  17 active torsions:
REMARK  status: ('A' for Active; 'I' for Inactive)
REMARK    1  A    between atoms: C_1  and  C_2
REMARK    2  A    between atoms: C_2  and  N_3
REMARK    3  A    between atoms: C_4  and  C_26
REMARK    4  A    between atoms: C_5  and  C_21
REMARK    5  A    between atoms: C_6  and  C_11
REMARK    6  A    between atoms: C_14  and  C_17
REMARK    7  A    between atoms: C_17  and  C_18
REMARK    8  A    between atoms: C_17  and  C_19
REMARK    9  A    between atoms: C_17  and  C_20
REMARK   10  A    between atoms: C_21  and  O_23
REMARK   11  A    between atoms: O_23  and  C_24
REMARK   12  A    between atoms: C_24  and  C_25
REMARK   13  A    between atoms: C_26  and  N_27
REMARK   14  A    between atoms: N_35  and  C_36
REMARK   15  A    between atoms: C_36  and  C_37
REMARK   16  A    between atoms: C_36  and  C_38
REMARK   17  A    between atoms: C_36  and  C_39
REMARK                            x       y       z     vdW  Elec       q    Type
REMARK                         _______ _______ _______ _____ _____    ______ ____
ROOT
ATOM      1  N   UNL     1       0.722  -0.427  -1.174  0.00  0.00    -0.258 N 
ATOM      2  C   UNL     1      -0.034  -0.556  -2.304  0.00  0.00    +0.041 C 
ATOM      3  C   UNL     1       0.506  -1.010  -3.455  0.00  0.00    +0.080 C 
ATOM      4  C   UNL     1       1.978  -1.372  -3.449  0.00  0.00    +0.144 C 
ATOM      5  N   UNL     1       2.703  -1.196  -2.180  0.00  0.00    -0.288 N 
ATOM      6  C   UNL     1       2.025  -0.726  -1.114  0.00  0.00    +0.307 C 
ATOM      7  O   UNL     1       2.616  -0.574  -0.062  0.00  0.00    -0.252 OA
ATOM      8  H   UNL     1       3.647  -1.411  -2.113  0.00  0.00    +0.151 HD
ENDROOT
BRANCH   4   9
ATOM      9  C   UNL     1       2.103  -2.817  -3.859  0.00  0.00    -0.022 A 
ATOM     10  C   UNL     1       1.863  -3.820  -2.938  0.00  0.00    +0.006 A 
ATOM     11  C   UNL     1       1.978  -5.145  -3.313  0.00  0.00    +0.004 A 
ATOM     12  C   UNL     1       2.332  -5.468  -4.610  0.00  0.00    -0.042 A 
ATOM     13  C   UNL     1       2.570  -4.465  -5.531  0.00  0.00    +0.004 A 
ATOM     14  C   UNL     1       2.451  -3.140  -5.157  0.00  0.00    +0.006 A 
BRANCH  12  15
ATOM     15  C   UNL     1       2.458  -6.913  -5.019  0.00  0.00    -0.013 C 
ATOM     16  C   UNL     1       1.116  -7.619  -4.815  0.00  0.00    +0.015 C 
ATOM     17  C   UNL     1       2.857  -6.992  -6.494  0.00  0.00    +0.015 C 
ATOM     18  C   UNL     1       3.528  -7.594  -4.163  0.00  0.00    +0.015 C 
ENDBRANCH  12  15
ENDBRANCH   4   9
BRANCH   1  20
ATOM     19  C   UNL     1       0.172   1.599   0.082  0.00  0.00    +0.025 C 
ATOM     20  C   UNL     1       0.070   0.073   0.040  0.00  0.00    +0.111 C 
ENDBRANCH   1  20
BRANCH   3  21
ATOM     21  C   UNL     1      -0.275  -1.145  -4.627  0.00  0.00    +0.339 C 
ATOM     22  O   UNL     1      -0.713  -2.236  -4.944  0.00  0.00    -0.245 OA
BRANCH  21  23
ATOM     23  O   UNL     1      -0.536  -0.065  -5.392  0.00  0.00    -0.462 OA
BRANCH  23  24
ATOM     24  C   UNL     1      -1.331  -0.274  -6.560  0.00  0.00    +0.229 C 
ATOM     25  C   UNL     1      -1.519   1.055  -7.295  0.00  0.00    +0.048 C 
ENDBRANCH  23  24
ENDBRANCH  21  23
ENDBRANCH   3  21
BRANCH   2  26
ATOM     26  C   UNL     1      -1.494  -0.185  -2.266  0.00  0.00    +0.136 C 
BRANCH  26  27
ATOM     27  N   UNL     1      -2.215  -1.121  -1.393  0.00  0.00    -0.294 NA
ATOM     28  C   UNL     1      -2.206  -2.478  -1.955  0.00  0.00    +0.104 C 
ATOM     29  C   UNL     1      -2.805  -3.453  -0.936  0.00  0.00    +0.124 C 
ATOM     30  N   UNL     1      -4.129  -2.955  -0.535  0.00  0.00    -0.283 N 
ATOM     31  C   UNL     1      -4.241  -1.558  -0.089  0.00  0.00    +0.124 C 
ATOM     32  C   UNL     1      -3.586  -0.657  -1.141  0.00  0.00    +0.104 C 
ATOM     33  C   UNL     1      -5.211  -3.757  -0.574  0.00  0.00    +0.303 C 
ATOM     34  O   UNL     1      -5.086  -4.933  -0.857  0.00  0.00    -0.253 OA
ATOM     35  N   UNL     1      -6.432  -3.256  -0.300  0.00  0.00    -0.294 N 
ATOM     36  H   UNL     1      -6.524  -2.336  -0.008  0.00  0.00    +0.151 HD
BRANCH  35  37
ATOM     37  C   UNL     1      -7.620  -4.102  -0.443  0.00  0.00    +0.028 C 
ATOM     38  C   UNL     1      -7.500  -5.311   0.486  0.00  0.00    +0.031 C 
ATOM     39  C   UNL     1      -8.867  -3.296  -0.073  0.00  0.00    +0.031 C 
ATOM     40  C   UNL     1      -7.733  -4.581  -1.892  0.00  0.00    +0.031 C 
ENDBRANCH  35  37
ENDBRANCH  26  27
ENDBRANCH   2  26
TORSDOF 9
