REMARK  Name = ZINC23336009
REMARK  13 active torsions:
REMARK  status: ('A' for Active; 'I' for Inactive)
REMARK    1  A    between atoms: C_1  and  C_2
REMARK    2  A    between atoms: C_5  and  C_7
REMARK    3  A    between atoms: C_9  and  C_30
REMARK    4  A    between atoms: N_10  and  C_12
REMARK    5  A    between atoms: C_16  and  C_18
REMARK    6  A    between atoms: N_20  and  C_21
REMARK    7  A    between atoms: C_21  and  C_22
REMARK    8  A    between atoms: C_22  and  C_23
REMARK    9  A    between atoms: N_28  and  C_29
REMARK   10  A    between atoms: C_30  and  C_31
REMARK   11  A    between atoms: C_31  and  C_32
REMARK   12  A    between atoms: C_32  and  C_33
REMARK   13  A    between atoms: C_32  and  C_34
REMARK                            x       y       z     vdW  Elec       q    Type
REMARK                         _______ _______ _______ _____ _____    ______ ____
ROOT
ATOM      1  C   UNL     1       0.613   4.237  -1.316  0.00  0.00    +0.066 A 
ATOM      2  C   UNL     1       1.788   3.496  -1.286  0.00  0.00    +0.028 A 
ATOM      3  C   UNL     1       1.745   2.118  -1.379  0.00  0.00    +0.003 A 
ATOM      4  C   UNL     1       0.534   1.467  -1.501  0.00  0.00    +0.013 A 
ATOM      5  C   UNL     1      -0.652   2.202  -1.537  0.00  0.00    +0.039 A 
ATOM      6  C   UNL     1      -0.609   3.593  -1.438  0.00  0.00    +0.040 A 
ENDROOT
BRANCH   1  10
ATOM      7  C   UNL     1       0.174   7.694  -0.616  0.00  0.00    +0.149 A 
ATOM      8  C   UNL     1       1.258   7.721  -1.518  0.00  0.00    +0.058 A 
ATOM      9  C   UNL     1       1.535   6.447  -1.871  0.00  0.00    +0.046 A 
ATOM     10  N   UNL     1       0.662   5.634  -1.221  0.00  0.00    -0.236 N 
ATOM     11  N   UNL     1      -0.184   6.437  -0.445  0.00  0.00    -0.161 NA
BRANCH   7  16
ATOM     12  C   UNL     1      -2.803  10.629   2.148  0.00  0.00    +0.111 C 
ATOM     13  C   UNL     1      -1.733  10.136   1.208  0.00  0.00    +0.215 A 
ATOM     14  N   UNL     1      -0.875  10.876   0.563  0.00  0.00    -0.112 NA
ATOM     15  N   UNL     1      -0.105  10.125  -0.143  0.00  0.00    -0.106 NA
ATOM     16  C   UNL     1      -0.455   8.870   0.021  0.00  0.00    +0.268 A 
ATOM     17  O   UNL     1      -1.491   8.854   0.883  0.00  0.00    -0.419 OA
ENDBRANCH   7  16
BRANCH   9  18
ATOM     18  C   UNL     1       2.621   6.006  -2.819  0.00  0.00    +0.056 C 
BRANCH  18  19
ATOM     19  C   UNL     1       3.963   5.993  -2.085  0.00  0.00    +0.009 C 
BRANCH  19  20
ATOM     20  C   UNL     1       5.075   5.607  -3.063  0.00  0.00    -0.017 C 
ATOM     21  C   UNL     1       6.431   5.715  -2.362  0.00  0.00    +0.007 C 
ATOM     22  C   UNL     1       4.860   4.169  -3.539  0.00  0.00    +0.007 C 
ENDBRANCH  19  20
ENDBRANCH  18  19
ENDBRANCH   9  18
ENDBRANCH   1  10
BRANCH   5  23
ATOM     23  C   UNL     1      -1.951   1.509  -1.673  0.00  0.00    +0.244 C 
ATOM     24  O   UNL     1      -2.983   2.151  -1.704  0.00  0.00    -0.270 OA
ATOM     25  N   UNL     1      -1.991   0.165  -1.763  0.00  0.00    -0.311 N 
ATOM     26  H   UNL     1      -1.057  -0.416  -1.735  0.00  0.00    +0.149 HD
BRANCH  25  27
ATOM     27  C   UNL     1      -3.278  -0.523  -1.898  0.00  0.00    +0.103 C 
BRANCH  27  28
ATOM     28  C   UNL     1      -3.043  -2.032  -1.979  0.00  0.00    +0.003 C 
BRANCH  28  29
ATOM     29  C   UNL     1      -4.371  -2.740  -2.259  0.00  0.00    -0.068 C 
ATOM     30  C   UNL     1      -4.155  -4.271  -2.358  0.00  0.00    -0.017 C 
ATOM     31  C   UNL     1      -5.568  -4.809  -2.003  0.00  0.00    -0.020 C 
ATOM     32  C   UNL     1      -6.066  -3.807  -0.941  0.00  0.00    -0.079 C 
ATOM     33  N   UNL     1      -5.299  -2.560  -1.122  0.00  0.00    +0.380 N 
ATOM     34  C   UNL     1      -6.195  -1.419  -1.350  0.00  0.00    -0.096 C 
ATOM     35  H   UNL     1      -4.731  -2.340  -0.207  0.00  0.00    -0.082 HD
ENDBRANCH  28  29
ENDBRANCH  27  28
ENDBRANCH  25  27
ENDBRANCH   5  23
TORSDOF 9
