REMARK  Name = ZINC38671152
REMARK  7 active torsions:
REMARK  status: ('A' for Active; 'I' for Inactive)
REMARK    1  A    between atoms: C_1  and  N_2
REMARK    2  A    between atoms: C_10  and  C_12
REMARK    3  A    between atoms: C_12  and  C_14
REMARK    4  A    between atoms: C_12  and  N_29
REMARK    5  A    between atoms: C_14  and  N_15
REMARK    6  A    between atoms: N_15  and  S_16
REMARK    7  A    between atoms: S_16  and  C_19
REMARK                            x       y       z     vdW  Elec       q    Type
REMARK                         _______ _______ _______ _____ _____    ______ ____
ROOT
ATOM      1  C   UNL     1       4.647  -2.531  -0.249  0.00  0.00    -0.022 C 
ENDROOT
BRANCH   1  11
ATOM      2  C   UNL     1      -0.514   0.987   1.640  0.00  0.00    +0.129 C 
ATOM      3  N   UNL     1      -0.372  -0.447   1.378  0.00  0.00    -0.333 N 
ATOM      4  C   UNL     1      -1.520  -1.351   1.526  0.00  0.00    +0.105 C 
ATOM      5  C   UNL     1      -1.041  -2.598   2.279  0.00  0.00    +0.024 C 
ATOM      6  C   UNL     1       0.012  -3.313   1.432  0.00  0.00    +0.038 C 
ATOM      7  C   UNL     1       1.083  -2.347   0.998  0.00  0.00    -0.026 A 
ATOM      8  C   UNL     1       0.859  -0.978   0.977  0.00  0.00    +0.033 A 
ATOM      9  C   UNL     1       1.866  -0.113   0.560  0.00  0.00    +0.023 A 
ATOM     10  C   UNL     1       3.089  -0.617   0.164  0.00  0.00    +0.004 A 
ATOM     11  C   UNL     1       3.311  -1.981   0.182  0.00  0.00    -0.059 A 
ATOM     12  C   UNL     1       2.314  -2.844   0.606  0.00  0.00    +0.007 A 
ENDBRANCH   1  11
BRANCH   1  13
ATOM     13  N   UNL     1       5.130  -1.783  -1.418  0.00  0.00    +0.385 N 
ATOM     14  C   UNL     1       4.131  -1.855  -2.490  0.00  0.00    -0.078 C 
ATOM     15  C   UNL     1       4.592  -1.011  -3.680  0.00  0.00    -0.019 C 
ATOM     16  C   UNL     1       5.932  -1.549  -4.191  0.00  0.00    -0.004 C 
ATOM     17  C   UNL     1       6.946  -1.538  -3.044  0.00  0.00    -0.019 C 
ATOM     18  C   UNL     1       6.397  -2.363  -1.878  0.00  0.00    -0.078 C 
ATOM     19  H   UNL     1       5.276  -0.818  -1.161  0.00  0.00    -0.081 HD
ENDBRANCH   1  13
BRANCH   1  20
ATOM     20  C   UNL     1       5.650  -2.390   0.897  0.00  0.00    +0.095 C 
BRANCH  20  21
ATOM     21  N   UNL     1       5.220  -3.217   2.027  0.00  0.00    -0.191 NA
ATOM     22  H   UNL     1       4.315  -3.564   2.057  0.00  0.00    +0.148 HD
BRANCH  21  23
ATOM     23  S   UNL     1       6.280  -3.561   3.252  0.00  0.00    +0.059 S 
ATOM     24  O   UNL     1       5.563  -4.335   4.204  0.00  0.00    -0.153 OA
ATOM     25  O   UNL     1       7.475  -4.024   2.638  0.00  0.00    -0.153 OA
BRANCH  23  26
ATOM     26  C   UNL     1       6.678  -2.036   4.040  0.00  0.00    +0.113 A 
ATOM     27  C   UNL     1       7.951  -1.556   3.999  0.00  0.00    +0.029 A 
ATOM     28  C   UNL     1       8.284  -0.352   4.616  0.00  0.00    +0.003 A 
ATOM     29  C   UNL     1       7.346   0.379   5.279  0.00  0.00    +0.008 A 
ATOM     30  C   UNL     1       6.021  -0.084   5.342  0.00  0.00    -0.016 A 
ATOM     31  C   UNL     1       5.681  -1.306   4.709  0.00  0.00    +0.008 A 
ATOM     32  C   UNL     1       4.354  -1.766   4.768  0.00  0.00    +0.010 A 
ATOM     33  C   UNL     1       3.415  -1.032   5.425  0.00  0.00    +0.001 A 
ATOM     34  C   UNL     1       3.749   0.172   6.042  0.00  0.00    +0.001 A 
ATOM     35  C   UNL     1       5.026   0.643   6.017  0.00  0.00    +0.008 A 
ENDBRANCH  23  26
ENDBRANCH  21  23
ENDBRANCH  20  21
ENDBRANCH   1  20
TORSDOF 6
