REMARK  Name = ZINC38597839
REMARK  8 active torsions:
REMARK  status: ('A' for Active; 'I' for Inactive)
REMARK    1  A    between atoms: C_1  and  C_2
REMARK    2  A    between atoms: C_9  and  S_12
REMARK    3  A    between atoms: S_12  and  N_15
REMARK    4  A    between atoms: N_15  and  C_16
REMARK    5  A    between atoms: C_16  and  C_17
REMARK    6  A    between atoms: C_17  and  C_19
REMARK    7  A    between atoms: C_17  and  N_24
REMARK    8  A    between atoms: N_27  and  C_30
REMARK                            x       y       z     vdW  Elec       q    Type
REMARK                         _______ _______ _______ _____ _____    ______ ____
ROOT
ATOM      1  C   UNL     1       2.840   1.048   3.564  0.00  0.00    +0.015 C 
ENDROOT
BRANCH   1   2
ATOM      2  N   UNL     1       2.814   1.510   4.958  0.00  0.00    +0.389 N 
ATOM      3  C   UNL     1       1.747   2.506   5.122  0.00  0.00    -0.059 C 
ATOM      4  C   UNL     1       1.643   2.904   6.598  0.00  0.00    +0.086 C 
ATOM      5  N   UNL     1       2.968   3.353   7.054  0.00  0.00    -0.333 N 
ATOM      6  C   UNL     1       4.125   2.486   6.783  0.00  0.00    +0.086 C 
ATOM      7  C   UNL     1       4.111   2.107   5.298  0.00  0.00    -0.059 C 
ATOM      8  H   UNL     1       2.635   0.726   5.568  0.00  0.00    -0.081 HD
BRANCH   5   9
ATOM      9  C   UNL     1       3.123   4.569   7.726  0.00  0.00    +0.030 A 
ATOM     10  C   UNL     1       2.007   5.317   8.076  0.00  0.00    +0.026 A 
ATOM     11  C   UNL     1       2.162   6.518   8.740  0.00  0.00    +0.040 A 
ATOM     12  C   UNL     1       3.430   6.976   9.058  0.00  0.00    +0.124 A 
ATOM     13  C   UNL     1       4.544   6.232   8.710  0.00  0.00    +0.040 A 
ATOM     14  C   UNL     1       4.393   5.028   8.050  0.00  0.00    +0.026 A 
ATOM     15  F   UNL     1       3.579   8.152   9.707  0.00  0.00    -0.205 F 
ENDBRANCH   5   9
ENDBRANCH   1   2
BRANCH   1  16
ATOM     16  C   UNL     1       3.195   2.200   2.660  0.00  0.00    +0.093 A 
ATOM     17  C   UNL     1       4.128   2.180   1.691  0.00  0.00    +0.043 A 
ATOM     18  C   UNL     1       4.129   3.463   1.097  0.00  0.00    +0.041 A 
ATOM     19  C   UNL     1       3.196   4.190   1.738  0.00  0.00    +0.195 A 
ATOM     20  O   UNL     1       2.629   3.418   2.680  0.00  0.00    -0.469 OA
ENDBRANCH   1  16
BRANCH   1  21
ATOM     21  C   UNL     1       1.461   0.505   3.182  0.00  0.00    +0.098 C 
BRANCH  21  22
ATOM     22  N   UNL     1       1.083  -0.564   4.109  0.00  0.00    -0.191 NA
ATOM     23  H   UNL     1       1.750  -0.960   4.691  0.00  0.00    +0.148 HD
BRANCH  22  24
ATOM     24  S   UNL     1      -0.484  -1.098   4.162  0.00  0.00    +0.060 S 
ATOM     25  O   UNL     1      -1.304   0.059   4.257  0.00  0.00    -0.153 OA
ATOM     26  O   UNL     1      -0.525  -2.141   5.126  0.00  0.00    -0.153 OA
BRANCH  24  35
ATOM     27  C   UNL     1      -0.297   2.465   0.508  0.00  0.00    +0.065 C 
ATOM     28  C   UNL     1      -0.594   0.992   0.397  0.00  0.00    +0.039 A 
ATOM     29  C   UNL     1      -0.869   0.448  -0.855  0.00  0.00    +0.023 A 
ATOM     30  C   UNL     1      -1.140  -0.886  -0.974  0.00  0.00    +0.012 A 
ATOM     31  C   UNL     1      -1.132  -1.672   0.193  0.00  0.00    +0.002 A 
ATOM     32  C   UNL     1      -1.401  -3.049   0.149  0.00  0.00    +0.010 A 
ATOM     33  C   UNL     1      -1.383  -3.776   1.300  0.00  0.00    +0.003 A 
ATOM     34  C   UNL     1      -1.101  -3.170   2.523  0.00  0.00    +0.031 A 
ATOM     35  C   UNL     1      -0.836  -1.838   2.603  0.00  0.00    +0.131 A 
ATOM     36  C   UNL     1      -0.845  -1.054   1.435  0.00  0.00    +0.098 A 
ATOM     37  N   UNL     1      -0.582   0.256   1.482  0.00  0.00    -0.250 NA
ENDBRANCH  24  35
ENDBRANCH  22  24
ENDBRANCH  21  22
ENDBRANCH   1  21
TORSDOF 7
