REMARK  Name = ZINC39482315
REMARK  9 active torsions:
REMARK  status: ('A' for Active; 'I' for Inactive)
REMARK    1  A    between atoms: C_1  and  O_2
REMARK    2  A    between atoms: O_2  and  C_3
REMARK    3  A    between atoms: N_6  and  C_10
REMARK    4  A    between atoms: C_12  and  C_27
REMARK    5  A    between atoms: C_15  and  N_16
REMARK    6  A    between atoms: N_16  and  S_17
REMARK    7  A    between atoms: S_17  and  C_20
REMARK    8  A    between atoms: C_25  and  O_26
REMARK    9  A    between atoms: C_32  and  O_33
REMARK                            x       y       z     vdW  Elec       q    Type
REMARK                         _______ _______ _______ _____ _____    ______ ____
ROOT
ATOM      1  C   UNL     1      -3.477  -3.721   0.486  0.00  0.00    +0.053 A 
ATOM      2  C   UNL     1      -4.496  -3.101   1.189  0.00  0.00    +0.033 A 
ATOM      3  C   UNL     1      -5.146  -3.783   2.216  0.00  0.00    -0.013 A 
ATOM      4  C   UNL     1      -4.769  -5.086   2.534  0.00  0.00    +0.010 A 
ATOM      5  C   UNL     1      -3.753  -5.703   1.832  0.00  0.00    +0.027 A 
ATOM      6  C   UNL     1      -3.108  -5.029   0.804  0.00  0.00    +0.069 A 
ENDROOT
BRANCH   1   9
ATOM      7  C   UNL     1      -1.827  -0.840  -0.885  0.00  0.00    +0.203 C 
ATOM      8  C   UNL     1      -1.623  -2.232  -0.277  0.00  0.00    +0.153 C 
ATOM      9  N   UNL     1      -2.822  -3.040  -0.547  0.00  0.00    -0.323 N 
ATOM     10  C   UNL     1      -3.315  -3.112  -1.931  0.00  0.00    +0.120 C 
ATOM     11  C   UNL     1      -3.452  -1.686  -2.474  0.00  0.00    +0.102 C 
ATOM     12  N   UNL     1      -2.177  -0.976  -2.305  0.00  0.00    -0.289 NA
ATOM     13  H   UNL     1      -2.202  -0.075  -2.760  0.00  0.00    +0.124 HD
BRANCH   7  15
ATOM     14  C   UNL     1      -0.787   1.317  -0.983  0.00  0.00    +0.196 C 
ATOM     15  O   UNL     1      -0.620  -0.085  -0.762  0.00  0.00    -0.363 OA
ENDBRANCH   7  15
ENDBRANCH   1   9
BRANCH   3  16
ATOM     16  C   UNL     1      -6.237  -3.121   2.972  0.00  0.00    +0.024 A 
ATOM     17  C   UNL     1      -6.051  -1.844   3.497  0.00  0.00    +0.012 A 
ATOM     18  C   UNL     1      -7.070  -1.233   4.199  0.00  0.00    +0.001 A 
ATOM     19  C   UNL     1      -8.277  -1.883   4.383  0.00  0.00    +0.004 A 
ATOM     20  C   UNL     1      -8.472  -3.150   3.867  0.00  0.00    +0.046 A 
ATOM     21  C   UNL     1      -7.460  -3.773   3.155  0.00  0.00    +0.125 A 
BRANCH  21  22
ATOM     22  O   UNL     1      -7.653  -5.017   2.642  0.00  0.00    -0.506 OA
ATOM     23  H   UNL     1      -7.407  -5.733   3.243  0.00  0.00    +0.292 HD
ENDBRANCH  21  22
ENDBRANCH   3  16
BRANCH   6  24
ATOM     24  N   UNL     1      -2.082  -5.659   0.091  0.00  0.00    -0.214 N 
ATOM     25  H   UNL     1      -1.323  -5.144  -0.225  0.00  0.00    +0.174 HD
BRANCH  24  26
ATOM     26  S   UNL     1      -2.165  -7.285  -0.216  0.00  0.00    +0.076 S 
ATOM     27  O   UNL     1      -3.483  -7.545  -0.677  0.00  0.00    -0.150 OA
ATOM     28  O   UNL     1      -1.012  -7.613  -0.979  0.00  0.00    -0.150 OA
BRANCH  26  29
ATOM     29  C   UNL     1      -1.998  -8.115   1.330  0.00  0.00    +0.150 A 
ATOM     30  C   UNL     1      -3.038  -8.884   1.817  0.00  0.00    +0.032 A 
ATOM     31  C   UNL     1      -2.908  -9.535   3.029  0.00  0.00    +0.002 A 
ATOM     32  C   UNL     1      -1.738  -9.419   3.757  0.00  0.00    +0.004 A 
ATOM     33  C   UNL     1      -0.696  -8.652   3.275  0.00  0.00    +0.047 A 
ATOM     34  C   UNL     1      -0.822  -8.002   2.055  0.00  0.00    +0.143 A 
BRANCH  34  35
ATOM     35  O   UNL     1       0.204  -7.251   1.576  0.00  0.00    -0.505 OA
ATOM     36  H   UNL     1       0.189  -6.329   1.869  0.00  0.00    +0.292 HD
ENDBRANCH  34  35
ENDBRANCH  26  29
ENDBRANCH  24  26
ENDBRANCH   6  24
TORSDOF 8
