REMARK  Name = ZINC58261871
REMARK  9 active torsions:
REMARK  status: ('A' for Active; 'I' for Inactive)
REMARK    1  A    between atoms: C_1  and  C_2
REMARK    2  A    between atoms: C_6  and  O_9
REMARK    3  A    between atoms: C_7  and  C_8
REMARK    4  A    between atoms: O_9  and  C_10
REMARK    5  A    between atoms: C_10  and  C_12
REMARK    6  A    between atoms: C_10  and  C_13
REMARK    7  A    between atoms: N_15  and  N_16
REMARK    8  A    between atoms: C_17  and  C_19
REMARK    9  A    between atoms: C_26  and  C_28
REMARK                            x       y       z     vdW  Elec       q    Type
REMARK                         _______ _______ _______ _____ _____    ______ ____
ROOT
ATOM      1  N   UNL     1       0.970  -6.977   4.725  0.00  0.00    -0.234 N 
ATOM      2  C   UNL     1       0.925  -8.309   4.923  0.00  0.00    +0.234 C 
ATOM      3  O   UNL     1       0.346  -9.021   4.130  0.00  0.00    -0.274 OA
ATOM      4  H   UNL     1       1.433  -6.408   5.359  0.00  0.00    +0.173 HD
ENDROOT
BRANCH   2   5
ATOM      5  C   UNL     1       1.595  -8.915   6.130  0.00  0.00    +0.094 C 
ATOM      6  C   UNL     1       1.395 -10.432   6.117  0.00  0.00    +0.016 C 
ATOM      7  C   UNL     1       2.103 -11.051   7.325  0.00  0.00    +0.020 C 
ATOM      8  C   UNL     1       1.490 -10.493   8.613  0.00  0.00    +0.108 C 
ATOM      9  N   UNL     1       1.547  -9.026   8.567  0.00  0.00    -0.297 N 
ATOM     10  C   UNL     1       0.977  -8.332   7.404  0.00  0.00    +0.120 C 
ATOM     11  C   UNL     1       2.113  -8.329   9.572  0.00  0.00    +0.247 C 
ATOM     12  O   UNL     1       2.092  -7.113   9.557  0.00  0.00    -0.270 OA
BRANCH  11  13
ATOM     13  C   UNL     1       2.757  -9.041  10.691  0.00  0.00    +0.045 A 
ATOM     14  C   UNL     1       2.061 -10.008  11.402  0.00  0.00    +0.014 A 
ATOM     15  C   UNL     1       2.663 -10.682  12.457  0.00  0.00    +0.001 A 
ATOM     16  C   UNL     1       3.948 -10.415  12.823  0.00  0.00    +0.008 A 
ATOM     17  C   UNL     1       4.692  -9.443  12.132  0.00  0.00    -0.017 A 
ATOM     18  C   UNL     1       4.098  -8.749  11.050  0.00  0.00    -0.006 A 
ATOM     19  C   UNL     1       4.841  -7.784  10.357  0.00  0.00    +0.009 A 
ATOM     20  C   UNL     1       6.127  -7.528  10.729  0.00  0.00    +0.001 A 
ATOM     21  C   UNL     1       6.715  -8.214  11.790  0.00  0.00    +0.001 A 
ATOM     22  C   UNL     1       6.018  -9.149  12.492  0.00  0.00    +0.008 A 
ENDBRANCH  11  13
ENDBRANCH   2   5
BRANCH   1  25
ATOM     23  C   UNL     1       0.392  -5.082   3.405  0.00  0.00    +0.270 C 
ATOM     24  O   UNL     1       0.971  -4.370   4.198  0.00  0.00    -0.270 OA
ATOM     25  N   UNL     1       0.347  -6.414   3.603  0.00  0.00    -0.231 N 
ATOM     26  H   UNL     1      -0.116  -6.984   2.969  0.00  0.00    +0.173 HD
BRANCH  23  27
ATOM     27  C   UNL     1      -0.278  -4.476   2.199  0.00  0.00    +0.257 C 
ATOM     28  C   UNL     1      -1.791  -4.687   2.296  0.00  0.00    +0.062 C 
BRANCH  27  29
ATOM     29  O   UNL     1       0.005  -3.077   2.149  0.00  0.00    -0.480 OA
BRANCH  29  35
ATOM     30  C   UNL     1       0.288   0.987  -0.540  0.00  0.00    +0.044 C 
ATOM     31  C   UNL     1       0.047  -0.495  -0.414  0.00  0.00    -0.044 A 
ATOM     32  C   UNL     1      -0.267  -1.241  -1.536  0.00  0.00    +0.004 A 
ATOM     33  C   UNL     1      -0.490  -2.601  -1.424  0.00  0.00    +0.004 A 
ATOM     34  C   UNL     1      -0.399  -3.218  -0.191  0.00  0.00    +0.046 A 
ATOM     35  C   UNL     1      -0.084  -2.472   0.935  0.00  0.00    +0.125 A 
ATOM     36  C   UNL     1       0.144  -1.108   0.819  0.00  0.00    -0.006 A 
ATOM     37  C   UNL     1       0.493  -0.296   2.040  0.00  0.00    +0.048 C 
ENDBRANCH  29  35
ENDBRANCH  27  29
ENDBRANCH  23  27
ENDBRANCH   1  25
TORSDOF 6
