REMARK  Name = ZINC02459748
REMARK  7 active torsions:
REMARK  status: ('A' for Active; 'I' for Inactive)
REMARK    1  A    between atoms: C_1  and  C_2
REMARK    2  A    between atoms: C_5  and  S_23
REMARK    3  A    between atoms: C_10  and  C_11
REMARK    4  A    between atoms: N_13  and  C_14
REMARK    5  A    between atoms: C_20  and  C_22
REMARK    6  A    between atoms: S_23  and  N_26
REMARK    7  A    between atoms: C_29  and  C_32
REMARK                            x       y       z     vdW  Elec       q    Type
REMARK                         _______ _______ _______ _____ _____    ______ ____
ROOT
ATOM      1  C   UNL     1       0.320  -3.098  -0.005  0.00  0.00    +0.048 C 
ATOM      2  C   UNL     1       1.425  -2.072  -0.017  0.00  0.00    +0.008 A 
ATOM      3  C   UNL     1       2.864  -2.330  -0.038  0.00  0.00    +0.026 A 
ATOM      4  C   UNL     1       3.646  -3.488  -0.053  0.00  0.00    +0.040 A 
ATOM      5  C   UNL     1       5.008  -3.386  -0.066  0.00  0.00    +0.106 A 
ATOM      6  C   UNL     1       5.619  -2.139  -0.064  0.00  0.00    +0.032 A 
ATOM      7  C   UNL     1       4.866  -0.985  -0.050  0.00  0.00    +0.049 A 
ATOM      8  C   UNL     1       3.478  -1.065  -0.037  0.00  0.00    +0.136 A 
ATOM      9  O   UNL     1       2.501  -0.137  -0.022  0.00  0.00    -0.450 OA
ATOM     10  C   UNL     1       1.285  -0.722  -0.014  0.00  0.00    +0.193 A 
ENDROOT
BRANCH  10  11
ATOM     11  C   UNL     1       0.002  -0.004   0.002  0.00  0.00    +0.280 C 
ATOM     12  O   UNL     1      -1.043  -0.627   0.009  0.00  0.00    -0.267 OA
ATOM     13  N   UNL     1      -0.016   1.344   0.009  0.00  0.00    -0.306 N 
ATOM     14  H   UNL     1       0.817   1.840   0.004  0.00  0.00    +0.149 HD
BRANCH  13  15
ATOM     15  C   UNL     1      -1.295   2.059   0.019  0.00  0.00    +0.076 C 
ATOM     16  C   UNL     1      -1.794   2.190   1.460  0.00  0.00    +0.022 C 
ATOM     17  C   UNL     1      -3.130   2.937   1.470  0.00  0.00    +0.002 C 
ATOM     18  C   UNL     1      -2.939   4.330   0.867  0.00  0.00    +0.000 C 
ATOM     19  C   UNL     1      -2.440   4.199  -0.573  0.00  0.00    +0.005 C 
ATOM     20  C   UNL     1      -1.105   3.452  -0.584  0.00  0.00    +0.006 C 
ATOM     21  C   UNL     1      -0.605   3.321  -2.024  0.00  0.00    +0.009 C 
ENDBRANCH  13  15
ENDBRANCH  10  11
BRANCH   5  22
ATOM     22  S   UNL     1       5.995  -4.845  -0.085  0.00  0.00    +0.061 S 
ATOM     23  O   UNL     1       7.260  -4.487   0.456  0.00  0.00    -0.153 OA
ATOM     24  O   UNL     1       5.197  -5.883   0.468  0.00  0.00    -0.153 OA
BRANCH  22  25
ATOM     25  N   UNL     1       6.254  -5.240  -1.672  0.00  0.00    -0.177 NA
ATOM     26  C   UNL     1       5.327  -6.133  -2.382  0.00  0.00    +0.110 C 
ATOM     27  C   UNL     1       4.862  -5.431  -3.667  0.00  0.00    +0.020 C 
ATOM     28  C   UNL     1       6.087  -5.017  -4.487  0.00  0.00    -0.012 C 
ATOM     29  C   UNL     1       6.933  -4.030  -3.679  0.00  0.00    +0.020 C 
ATOM     30  C   UNL     1       7.418  -4.710  -2.395  0.00  0.00    +0.110 C 
ATOM     31  C   UNL     1       5.629  -4.352  -5.786  0.00  0.00    +0.007 C 
ENDBRANCH  22  25
ENDBRANCH   5  22
TORSDOF 4
