REMARK  Name = ZINC43260570
REMARK  6 active torsions:
REMARK  status: ('A' for Active; 'I' for Inactive)
REMARK    1  A    between atoms: C_1  and  C_2
REMARK    2  A    between atoms: C_2  and  C_4
REMARK    3  A    between atoms: C_2  and  N_24
REMARK    4  A    between atoms: C_4  and  C_6
REMARK    5  A    between atoms: C_4  and  N_12
REMARK    6  A    between atoms: C_16  and  C_18
REMARK                            x       y       z     vdW  Elec       q    Type
REMARK                         _______ _______ _______ _____ _____    ______ ____
ROOT
ATOM      1  C   UNL     1       0.534  -0.040   1.410  0.00  0.00    -0.045 C 
ENDROOT
BRANCH   1   2
ATOM      2  C   UNL     1       1.879   0.464   1.868  0.00  0.00    -0.024 A 
ATOM      3  C   UNL     1       2.235   1.713   2.256  0.00  0.00    +0.010 A 
ATOM      4  C   UNL     1       3.542   1.949   2.640  0.00  0.00    +0.023 A 
ATOM      5  C   UNL     1       4.429   0.923   2.617  0.00  0.00    +0.055 A 
ATOM      6  S   UNL     1       3.413  -0.430   2.047  0.00  0.00    -0.088 S 
ATOM      7 BR   UNL     1       6.263   0.924   3.077  0.00  0.00    -0.043 Br
ENDBRANCH   1   2
BRANCH   1   8
ATOM      8  N   UNL     1       0.292  -1.373   1.978  0.00  0.00    +0.388 N 
ATOM      9  C   UNL     1       0.696  -1.388   3.401  0.00  0.00    -0.077 C 
ATOM     10  C   UNL     1      -0.612  -1.116   4.186  0.00  0.00    -0.020 C 
ATOM     11  C   UNL     1      -1.654  -1.893   3.338  0.00  0.00    -0.013 C 
ATOM     12  C   UNL     1      -1.145  -1.694   1.895  0.00  0.00    -0.037 C 
ATOM     13  H   UNL     1       0.824  -2.062   1.469  0.00  0.00    -0.080 HD
BRANCH  12  14
ATOM     14  C   UNL     1      -1.342  -2.961   1.103  0.00  0.00    -0.061 A 
ATOM     15  C   UNL     1      -0.417  -3.984   1.195  0.00  0.00    +0.002 A 
ATOM     16  C   UNL     1      -0.597  -5.147   0.469  0.00  0.00    +0.000 A 
ATOM     17  C   UNL     1      -1.703  -5.286  -0.349  0.00  0.00    +0.000 A 
ATOM     18  C   UNL     1      -2.628  -4.263  -0.441  0.00  0.00    +0.000 A 
ATOM     19  C   UNL     1      -2.450  -3.102   0.289  0.00  0.00    +0.002 A 
ENDBRANCH  12  14
ENDBRANCH   1   8
BRANCH   1  21
ATOM     20  C   UNL     1       0.722   1.269  -0.710  0.00  0.00    -0.016 C 
ATOM     21  C   UNL     1       0.515  -0.126  -0.117  0.00  0.00    -0.088 C 
BRANCH  21  22
ATOM     22  N   UNL     1      -0.780  -0.659  -0.562  0.00  0.00    +0.379 N 
ATOM     23  H   UNL     1      -0.906  -0.463  -1.543  0.00  0.00    -0.090 HD
ATOM     24  H   UNL     1      -0.801  -1.657  -0.413  0.00  0.00    -0.090 HD
ATOM     25  H   UNL     1      -1.521  -0.225  -0.034  0.00  0.00    -0.090 HD
ENDBRANCH  21  22
ENDBRANCH   1  21
TORSDOF 5
