REMARK  Name = ZINC00398957
REMARK  2 active torsions:
REMARK  status: ('A' for Active; 'I' for Inactive)
REMARK    1  A    between atoms: C_10  and  C_13
REMARK    2  A    between atoms: C_10  and  O_20
REMARK                            x       y       z     vdW  Elec       q    Type
REMARK                         _______ _______ _______ _____ _____    ______ ____
ROOT
ATOM      1  C   UNL     1      -0.169   4.992  -4.406  0.00  0.00    +0.002 A 
ATOM      2  C   UNL     1      -0.122   3.608  -4.325  0.00  0.00    +0.002 A 
ATOM      3  C   UNL     1      -0.439   2.967  -3.144  0.00  0.00    +0.028 A 
ATOM      4  C   UNL     1      -0.805   3.714  -2.037  0.00  0.00    +0.072 A 
ATOM      5  C   UNL     1      -0.854   5.111  -2.111  0.00  0.00    +0.090 A 
ATOM      6  C   UNL     1      -0.532   5.747  -3.313  0.00  0.00    +0.030 A 
ATOM      7  N   UNL     1      -1.238   5.560  -0.889  0.00  0.00    -0.222 NA
ATOM      8  C   UNL     1      -1.422   4.539  -0.090  0.00  0.00    +0.173 A 
ATOM      9  N   UNL     1      -1.174   3.360  -0.729  0.00  0.00    -0.285 N 
ATOM     10  C   UNL     1      -1.332   2.114   0.020  0.00  0.00    +0.181 C 
ATOM     11  C   UNL     1      -1.771   2.309   1.479  0.00  0.00    +0.140 C 
ATOM     12  S   UNL     1      -1.894   4.130   1.576  0.00  0.00    -0.082 S 
ENDROOT
BRANCH  10  13
ATOM     13  C   UNL     1      -0.017   1.378   0.010  0.00  0.00    +0.006 A 
ATOM     14  C   UNL     1       1.171   2.086   0.002  0.00  0.00    +0.010 A 
ATOM     15  C   UNL     1       2.377   1.412  -0.013  0.00  0.00    +0.020 A 
ATOM     16  C   UNL     1       2.397   0.029  -0.021  0.00  0.00    +0.041 A 
ATOM     17  C   UNL     1       1.208  -0.679  -0.013  0.00  0.00    +0.020 A 
ATOM     18  C   UNL     1       0.002  -0.004   0.002  0.00  0.00    +0.010 A 
ATOM     19 CL   UNL     1       3.912  -0.818  -0.040  0.00  0.00    -0.084 Cl
ENDBRANCH  10  13
BRANCH  10  20
ATOM     20  O   UNL     1      -2.307   1.306  -0.643  0.00  0.00    -0.365 OA
ATOM     21  H   UNL     1      -2.441   0.439  -0.237  0.00  0.00    +0.213 HD
ENDBRANCH  10  20
TORSDOF 2
