REMARK  Name = ZINC59506294
REMARK  5 active torsions:
REMARK  status: ('A' for Active; 'I' for Inactive)
REMARK    1  A    between atoms: C_1  and  C_2
REMARK    2  A    between atoms: C_5  and  N_8
REMARK    3  A    between atoms: C_14  and  N_19
REMARK    4  A    between atoms: C_20  and  C_21
REMARK    5  A    between atoms: C_26  and  O_27
REMARK                            x       y       z     vdW  Elec       q    Type
REMARK                         _______ _______ _______ _____ _____    ______ ____
ROOT
ATOM      1  N   UNL     1       0.059  -4.172  -0.021  0.00  0.00    -0.202 N 
ATOM      2  C   UNL     1       0.069  -4.926  -1.134  0.00  0.00    +0.258 C 
ATOM      3  O   UNL     1       0.063  -4.506  -2.274  0.00  0.00    -0.269 OA
ATOM      4  C   UNL     1       0.088  -6.348  -0.742  0.00  0.00    +0.050 A 
ATOM      5  C   UNL     1       0.104  -7.545  -1.446  0.00  0.00    +0.016 A 
ATOM      6  C   UNL     1       0.120  -8.745  -0.764  0.00  0.00    +0.028 A 
ATOM      7  C   UNL     1       0.121  -8.763   0.634  0.00  0.00    +0.065 A 
ATOM      8  C   UNL     1       0.104  -7.559   1.353  0.00  0.00    +0.041 A 
ATOM      9  C   UNL     1       0.089  -6.358   0.671  0.00  0.00    +0.052 A 
ATOM     10  C   UNL     1       0.074  -4.938   1.084  0.00  0.00    +0.258 C 
ATOM     11  O   UNL     1       0.074  -4.533   2.229  0.00  0.00    -0.269 OA
ENDROOT
BRANCH   1  16
ATOM     12  C   UNL     1      -0.018   1.503   0.010  0.00  0.00    +0.044 C 
ATOM     13  C   UNL     1       0.002  -0.004   0.002  0.00  0.00    -0.050 A 
ATOM     14  C   UNL     1       0.006  -0.688  -1.200  0.00  0.00    +0.005 A 
ATOM     15  C   UNL     1       0.025  -2.068  -1.211  0.00  0.00    +0.024 A 
ATOM     16  C   UNL     1       0.040  -2.771  -0.013  0.00  0.00    +0.045 A 
ATOM     17  C   UNL     1       0.037  -2.082   1.192  0.00  0.00    +0.024 A 
ATOM     18  C   UNL     1       0.023  -0.700   1.196  0.00  0.00    +0.005 A 
ENDBRANCH   1  16
BRANCH   7  19
ATOM     19  N   UNL     1       0.137  -9.954   1.300  0.00  0.00    -0.255 NA
ATOM     20  C   UNL     1      -0.650 -10.925   0.921  0.00  0.00    +0.123 C 
BRANCH  20  21
ATOM     21  C   UNL     1      -0.633 -12.207   1.638  0.00  0.00    +0.034 A 
ATOM     22  C   UNL     1      -1.470 -13.252   1.232  0.00  0.00    +0.013 A 
ATOM     23  C   UNL     1      -1.448 -14.452   1.909  0.00  0.00    +0.001 A 
ATOM     24  C   UNL     1      -0.601 -14.629   2.991  0.00  0.00    +0.004 A 
ATOM     25  C   UNL     1       0.230 -13.606   3.404  0.00  0.00    +0.046 A 
ATOM     26  C   UNL     1       0.227 -12.393   2.732  0.00  0.00    +0.125 A 
BRANCH  26  27
ATOM     27  O   UNL     1       1.048 -11.390   3.132  0.00  0.00    -0.506 OA
ATOM     28  H   UNL     1       0.657 -10.803   3.793  0.00  0.00    +0.292 HD
ENDBRANCH  26  27
ENDBRANCH  20  21
ENDBRANCH   7  19
TORSDOF 4
