REMARK  Name = ZINC09670634
REMARK  6 active torsions:
REMARK  status: ('A' for Active; 'I' for Inactive)
REMARK    1  A    between atoms: C_1  and  N_2
REMARK    2  A    between atoms: C_6  and  C_8
REMARK    3  A    between atoms: C_8  and  C_10
REMARK    4  A    between atoms: C_8  and  N_56
REMARK    5  A    between atoms: C_19  and  C_22
REMARK    6  A    between atoms: C_28  and  C_31
REMARK                            x       y       z     vdW  Elec       q    Type
REMARK                         _______ _______ _______ _____ _____    ______ ____
ROOT
ATOM      1  C   UNL     1       1.509  -2.477   0.050  0.00  0.00    -0.077 C 
ATOM      2  C   UNL     1       0.793  -2.028  -1.226  0.00  0.00    -0.018 C 
ATOM      3  C   UNL     1       0.724  -0.499  -1.255  0.00  0.00    +0.007 C 
ATOM      4  C   UNL     1       0.002  -0.004   0.002  0.00  0.00    +0.041 C 
ATOM      5  C   UNL     1       0.742  -0.512   1.242  0.00  0.00    -0.066 C 
ATOM      6  N   UNL     1       0.752  -1.990   1.223  0.00  0.00    +0.391 N 
ATOM      7  H   UNL     1      -0.215  -2.329   1.159  0.00  0.00    -0.080 HD
ENDROOT
BRANCH   4   8
ATOM      8  C   UNL     1      -0.018   1.503   0.010  0.00  0.00    +0.139 A 
ATOM      9  N   UNL     1       1.026   2.291   0.005  0.00  0.00    -0.133 NA
ATOM     10  N   UNL     1       0.655   3.523   0.014  0.00  0.00    -0.129 NA
ATOM     11  C   UNL     1      -0.666   3.586   0.027  0.00  0.00    +0.161 A 
ATOM     12  N   UNL     1      -1.127   2.292   0.019  0.00  0.00    -0.286 N 
ATOM     13  C   UNL     1      -2.466   2.035   0.035  0.00  0.00    +0.106 A 
ATOM     14  C   UNL     1      -3.358   3.048   0.049  0.00  0.00    +0.071 A 
ATOM     15  C   UNL     1      -2.917   4.382   0.051  0.00  0.00    +0.017 A 
ATOM     16  C   UNL     1      -1.585   4.653   0.041  0.00  0.00    +0.049 A 
BRANCH  14  17
ATOM     17  C   UNL     1      -4.834   2.746   0.061  0.00  0.00    +0.419 C 
ATOM     18  F   UNL     1      -5.555   3.944   0.074  0.00  0.00    -0.166 F 
ATOM     19  F   UNL     1      -5.170   2.012  -1.082  0.00  0.00    -0.166 F 
ATOM     20  F   UNL     1      -5.148   2.000   1.202  0.00  0.00    -0.166 F 
ENDBRANCH  14  17
ENDBRANCH   4   8
BRANCH   6  21
ATOM     21  C   UNL     1       1.360  -2.507   2.466  0.00  0.00    +0.050 C 
BRANCH  21  27
ATOM     22  C   UNL     1      -0.342  -1.959   8.329  0.00  0.00    +0.129 C 
ATOM     23  N   UNL     1       0.469  -2.394   7.189  0.00  0.00    -0.302 N 
ATOM     24  C   UNL     1       0.124  -2.027   5.938  0.00  0.00    +0.306 C 
ATOM     25  O   UNL     1      -0.859  -1.336   5.757  0.00  0.00    -0.252 OA
ATOM     26  N   UNL     1       0.870  -2.426   4.889  0.00  0.00    -0.241 N 
ATOM     27  C   UNL     1       0.526  -2.060   3.639  0.00  0.00    +0.211 C 
ATOM     28  O   UNL     1      -0.455  -1.371   3.458  0.00  0.00    -0.277 OA
ATOM     29  H   UNL     1       1.253  -2.945   7.334  0.00  0.00    +0.150 HD
ATOM     30  H   UNL     1       1.655  -2.978   5.034  0.00  0.00    +0.159 HD
ENDBRANCH  21  27
BRANCH  21  31
ATOM     31  C   UNL     1       1.383  -4.013   2.410  0.00  0.00    -0.052 A 
ATOM     32  C   UNL     1       0.311  -4.701   1.873  0.00  0.00    +0.002 A 
ATOM     33  C   UNL     1       0.334  -6.082   1.818  0.00  0.00    +0.000 A 
ATOM     34  C   UNL     1       1.425  -6.775   2.309  0.00  0.00    +0.000 A 
ATOM     35  C   UNL     1       2.494  -6.087   2.851  0.00  0.00    +0.000 A 
ATOM     36  C   UNL     1       2.473  -4.706   2.902  0.00  0.00    +0.002 A 
ENDBRANCH  21  31
ENDBRANCH   6  21
TORSDOF 5
