REMARK  Name = ZINC36556352
REMARK  15 active torsions:
REMARK  status: ('A' for Active; 'I' for Inactive)
REMARK    1  A    between atoms: C_1  and  C_2
REMARK    2  A    between atoms: C_2  and  C_3
REMARK    3  A    between atoms: C_3  and  C_4
REMARK    4  A    between atoms: C_4  and  N_5
REMARK    5  A    between atoms: C_6  and  C_8
REMARK    6  A    between atoms: C_8  and  C_10
REMARK    7  A    between atoms: C_8  and  N_20
REMARK    8  A    between atoms: C_13  and  C_16
REMARK    9  A    between atoms: N_20  and  C_21
REMARK   10  A    between atoms: C_21  and  C_22
REMARK   11  A    between atoms: C_25  and  C_27
REMARK   12  A    between atoms: C_28  and  C_30
REMARK   13  A    between atoms: C_30  and  C_32
REMARK   14  A    between atoms: C_30  and  O_38
REMARK   15  A    between atoms: O_38  and  C_39
REMARK                            x       y       z     vdW  Elec       q    Type
REMARK                         _______ _______ _______ _____ _____    ______ ____
ROOT
ATOM      1  C   UNL     1      -4.638  -3.769   0.224  0.00  0.00    +0.193 C 
ENDROOT
BRANCH   1   2
ATOM      2  C   UNL     1      -5.874  -3.053   0.703  0.00  0.00    -0.018 A 
ATOM      3  C   UNL     1      -6.478  -3.433   1.887  0.00  0.00    +0.006 A 
ATOM      4  C   UNL     1      -7.612  -2.776   2.326  0.00  0.00    +0.013 A 
ATOM      5  C   UNL     1      -8.141  -1.738   1.583  0.00  0.00    +0.055 A 
ATOM      6  C   UNL     1      -7.537  -1.357   0.399  0.00  0.00    +0.013 A 
ATOM      7  C   UNL     1      -6.400  -2.011  -0.038  0.00  0.00    +0.006 A 
BRANCH   5   8
ATOM      8  C   UNL     1      -9.378  -1.022   2.061  0.00  0.00    +0.417 C 
ATOM      9  F   UNL     1      -9.007   0.123   2.774  0.00  0.00    -0.166 F 
ATOM     10  F   UNL     1     -10.159  -0.654   0.961  0.00  0.00    -0.166 F 
ATOM     11  F   UNL     1     -10.116  -1.871   2.893  0.00  0.00    -0.166 F 
ENDBRANCH   5   8
ENDBRANCH   1   2
BRANCH   1  13
ATOM     12  N   UNL     1      -3.149  -2.672   1.867  0.00  0.00    -0.313 N 
ATOM     13  C   UNL     1      -3.622  -3.817   1.336  0.00  0.00    +0.238 C 
ATOM     14  O   UNL     1      -3.229  -4.886   1.753  0.00  0.00    -0.273 OA
ATOM     15  H   UNL     1      -3.463  -1.817   1.533  0.00  0.00    +0.149 HD
BRANCH  12  16
ATOM     16  C   UNL     1      -2.162  -2.719   2.948  0.00  0.00    +0.104 C 
BRANCH  16  17
ATOM     17  C   UNL     1      -1.795  -1.293   3.366  0.00  0.00    +0.018 C 
BRANCH  17  19
ATOM     18  C   UNL     1      -0.398   0.083   4.913  0.00  0.00    +0.004 C 
ATOM     19  C   UNL     1      -0.764  -1.342   4.495  0.00  0.00    -0.002 C 
ENDBRANCH  17  19
ENDBRANCH  16  17
ENDBRANCH  12  16
ENDBRANCH   1  13
BRANCH   1  20
ATOM     20  N   UNL     1      -4.988  -5.134  -0.177  0.00  0.00    -0.276 N 
ATOM     21  C   UNL     1      -4.870  -5.509  -1.466  0.00  0.00    +0.250 C 
ATOM     22  O   UNL     1      -4.377  -4.753  -2.275  0.00  0.00    -0.272 OA
BRANCH  20  23
ATOM     23  C   UNL     1      -5.468  -6.090   0.824  0.00  0.00    +0.183 C 
BRANCH  23  24
ATOM     24  C   UNL     1      -6.974  -6.123   0.806  0.00  0.00    +0.122 A 
ATOM     25  C   UNL     1      -7.734  -7.025   0.158  0.00  0.00    +0.046 A 
ATOM     26  C   UNL     1      -9.082  -6.682   0.411  0.00  0.00    +0.045 A 
ATOM     27  C   UNL     1      -9.066  -5.592   1.199  0.00  0.00    +0.102 A 
ATOM     28  O   UNL     1      -7.786  -5.261   1.440  0.00  0.00    -0.463 OA
ATOM     29  C   UNL     1     -10.277  -4.868   1.726  0.00  0.00    +0.086 C 
ENDBRANCH  23  24
ENDBRANCH  20  23
BRANCH  21  30
ATOM     30  C   UNL     1      -5.351  -6.870  -1.901  0.00  0.00    +0.233 C 
BRANCH  30  31
ATOM     31  C   UNL     1      -4.366  -7.918  -1.451  0.00  0.00    -0.010 A 
ATOM     32  C   UNL     1      -3.115  -7.988  -2.036  0.00  0.00    +0.006 A 
ATOM     33  C   UNL     1      -2.212  -8.950  -1.623  0.00  0.00    +0.000 A 
ATOM     34  C   UNL     1      -2.560  -9.841  -0.626  0.00  0.00    +0.000 A 
ATOM     35  C   UNL     1      -3.810  -9.771  -0.041  0.00  0.00    +0.000 A 
ATOM     36  C   UNL     1      -4.712  -8.806  -0.450  0.00  0.00    +0.006 A 
ENDBRANCH  30  31
BRANCH  30  37
ATOM     37  O   UNL     1      -5.463  -6.902  -3.325  0.00  0.00    -0.366 OA
ATOM     38  C   UNL     1      -6.746  -6.506  -3.816  0.00  0.00    +0.195 C 
ENDBRANCH  30  37
ENDBRANCH  21  30
ENDBRANCH   1  20
TORSDOF 12
