REMARK  Name = ZINC67103599
REMARK  9 active torsions:
REMARK  status: ('A' for Active; 'I' for Inactive)
REMARK    1  A    between atoms: C_1  and  C_2
REMARK    2  A    between atoms: C_2  and  C_3
REMARK    3  A    between atoms: C_3  and  C_4
REMARK    4  A    between atoms: C_4  and  C_6
REMARK    5  A    between atoms: C_4  and  N_7
REMARK    6  A    between atoms: C_8  and  C_10
REMARK    7  A    between atoms: N_19  and  N_20
REMARK    8  A    between atoms: C_21  and  C_23
REMARK    9  A    between atoms: C_23  and  C_24
REMARK                            x       y       z     vdW  Elec       q    Type
REMARK                         _______ _______ _______ _____ _____    ______ ____
ROOT
ATOM      1  C   UNL     1       2.134  -4.219  -1.600  0.00  0.00    +0.092 C 
ATOM      2  C   UNL     1       1.676  -5.626  -1.991  0.00  0.00    +0.016 C 
ATOM      3  C   UNL     1       2.520  -6.133  -3.163  0.00  0.00    +0.020 C 
ATOM      4  C   UNL     1       2.321  -5.207  -4.367  0.00  0.00    +0.109 C 
ATOM      5  N   UNL     1       2.621  -3.828  -3.959  0.00  0.00    -0.284 N 
ATOM      6  C   UNL     1       1.931  -3.272  -2.787  0.00  0.00    +0.122 C 
ATOM      7  C   UNL     1       3.512  -3.087  -4.647  0.00  0.00    +0.319 C 
ATOM      8  O   UNL     1       3.684  -1.919  -4.356  0.00  0.00    -0.251 OA
ATOM      9  N   UNL     1       4.212  -3.640  -5.657  0.00  0.00    -0.218 N 
ATOM     10  H   UNL     1       4.023  -4.550  -5.937  0.00  0.00    +0.174 HD
ENDROOT
BRANCH   1  12
ATOM     11  N   UNL     1       1.554  -2.512   0.093  0.00  0.00    -0.312 N 
ATOM     12  C   UNL     1       1.324  -3.734  -0.425  0.00  0.00    +0.218 C 
ATOM     13  O   UNL     1       0.466  -4.444   0.054  0.00  0.00    -0.275 OA
ATOM     14  H   UNL     1       2.240  -1.944  -0.290  0.00  0.00    +0.149 HD
BRANCH  11  15
ATOM     15  C   UNL     1       0.766  -2.040   1.235  0.00  0.00    +0.070 C 
ATOM     16  C   UNL     1       1.397  -2.548   2.533  0.00  0.00    +0.028 C 
BRANCH  15  17
ATOM     17  C   UNL     1       0.745  -0.510   1.242  0.00  0.00    +0.022 C 
BRANCH  17  19
ATOM     18  C   UNL     1      -0.019   1.525   0.011  0.00  0.00    +0.004 C 
ATOM     19  C   UNL     1       0.003  -0.005   0.003  0.00  0.00    -0.002 C 
ENDBRANCH  17  19
ENDBRANCH  15  17
ENDBRANCH  11  15
ENDBRANCH   1  12
BRANCH   9  20
ATOM     20  N   UNL     1       5.214  -2.903  -6.301  0.00  0.00    -0.233 N 
ATOM     21  C   UNL     1       5.844  -3.418  -7.375  0.00  0.00    +0.229 C 
ATOM     22  O   UNL     1       5.545  -4.520  -7.784  0.00  0.00    -0.274 OA
ATOM     23  H   UNL     1       5.453  -2.021  -5.975  0.00  0.00    +0.173 HD
BRANCH  21  24
ATOM     24  C   UNL     1       6.921  -2.624  -8.069  0.00  0.00    +0.101 C 
BRANCH  24  25
ATOM     25  C   UNL     1       7.470  -3.431  -9.248  0.00  0.00    -0.002 C 
ATOM     26  C   UNL     1       8.167  -4.688  -8.725  0.00  0.00    +0.004 C 
ATOM     27  C   UNL     1       8.716  -5.495  -9.903  0.00  0.00    +0.000 C 
ATOM     28  C   UNL     1       9.720  -4.642 -10.682  0.00  0.00    +0.000 C 
ATOM     29  C   UNL     1       9.023  -3.384 -11.205  0.00  0.00    +0.000 C 
ATOM     30  C   UNL     1       8.474  -2.578 -10.026  0.00  0.00    +0.004 C 
ENDBRANCH  24  25
ENDBRANCH  21  24
ENDBRANCH   9  20
TORSDOF 7
