REMARK  Name = ZINC36240201
REMARK  8 active torsions:
REMARK  status: ('A' for Active; 'I' for Inactive)
REMARK    1  A    between atoms: C_1  and  C_2
REMARK    2  A    between atoms: C_2  and  C_4
REMARK    3  A    between atoms: C_2  and  O_19
REMARK    4  A    between atoms: N_6  and  C_7
REMARK    5  A    between atoms: C_12  and  C_13
REMARK    6  A    between atoms: O_19  and  C_20
REMARK    7  A    between atoms: C_20  and  C_22
REMARK    8  A    between atoms: C_25  and  N_28
REMARK                            x       y       z     vdW  Elec       q    Type
REMARK                         _______ _______ _______ _____ _____    ______ ____
ROOT
ATOM      1  C   UNL     1       0.071   1.547  -0.031  0.00  0.00    +0.062 C 
ATOM      2  C   UNL     1       0.080   0.017  -0.035  0.00  0.00    +0.259 C 
ENDROOT
BRANCH   2   3
ATOM      3  C   UNL     1      -1.338  -0.494  -0.013  0.00  0.00    +0.258 C 
ATOM      4  O   UNL     1      -1.741  -1.119   0.945  0.00  0.00    -0.271 OA
ATOM      5  N   UNL     1      -2.157  -0.256  -1.056  0.00  0.00    -0.282 N 
ATOM      6  H   UNL     1      -1.861   0.312  -1.785  0.00  0.00    +0.155 HD
BRANCH   5   7
ATOM      7  C   UNL     1      -3.432  -0.826  -1.087  0.00  0.00    +0.041 A 
ATOM      8  C   UNL     1      -3.691  -1.992  -0.382  0.00  0.00    +0.024 A 
ATOM      9  C   UNL     1      -4.952  -2.554  -0.415  0.00  0.00    +0.002 A 
ATOM     10  C   UNL     1      -5.964  -1.959  -1.148  0.00  0.00    +0.001 A 
ATOM     11  C   UNL     1      -5.721  -0.798  -1.854  0.00  0.00    +0.010 A 
ATOM     12  C   UNL     1      -4.455  -0.219  -1.825  0.00  0.00    +0.003 A 
BRANCH  12  13
ATOM     13  C   UNL     1      -4.190   1.031  -2.577  0.00  0.00    -0.016 A 
ATOM     14  C   UNL     1      -3.565   2.107  -1.948  0.00  0.00    +0.008 A 
ATOM     15  C   UNL     1      -3.321   3.268  -2.653  0.00  0.00    +0.001 A 
ATOM     16  C   UNL     1      -3.695   3.366  -3.981  0.00  0.00    +0.000 A 
ATOM     17  C   UNL     1      -4.316   2.302  -4.610  0.00  0.00    +0.001 A 
ATOM     18  C   UNL     1      -4.561   1.134  -3.917  0.00  0.00    +0.008 A 
ENDBRANCH  12  13
ENDBRANCH   5   7
ENDBRANCH   2   3
BRANCH   2  19
ATOM     19  O   UNL     1       0.776  -0.458   1.118  0.00  0.00    -0.449 OA
BRANCH  19  20
ATOM     20  C   UNL     1       2.104  -0.654   0.994  0.00  0.00    +0.340 C 
ATOM     21  O   UNL     1       2.655  -0.427  -0.065  0.00  0.00    -0.245 OA
BRANCH  20  22
ATOM     22  C   UNL     1       2.888  -1.143   2.144  0.00  0.00    +0.059 A 
ATOM     23  C   UNL     1       2.255  -1.410   3.361  0.00  0.00    +0.017 A 
ATOM     24  C   UNL     1       2.990  -1.867   4.432  0.00  0.00    +0.025 A 
ATOM     25  C   UNL     1       4.361  -2.062   4.304  0.00  0.00    +0.044 A 
ATOM     26  C   UNL     1       4.994  -1.798   3.094  0.00  0.00    +0.025 A 
ATOM     27  C   UNL     1       4.265  -1.347   2.017  0.00  0.00    +0.017 A 
BRANCH  25  28
ATOM     28  N   UNL     1       5.104  -2.526   5.393  0.00  0.00    -0.210 N 
ATOM     29  C   UNL     1       6.044  -1.787   5.995  0.00  0.00    +0.227 C 
ATOM     30  O   UNL     1       6.359  -0.660   5.681  0.00  0.00    -0.275 OA
ATOM     31  C   UNL     1       6.651  -2.583   7.130  0.00  0.00    +0.106 C 
ATOM     32  C   UNL     1       5.890  -3.923   7.079  0.00  0.00    +0.106 C 
ATOM     33  C   UNL     1       4.929  -3.742   5.925  0.00  0.00    +0.227 C 
ATOM     34  O   UNL     1       4.130  -4.568   5.540  0.00  0.00    -0.275 OA
ENDBRANCH  25  28
ENDBRANCH  20  22
ENDBRANCH  19  20
ENDBRANCH   2  19
TORSDOF 7
