REMARK  Name = ZINC39688147
REMARK  10 active torsions:
REMARK  status: ('A' for Active; 'I' for Inactive)
REMARK    1  A    between atoms: C_1  and  O_2
REMARK    2  A    between atoms: O_2  and  C_3
REMARK    3  A    between atoms: C_5  and  C_11
REMARK    4  A    between atoms: C_7  and  O_9
REMARK    5  A    between atoms: O_9  and  C_10
REMARK    6  A    between atoms: C_15  and  C_24
REMARK    7  A    between atoms: N_26  and  C_27
REMARK    8  A    between atoms: C_27  and  C_28
REMARK    9  A    between atoms: C_28  and  O_29
REMARK   10  A    between atoms: O_29  and  C_30
REMARK                            x       y       z     vdW  Elec       q    Type
REMARK                         _______ _______ _______ _____ _____    ______ ____
ROOT
ATOM      1  C   UNL     1       1.319  -3.845  -2.308  0.00  0.00    +0.247 C 
ATOM      2  O   UNL     1       1.344  -4.481  -1.273  0.00  0.00    -0.270 OA
ATOM      3  N   UNL     1       1.778  -4.397  -3.449  0.00  0.00    -0.296 N 
ATOM      4  C   UNL     1       2.276  -3.701  -4.659  0.00  0.00    +0.121 C 
ATOM      5  C   UNL     1       3.481  -4.546  -5.128  0.00  0.00    +0.100 C 
ATOM      6  C   UNL     1       3.227  -5.947  -4.547  0.00  0.00    -0.004 C 
ATOM      7  C   UNL     1       1.905  -5.838  -3.775  0.00  0.00    +0.115 C 
ATOM      8  C   UNL     1       3.100  -6.970  -5.672  0.00  0.00    -0.010 C 
ATOM      9  C   UNL     1       2.906  -8.364  -5.069  0.00  0.00    -0.082 C 
ATOM     10  N   UNL     1       4.051  -8.691  -4.210  0.00  0.00    +0.379 N 
ATOM     11  C   UNL     1       4.111  -7.758  -3.079  0.00  0.00    -0.082 C 
ATOM     12  C   UNL     1       4.356  -6.338  -3.598  0.00  0.00    -0.010 C 
ATOM     13  H   UNL     1       3.950  -9.633  -3.863  0.00  0.00    -0.086 HD
ATOM     14  H   UNL     1       4.902  -8.623  -4.747  0.00  0.00    -0.086 HD
ENDROOT
BRANCH   1  17
ATOM     15  C   UNL     1      -0.233  -0.617  -1.160  0.00  0.00    +0.124 A 
ATOM     16  C   UNL     1       0.265  -1.910  -1.148  0.00  0.00    +0.059 A 
ATOM     17  C   UNL     1       0.787  -2.465  -2.317  0.00  0.00    +0.044 A 
ATOM     18  C   UNL     1       0.805  -1.715  -3.493  0.00  0.00    +0.059 A 
ATOM     19  C   UNL     1       0.306  -0.423  -3.496  0.00  0.00    +0.124 A 
ATOM     20  C   UNL     1      -0.218   0.123  -2.333  0.00  0.00    +0.091 A 
BRANCH  15  22
ATOM     21  C   UNL     1      -1.243   1.260  -0.107  0.00  0.00    +0.277 C 
ATOM     22  O   UNL     1      -0.741  -0.075  -0.022  0.00  0.00    -0.495 OA
ENDBRANCH  15  22
BRANCH  19  23
ATOM     23  O   UNL     1       0.323   0.308  -4.641  0.00  0.00    -0.495 OA
ATOM     24  C   UNL     1      -0.105   1.668  -4.549  0.00  0.00    +0.277 C 
ENDBRANCH  19  23
ENDBRANCH   1  17
BRANCH   5  25
ATOM     25  C   UNL     1       4.765  -3.975  -4.584  0.00  0.00    +0.218 C 
ATOM     26  O   UNL     1       4.783  -3.461  -3.485  0.00  0.00    -0.275 OA
ATOM     27  N   UNL     1       5.894  -4.035  -5.317  0.00  0.00    -0.312 N 
ATOM     28  H   UNL     1       5.865  -4.380  -6.224  0.00  0.00    +0.149 HD
BRANCH  27  29
ATOM     29  C   UNL     1       7.164  -3.581  -4.747  0.00  0.00    +0.145 C 
BRANCH  29  30
ATOM     30  C   UNL     1       8.255  -3.639  -5.818  0.00  0.00    +0.247 C 
BRANCH  30  31
ATOM     31  O   UNL     1       7.946  -2.715  -6.863  0.00  0.00    -0.490 OA
BRANCH  31  32
ATOM     32  C   UNL     1       8.767  -2.712  -7.947  0.00  0.00    +0.121 A 
ATOM     33  C   UNL     1       9.780  -3.653  -8.053  0.00  0.00    +0.048 A 
ATOM     34  C   UNL     1      10.613  -3.649  -9.155  0.00  0.00    +0.042 A 
ATOM     35  C   UNL     1      10.437  -2.705 -10.153  0.00  0.00    +0.124 A 
ATOM     36  C   UNL     1       9.427  -1.765 -10.048  0.00  0.00    +0.042 A 
ATOM     37  C   UNL     1       8.588  -1.771  -8.950  0.00  0.00    +0.048 A 
ATOM     38  F   UNL     1      11.253  -2.702 -11.230  0.00  0.00    -0.205 F 
ENDBRANCH  31  32
ENDBRANCH  30  31
ENDBRANCH  29  30
ENDBRANCH  27  29
ENDBRANCH   5  25
TORSDOF 8
