REMARK  Name = ZINC08490189
REMARK  7 active torsions:
REMARK  status: ('A' for Active; 'I' for Inactive)
REMARK    1  A    between atoms: C_1  and  C_2
REMARK    2  A    between atoms: C_7  and  N_12
REMARK    3  A    between atoms: C_9  and  C_11
REMARK    4  A    between atoms: C_13  and  C_15
REMARK    5  A    between atoms: C_15  and  C_17
REMARK    6  A    between atoms: C_15  and  S_18
REMARK    7  A    between atoms: S_18  and  C_19
REMARK                            x       y       z     vdW  Elec       q    Type
REMARK                         _______ _______ _______ _____ _____    ______ ____
ROOT
ATOM      1  N   UNL     1       1.471  -2.526   2.420  0.00  0.00    -0.311 N 
ATOM      2  C   UNL     1       1.207  -3.754   2.907  0.00  0.00    +0.226 C 
ATOM      3  O   UNL     1       0.382  -4.458   2.364  0.00  0.00    -0.275 OA
ATOM      4  H   UNL     1       2.131  -1.963   2.855  0.00  0.00    +0.149 HD
ENDROOT
BRANCH   1  10
ATOM      5  C   UNL     1      -0.019   1.526   0.010  0.00  0.00    +0.008 C 
ATOM      6  C   UNL     1       0.002  -0.004   0.002  0.00  0.00    -0.009 C 
ATOM      7  C   UNL     1       0.718  -0.497  -1.257  0.00  0.00    +0.003 C 
ATOM      8  C   UNL     1       0.739  -2.027  -1.265  0.00  0.00    +0.002 C 
ATOM      9  C   UNL     1       1.479  -2.534  -0.026  0.00  0.00    +0.022 C 
ATOM     10  C   UNL     1       0.763  -2.041   1.233  0.00  0.00    +0.076 C 
ATOM     11  C   UNL     1       0.742  -0.511   1.242  0.00  0.00    +0.009 C 
ATOM     12  C   UNL     1       0.026  -0.018   2.500  0.00  0.00    +0.009 C 
ENDBRANCH   1  10
BRANCH   2  13
ATOM     13  C   UNL     1       1.936  -4.254   4.128  0.00  0.00    +0.137 C 
ATOM     14  C   UNL     1       1.220  -3.760   5.387  0.00  0.00    +0.029 C 
BRANCH  13  15
ATOM     15  S   UNL     1       1.960  -6.067   4.118  0.00  0.00    -0.072 S 
BRANCH  15  16
ATOM     16  C   UNL     1       2.960  -6.488   5.507  0.00  0.00    +0.211 A 
ATOM     17  N   UNL     1       3.262  -7.731   5.900  0.00  0.00    -0.188 NA
ATOM     18  H   UNL     1       4.750  -6.040   8.022  0.00  0.00    +0.192 HD
ATOM     19  C   UNL     1       4.027  -7.683   6.970  0.00  0.00    +0.209 A 
ATOM     20  N   UNL     1       4.227  -6.385   7.282  0.00  0.00    -0.246 N 
ATOM     21  N   UNL     1       3.533  -5.633   6.320  0.00  0.00    -0.144 NA
ATOM     22  N   UNL     1       4.535  -8.771   7.655  0.00  0.00    -0.328 N 
ATOM     23  H   UNL     1       4.334  -9.671   7.354  0.00  0.00    +0.145 HD
ATOM     24  H   UNL     1       5.092  -8.635   8.438  0.00  0.00    +0.145 HD
ENDBRANCH  15  16
ENDBRANCH  13  15
ENDBRANCH   2  13
TORSDOF 4
