REMARK  Name = ZINC50346304
REMARK  8 active torsions:
REMARK  status: ('A' for Active; 'I' for Inactive)
REMARK    1  A    between atoms: C_1  and  C_2
REMARK    2  A    between atoms: C_5  and  S_9
REMARK    3  A    between atoms: C_7  and  N_8
REMARK    4  A    between atoms: S_9  and  N_12
REMARK    5  A    between atoms: C_15  and  C_18
REMARK    6  A    between atoms: C_18  and  C_19
REMARK    7  A    between atoms: C_18  and  C_20
REMARK    8  A    between atoms: C_18  and  C_21
REMARK                            x       y       z     vdW  Elec       q    Type
REMARK                         _______ _______ _______ _____ _____    ______ ____
ROOT
ATOM      1  S   UNL     1       0.062  -4.535  -0.031  0.00  0.00    +0.061 S 
ATOM      2  O   UNL     1      -0.477  -4.960   1.213  0.00  0.00    -0.153 OA
ATOM      3  O   UNL     1      -0.490  -4.937  -1.277  0.00  0.00    -0.153 OA
ENDROOT
BRANCH   1   8
ATOM      4  C   UNL     1      -0.018   1.503   0.010  0.00  0.00    +0.045 C 
ATOM      5  C   UNL     1       0.002  -0.004   0.002  0.00  0.00    -0.030 A 
ATOM      6  C   UNL     1       0.006  -0.689  -1.198  0.00  0.00    +0.007 A 
ATOM      7  C   UNL     1       0.024  -2.071  -1.206  0.00  0.00    +0.029 A 
ATOM      8  C   UNL     1       0.039  -2.773  -0.014  0.00  0.00    +0.107 A 
ATOM      9  C   UNL     1       0.036  -2.095   1.188  0.00  0.00    +0.051 A 
ATOM     10  C   UNL     1       0.023  -0.706   1.200  0.00  0.00    +0.029 A 
BRANCH  10  11
ATOM     11  N   UNL     1       0.025  -0.016   2.415  0.00  0.00    -0.358 N 
ATOM     12  H   UNL     1       0.012   0.954   2.422  0.00  0.00    +0.142 HD
ATOM     13  H   UNL     1       0.040  -0.507   3.252  0.00  0.00    +0.142 HD
ENDBRANCH  10  11
ENDBRANCH   1   8
BRANCH   1  14
ATOM     14  N   UNL     1       1.650  -5.004  -0.044  0.00  0.00    -0.177 NA
ATOM     15  C   UNL     1       2.363  -5.199  -1.313  0.00  0.00    +0.110 C 
ATOM     16  C   UNL     1       2.983  -6.599  -1.321  0.00  0.00    +0.021 C 
ATOM     17  C   UNL     1       3.857  -6.772  -0.077  0.00  0.00    -0.003 C 
ATOM     18  C   UNL     1       2.993  -6.634   1.179  0.00  0.00    +0.021 C 
ATOM     19  C   UNL     1       2.374  -5.228   1.215  0.00  0.00    +0.110 C 
BRANCH  17  20
ATOM     20  C   UNL     1       4.506  -8.158  -0.098  0.00  0.00    -0.035 C 
ATOM     21  C   UNL     1       5.372  -8.296  -1.353  0.00  0.00    +0.011 C 
ATOM     22  C   UNL     1       5.380  -8.331   1.146  0.00  0.00    +0.011 C 
ATOM     23  C   UNL     1       3.417  -9.231  -0.110  0.00  0.00    +0.011 C 
ENDBRANCH  17  20
ENDBRANCH   1  14
TORSDOF 4
