REMARK  Name = ZINC20037904
REMARK  17 active torsions:
REMARK  status: ('A' for Active; 'I' for Inactive)
REMARK    1  A    between atoms: C_1  and  C_2
REMARK    2  A    between atoms: C_2  and  C_3
REMARK    3  A    between atoms: C_3  and  N_4
REMARK    4  A    between atoms: N_4  and  C_5
REMARK    5  A    between atoms: N_4  and  C_8
REMARK    6  A    between atoms: C_5  and  C_6
REMARK    7  A    between atoms: C_6  and  C_7
REMARK    8  A    between atoms: C_8  and  C_9
REMARK    9  A    between atoms: C_10  and  C_20
REMARK   10  A    between atoms: N_22  and  N_23
REMARK   11  A    between atoms: C_24  and  C_25
REMARK   12  A    between atoms: C_26  and  O_35
REMARK   13  A    between atoms: C_28  and  O_33
REMARK   14  A    between atoms: C_30  and  O_31
REMARK   15  A    between atoms: O_31  and  C_32
REMARK   16  A    between atoms: O_33  and  C_34
REMARK   17  A    between atoms: O_35  and  C_36
REMARK                            x       y       z     vdW  Elec       q    Type
REMARK                         _______ _______ _______ _____ _____    ______ ____
ROOT
ATOM      1  C   UNL     1       0.150  12.403  -0.459  0.00  0.00    +0.063 A 
ATOM      2  C   UNL     1      -0.326  11.393   0.327  0.00  0.00    +0.170 A 
ATOM      3  N   UNL     1      -0.921  11.935   1.403  0.00  0.00    -0.124 NA
ATOM      4  N   UNL     1      -0.839  13.218   1.342  0.00  0.00    -0.058 NA
ATOM      5  N   UNL     1      -0.163  13.562   0.163  0.00  0.00    -0.194 N 
ATOM      6  C   UNL     1       0.131  14.855  -0.284  0.00  0.00    +0.240 A 
ATOM      7  C   UNL     1      -0.217  16.101   0.405  0.00  0.00    +0.206 A 
ATOM      8  N   UNL     1       0.220  17.101  -0.309  0.00  0.00    -0.032 NA
ATOM      9  O   UNL     1       0.852  16.569  -1.460  0.00  0.00    -0.239 OA
ATOM     10  N   UNL     1       0.766  15.157  -1.381  0.00  0.00    -0.027 NA
ATOM     11  N   UNL     1      -0.897  16.200   1.614  0.00  0.00    -0.337 N 
ATOM     12  H   UNL     1      -1.109  17.189   2.047  0.00  0.00    +0.144 HD
ATOM     13  H   UNL     1      -1.224  15.289   2.137  0.00  0.00    +0.144 HD
ENDROOT
BRANCH   2  14
ATOM     14  C   UNL     1      -0.211   9.950   0.040  0.00  0.00    +0.285 C 
ATOM     15  O   UNL     1       0.348   9.574  -0.973  0.00  0.00    -0.267 OA
ATOM     16  N   UNL     1      -0.725   9.049   0.900  0.00  0.00    -0.202 N 
ATOM     17  H   UNL     1      -1.230   9.389   1.816  0.00  0.00    +0.178 HD
BRANCH  16  18
ATOM     18  N   UNL     1      -0.616   7.679   0.628  0.00  0.00    -0.187 NA
ATOM     19  C   UNL     1      -1.111   6.811   1.457  0.00  0.00    +0.145 C 
BRANCH  19  20
ATOM     20  C   UNL     1      -0.996   5.372   1.171  0.00  0.00    +0.078 A 
ATOM     21  C   UNL     1      -1.530   4.431   2.063  0.00  0.00    +0.136 A 
ATOM     22  C   UNL     1      -1.418   3.080   1.787  0.00  0.00    +0.092 A 
ATOM     23  C   UNL     1      -0.780   2.655   0.630  0.00  0.00    +0.127 A 
ATOM     24  C   UNL     1      -0.245   3.580  -0.256  0.00  0.00    +0.092 A 
ATOM     25  C   UNL     1      -0.353   4.934   0.004  0.00  0.00    +0.136 A 
BRANCH  25  26
ATOM     26  O   UNL     1       0.167   5.838  -0.866  0.00  0.00    -0.494 OA
ATOM     27  C   UNL     1       0.807   5.320  -2.034  0.00  0.00    +0.277 C 
ENDBRANCH  25  26
BRANCH  23  28
ATOM     28  O   UNL     1      -0.675   1.326   0.365  0.00  0.00    -0.495 OA
ATOM     29  C   UNL     1      -0.007   0.956  -0.842  0.00  0.00    +0.277 C 
ENDBRANCH  23  28
BRANCH  21  30
ATOM     30  O   UNL     1      -2.154   4.845   3.196  0.00  0.00    -0.494 OA
ATOM     31  C   UNL     1      -2.672   3.831   4.059  0.00  0.00    +0.277 C 
ENDBRANCH  21  30
ENDBRANCH  19  20
ENDBRANCH  16  18
ENDBRANCH   2  14
BRANCH   1  32
ATOM     32  C   UNL     1       0.882  12.255  -1.768  0.00  0.00    -0.020 C 
BRANCH  32  33
ATOM     33  N   UNL     1       2.330  12.335  -1.531  0.00  0.00    +0.383 N 
ATOM     34  H   UNL     1       2.518  13.202  -0.881  0.00  0.00    -0.081 HD
BRANCH  33  35
ATOM     35  C   UNL     1       2.817  11.136  -0.837  0.00  0.00    -0.079 C 
BRANCH  35  37
ATOM     36  C   UNL     1       4.769  10.109   0.336  0.00  0.00    +0.002 C 
ATOM     37  C   UNL     1       4.262  11.358  -0.387  0.00  0.00    -0.022 C 
ENDBRANCH  35  37
ENDBRANCH  33  35
BRANCH  33  38
ATOM     38  C   UNL     1       3.058  12.548  -2.789  0.00  0.00    -0.079 C 
BRANCH  38  39
ATOM     39  C   UNL     1       2.910  14.007  -3.224  0.00  0.00    -0.022 C 
ATOM     40  C   UNL     1       3.775  14.261  -4.460  0.00  0.00    +0.002 C 
ENDBRANCH  38  39
ENDBRANCH  33  38
ENDBRANCH  32  33
ENDBRANCH   1  32
TORSDOF 12
