REMARK  Name = ZINC04660914
REMARK  5 active torsions:
REMARK  status: ('A' for Active; 'I' for Inactive)
REMARK    1  A    between atoms: C_1  and  C_2
REMARK    2  A    between atoms: C_5  and  N_22
REMARK    3  A    between atoms: C_6  and  C_19
REMARK    4  A    between atoms: C_15  and  C_17
REMARK    5  A    between atoms: C_15  and  C_18
REMARK                            x       y       z     vdW  Elec       q    Type
REMARK                         _______ _______ _______ _____ _____    ______ ____
ROOT
ATOM      1  C   UNL     1       4.109  -0.139  -1.520  0.00  0.00    +0.018 C 
ATOM      2  C   UNL     1       2.767  -0.012  -0.797  0.00  0.00    +0.055 C 
ATOM      3  C   UNL     1       2.290   1.429  -0.879  0.00  0.00    +0.010 A 
ATOM      4  C   UNL     1       3.089   2.535  -0.646  0.00  0.00    +0.050 A 
ATOM      5  C   UNL     1       2.531   3.810  -0.747  0.00  0.00    +0.096 A 
ATOM      6  S   UNL     1       0.839   3.439  -1.184  0.00  0.00    -0.067 S 
ATOM      7  C   UNL     1       0.973   1.676  -1.207  0.00  0.00    +0.076 A 
ATOM      8  N   UNL     1       0.043   0.708  -1.477  0.00  0.00    -0.312 N 
ATOM      9  C   UNL     1       0.499  -0.564  -1.737  0.00  0.00    +0.016 C 
ATOM     10  C   UNL     1       1.762  -0.936  -1.443  0.00  0.00    +0.019 C 
ATOM     11  C   UNL     1       2.205  -2.243  -1.728  0.00  0.00    +0.162 C 
ATOM     12  O   UNL     1       3.355  -2.547  -1.477  0.00  0.00    -0.292 OA
ATOM     13  C   UNL     1       1.291  -3.270  -2.333  0.00  0.00    +0.086 C 
ATOM     14  C   UNL     1      -0.152  -2.955  -1.927  0.00  0.00    -0.023 C 
ATOM     15  C   UNL     1      -0.474  -1.527  -2.374  0.00  0.00    +0.058 C 
ATOM     16  C   UNL     1      -0.296  -3.064  -0.407  0.00  0.00    +0.011 C 
ATOM     17  C   UNL     1      -1.107  -3.937  -2.608  0.00  0.00    +0.011 C 
ATOM     18  H   UNL     1      -0.905   0.913  -1.489  0.00  0.00    +0.152 HD
ENDROOT
BRANCH   5  19
ATOM     19  C   UNL     1       3.145   5.065  -0.556  0.00  0.00    +0.250 C 
ATOM     20  O   UNL     1       4.325   5.128  -0.258  0.00  0.00    -0.270 OA
ATOM     21  N   UNL     1       2.426   6.196  -0.702  0.00  0.00    -0.325 N 
ATOM     22  H   UNL     1       1.486   6.146  -0.940  0.00  0.00    +0.145 HD
ATOM     23  H   UNL     1       2.848   7.059  -0.571  0.00  0.00    +0.145 HD
ENDBRANCH   5  19
BRANCH   4  24
ATOM     24  N   UNL     1       4.431   2.377  -0.313  0.00  0.00    -0.357 N 
ATOM     25  H   UNL     1       4.726   1.575   0.146  0.00  0.00    +0.142 HD
ATOM     26  H   UNL     1       5.072   3.069  -0.540  0.00  0.00    +0.142 HD
ENDBRANCH   4  24
TORSDOF 2
