REMARK  Name = ZINC50973341
REMARK  6 active torsions:
REMARK  status: ('A' for Active; 'I' for Inactive)
REMARK    1  A    between atoms: C_1  and  C_2
REMARK    2  A    between atoms: C_2  and  C_3
REMARK    3  A    between atoms: C_6  and  C_9
REMARK    4  A    between atoms: C_6  and  N_13
REMARK    5  A    between atoms: N_10  and  O_11
REMARK    6  A    between atoms: C_14  and  C_16
REMARK                            x       y       z     vdW  Elec       q    Type
REMARK                         _______ _______ _______ _____ _____    ______ ____
ROOT
ATOM      1  C   UNL     1       0.642  -0.471  -1.067  0.00  0.00    -0.011 C 
ATOM      2  C   UNL     1       2.113  -0.053  -1.120  0.00  0.00    +0.006 C 
ATOM      3  C   UNL     1       2.866  -0.686   0.051  0.00  0.00    +0.034 C 
ATOM      4  C   UNL     1       2.766  -2.210  -0.042  0.00  0.00    +0.093 C 
ATOM      5  C   UNL     1       1.295  -2.628   0.011  0.00  0.00    +0.034 C 
ATOM      6  C   UNL     1       0.542  -1.995  -1.161  0.00  0.00    +0.006 C 
ENDROOT
BRANCH   4   7
ATOM      7  C   UNL     1       3.507  -2.833   1.112  0.00  0.00    +0.155 C 
ATOM      8  N   UNL     1       4.075  -2.082   1.997  0.00  0.00    -0.075 NA
ATOM      9  N   UNL     1       3.581  -4.204   1.224  0.00  0.00    -0.342 N 
ATOM     10  H   UNL     1       3.219  -4.768   0.522  0.00  0.00    +0.144 HD
ATOM     11  H   UNL     1       3.993  -4.606   2.004  0.00  0.00    +0.144 HD
BRANCH   8  12
ATOM     12  O   UNL     1       4.772  -2.668   3.082  0.00  0.00    -0.408 OA
ATOM     13  H   UNL     1       5.162  -2.026   3.691  0.00  0.00    +0.328 HD
ENDBRANCH   8  12
ENDBRANCH   4   7
BRANCH   4  14
ATOM     14  N   UNL     1       3.357  -2.662  -1.304  0.00  0.00    -0.301 N 
ATOM     15  C   UNL     1       4.677  -2.504  -1.524  0.00  0.00    +0.243 C 
ATOM     16  O   UNL     1       5.359  -1.907  -0.718  0.00  0.00    -0.273 OA
ATOM     17  H   UNL     1       2.798  -3.075  -1.981  0.00  0.00    +0.150 HD
BRANCH  15  18
ATOM     18  C   UNL     1       5.306  -3.068  -2.772  0.00  0.00    +0.204 C 
ATOM     19  C   UNL     1       5.215  -4.596  -2.743  0.00  0.00    +0.041 C 
ATOM     20  C   UNL     1       5.909  -5.164  -3.985  0.00  0.00    +0.005 C 
ATOM     21  C   UNL     1       7.358  -4.668  -4.019  0.00  0.00    +0.028 C 
ATOM     22  C   UNL     1       7.366  -3.138  -3.998  0.00  0.00    +0.161 C 
ATOM     23  O   UNL     1       6.678  -2.674  -2.834  0.00  0.00    -0.367 OA
ENDBRANCH  15  18
ENDBRANCH   4  14
BRANCH   1  25
ATOM     24  C   UNL     1       0.012   1.530   0.288  0.00  0.00    +0.004 C 
ATOM     25  C   UNL     1       0.025   0.001   0.250  0.00  0.00    -0.000 C 
ENDBRANCH   1  25
TORSDOF 5
