REMARK  Name = ZINC38903376
REMARK  11 active torsions:
REMARK  status: ('A' for Active; 'I' for Inactive)
REMARK    1  A    between atoms: C_1  and  C_2
REMARK    2  A    between atoms: C_9  and  C_14
REMARK    3  A    between atoms: C_14  and  N_15
REMARK    4  A    between atoms: N_15  and  C_16
REMARK    5  A    between atoms: C_18  and  C_23
REMARK    6  A    between atoms: C_21  and  C_22
REMARK    7  A    between atoms: C_24  and  C_26
REMARK    8  A    between atoms: C_29  and  C_32
REMARK    9  A    between atoms: C_32  and  C_33
REMARK   10  A    between atoms: C_32  and  C_34
REMARK   11  A    between atoms: C_32  and  C_35
REMARK                            x       y       z     vdW  Elec       q    Type
REMARK                         _______ _______ _______ _____ _____    ______ ____
ROOT
ATOM      1  N   UNL     1       1.095  -6.416   3.271  0.00  0.00    -0.266 N 
ATOM      2  C   UNL     1       0.478  -6.700   4.434  0.00  0.00    +0.251 C 
ATOM      3  O   UNL     1       0.171  -5.802   5.194  0.00  0.00    -0.270 OA
ENDROOT
BRANCH   1   4
ATOM      4  C   UNL     1       1.516  -7.452   2.431  0.00  0.00    +0.040 A 
ATOM      5  C   UNL     1       0.579  -8.268   1.810  0.00  0.00    +0.027 A 
ATOM      6  C   UNL     1       0.997  -9.291   0.982  0.00  0.00    -0.049 A 
ATOM      7  C   UNL     1       2.348  -9.503   0.770  0.00  0.00    +0.004 A 
ATOM      8  C   UNL     1       3.283  -8.693   1.387  0.00  0.00    +0.005 A 
ATOM      9  C   UNL     1       2.871  -7.665   2.212  0.00  0.00    -0.029 A 
ATOM     10  C   UNL     1       3.890  -6.778   2.879  0.00  0.00    +0.045 C 
ATOM     11  C   UNL     1      -0.018 -10.176   0.307  0.00  0.00    +0.044 C 
ENDBRANCH   1   4
BRANCH   2  12
ATOM     12  C   UNL     1       0.174  -8.103   4.787  0.00  0.00    +0.037 A 
ATOM     13  C   UNL     1       1.067  -9.120   4.447  0.00  0.00    +0.013 A 
ATOM     14  C   UNL     1       0.777 -10.428   4.779  0.00  0.00    +0.005 A 
ATOM     15  C   UNL     1      -0.396 -10.731   5.446  0.00  0.00    -0.042 A 
ATOM     16  C   UNL     1      -1.286  -9.727   5.786  0.00  0.00    +0.005 A 
ATOM     17  C   UNL     1      -1.005  -8.415   5.465  0.00  0.00    +0.013 A 
BRANCH  15  18
ATOM     18  C   UNL     1      -0.707 -12.162   5.804  0.00  0.00    -0.013 C 
ATOM     19  C   UNL     1       0.392 -12.709   6.717  0.00  0.00    +0.015 C 
ATOM     20  C   UNL     1      -2.052 -12.225   6.531  0.00  0.00    +0.015 C 
ATOM     21  C   UNL     1      -0.777 -13.003   4.528  0.00  0.00    +0.015 C 
ENDBRANCH  15  18
ENDBRANCH   2  12
BRANCH   1  22
ATOM     22  C   UNL     1       1.327  -5.021   2.885  0.00  0.00    +0.131 C 
BRANCH  22  31
ATOM     23  C   UNL     1       0.214   1.248  -0.350  0.00  0.00    +0.044 C 
ATOM     24  C   UNL     1       0.106  -0.252  -0.248  0.00  0.00    -0.050 A 
ATOM     25  C   UNL     1      -0.085  -1.004  -1.407  0.00  0.00    +0.005 A 
ATOM     26  C   UNL     1      -0.191  -2.358  -1.393  0.00  0.00    +0.024 A 
ATOM     27  C   UNL     1      -0.111  -3.069  -0.182  0.00  0.00    +0.040 A 
ATOM     28  N   UNL     1      -0.215  -4.397  -0.180  0.00  0.00    -0.284 N 
ATOM     29  C   UNL     1      -0.150  -5.126   0.921  0.00  0.00    +0.226 C 
ATOM     30  O   UNL     1      -0.252  -6.337   0.860  0.00  0.00    -0.275 OA
ATOM     31  C   UNL     1       0.054  -4.448   2.258  0.00  0.00    +0.116 C 
ATOM     32  C   UNL     1       0.175  -2.937   2.261  0.00  0.00    -0.003 C 
ATOM     33  C   UNL     1       0.091  -2.300   1.059  0.00  0.00    -0.007 A 
ATOM     34  C   UNL     1       0.202  -0.844   0.971  0.00  0.00    +0.012 A 
ATOM     35  H   UNL     1      -0.347  -4.851  -1.028  0.00  0.00    +0.155 HD
ENDBRANCH  22  31
ENDBRANCH   1  22
TORSDOF 5
