REMARK  Name = ZINC13917353
REMARK  5 active torsions:
REMARK  status: ('A' for Active; 'I' for Inactive)
REMARK    1  A    between atoms: C_3  and  N_11
REMARK    2  A    between atoms: C_6  and  N_7
REMARK    3  A    between atoms: C_14  and  C_21
REMARK    4  A    between atoms: C_16  and  C_19
REMARK    5  A    between atoms: C_17  and  N_18
REMARK                            x       y       z     vdW  Elec       q    Type
REMARK                         _______ _______ _______ _____ _____    ______ ____
ROOT
ATOM      1  N   UNL     1      -1.023  -0.672   0.619  0.00  0.00    -0.259 N 
ATOM      2  C   UNL     1       0.002  -0.004   0.002  0.00  0.00    +0.025 C 
ATOM      3  C   UNL     1       1.001  -0.683  -0.601  0.00  0.00    +0.026 C 
ATOM      4  C   UNL     1       1.019  -2.191  -0.608  0.00  0.00    +0.104 C 
ATOM      5  C   UNL     1      -0.335  -2.751  -0.287  0.00  0.00    +0.077 C 
ATOM      6  C   UNL     1      -1.287  -1.987   0.308  0.00  0.00    +0.107 C 
ATOM      7  C   UNL     1       2.058  -0.005  -1.235  0.00  0.00    +0.162 C 
ATOM      8  O   UNL     1       2.933  -0.646  -1.784  0.00  0.00    -0.292 OA
ATOM      9  C   UNL     1       2.125   1.497  -1.246  0.00  0.00    +0.080 C 
ATOM     10  C   UNL     1       1.416   2.038  -0.001  0.00  0.00    +0.014 C 
ATOM     11  C   UNL     1      -0.018   1.505   0.010  0.00  0.00    +0.052 C 
ENDROOT
BRANCH   1  14
ATOM     12  C   UNL     1      -3.720   1.323   2.127  0.00  0.00    +0.034 A 
ATOM     13  C   UNL     1      -2.946   0.676   1.182  0.00  0.00    +0.027 A 
ATOM     14  C   UNL     1      -1.807  -0.013   1.574  0.00  0.00    +0.058 A 
ATOM     15  C   UNL     1      -1.442  -0.042   2.915  0.00  0.00    +0.065 A 
ATOM     16  C   UNL     1      -2.218   0.610   3.854  0.00  0.00    +0.054 A 
ATOM     17  C   UNL     1      -3.355   1.291   3.461  0.00  0.00    +0.128 A 
ATOM     18 CL   UNL     1      -0.015  -0.897   3.409  0.00  0.00    -0.082 Cl
BRANCH  17  19
ATOM     19  N   UNL     1      -4.184   1.990   4.469  0.00  0.00    +0.056 N 
ATOM     20  O   UNL     1      -3.864   1.963   5.644  0.00  0.00    -0.126 OA
ATOM     21  O   UNL     1      -5.186   2.590   4.124  0.00  0.00    -0.126 OA
ENDBRANCH  17  19
ENDBRANCH   1  14
BRANCH   4  22
ATOM     22  C   UNL     1       2.011  -2.677   0.417  0.00  0.00    +0.004 A 
ATOM     23  C   UNL     1       3.131  -3.419   0.236  0.00  0.00    +0.027 A 
ATOM     24  C   UNL     1       3.902  -3.749   1.336  0.00  0.00    +0.025 A 
ATOM     25  C   UNL     1       3.508  -3.329   2.564  0.00  0.00    +0.060 A 
ATOM     26  S   UNL     1       2.012  -2.432   2.185  0.00  0.00    -0.100 S 
ATOM     27 BR   UNL     1       5.476  -4.776   1.132  0.00  0.00    -0.050 Br
ENDBRANCH   4  22
BRANCH   6  28
ATOM     28  N   UNL     1      -2.517  -2.527   0.600  0.00  0.00    -0.345 N 
ATOM     29  H   UNL     1      -3.197  -1.982   1.025  0.00  0.00    +0.144 HD
ATOM     30  H   UNL     1      -2.704  -3.453   0.381  0.00  0.00    +0.144 HD
ENDBRANCH   6  28
BRANCH   5  31
ATOM     31  C   UNL     1      -0.628  -4.114  -0.612  0.00  0.00    +0.099 C 
ATOM     32  N   UNL     1      -0.860  -5.196  -0.870  0.00  0.00    -0.191 NA
ENDBRANCH   5  31
TORSDOF 5
