REMARK  Name = ZINC21177494
REMARK  2 active torsions:
REMARK  status: ('A' for Active; 'I' for Inactive)
REMARK    1  A    between atoms: C_1  and  C_2
REMARK    2  A    between atoms: C_20  and  C_22
REMARK                            x       y       z     vdW  Elec       q    Type
REMARK                         _______ _______ _______ _____ _____    ______ ____
ROOT
ATOM      1  C   UNL     1       1.651   3.278   0.002  0.00  0.00    +0.068 C 
ATOM      2  C   UNL     1       1.222   1.834   0.000  0.00  0.00    +0.066 A 
ATOM      3  C   UNL     1       2.068   0.734  -0.012  0.00  0.00    +0.023 A 
ATOM      4  C   UNL     1       1.295  -0.396  -0.004  0.00  0.00    +0.135 A 
ATOM      5  N   UNL     1       0.002  -0.004   0.002  0.00  0.00    -0.193 N 
ATOM      6  N   UNL     1      -0.017   1.400   0.010  0.00  0.00    -0.168 NA
ATOM      7  C   UNL     1      -1.109  -0.840  -0.000  0.00  0.00    +0.196 A 
ATOM      8  N   UNL     1      -2.381  -0.518   0.005  0.00  0.00    -0.221 NA
ATOM      9  C   UNL     1      -3.364  -1.443   0.001  0.00  0.00    +0.081 A 
ATOM     10  C   UNL     1      -4.762  -1.231   0.005  0.00  0.00    +0.029 A 
ATOM     11  C   UNL     1      -5.630  -2.291   0.000  0.00  0.00    +0.002 A 
ATOM     12  C   UNL     1      -5.175  -3.602  -0.010  0.00  0.00    +0.001 A 
ATOM     13  C   UNL     1      -3.814  -3.846  -0.014  0.00  0.00    +0.017 A 
ATOM     14  C   UNL     1      -2.937  -2.791  -0.008  0.00  0.00    +0.041 A 
ATOM     15  S   UNL     1      -1.168  -2.626  -0.018  0.00  0.00    -0.048 S 
ATOM     16  N   UNL     1       1.856  -1.671  -0.016  0.00  0.00    -0.270 N 
ATOM     17  C   UNL     1       3.184  -1.783   0.198  0.00  0.00    +0.219 C 
ATOM     18  O   UNL     1       3.720  -2.857   0.022  0.00  0.00    -0.275 OA
ATOM     19  C   UNL     1       4.019  -0.618   0.649  0.00  0.00    +0.109 C 
ATOM     20  C   UNL     1       3.575   0.680  -0.034  0.00  0.00    +0.063 C 
ATOM     21  H   UNL     1       1.220  -2.550  -0.197  0.00  0.00    +0.156 HD
ENDROOT
BRANCH  20  22
ATOM     22  C   UNL     1       4.063   0.697  -1.460  0.00  0.00    -0.039 A 
ATOM     23  C   UNL     1       3.668  -0.296  -2.337  0.00  0.00    +0.007 A 
ATOM     24  C   UNL     1       4.111  -0.279  -3.646  0.00  0.00    +0.038 A 
ATOM     25  C   UNL     1       4.960   0.727  -4.076  0.00  0.00    +0.123 A 
ATOM     26  C   UNL     1       5.359   1.718  -3.195  0.00  0.00    +0.038 A 
ATOM     27  C   UNL     1       4.910   1.702  -1.888  0.00  0.00    +0.007 A 
ATOM     28  F   UNL     1       5.397   0.742  -5.354  0.00  0.00    -0.205 F 
ENDBRANCH  20  22
TORSDOF 1
