REMARK  Name = ZINC39671658
REMARK  8 active torsions:
REMARK  status: ('A' for Active; 'I' for Inactive)
REMARK    1  A    between atoms: C_1  and  C_2
REMARK    2  A    between atoms: C_4  and  C_40
REMARK    3  A    between atoms: N_5  and  C_7
REMARK    4  A    between atoms: C_7  and  C_8
REMARK    5  A    between atoms: C_8  and  C_9
REMARK    6  A    between atoms: C_9  and  N_10
REMARK    7  A    between atoms: C_11  and  C_13
REMARK    8  A    between atoms: C_24  and  C_26
REMARK                            x       y       z     vdW  Elec       q    Type
REMARK                         _______ _______ _______ _____ _____    ______ ____
ROOT
ATOM      1  C   UNL     1       4.446  -6.873   3.802  0.00  0.00    +0.100 C 
ATOM      2  C   UNL     1       5.228  -7.389   2.574  0.00  0.00    +0.121 C 
ATOM      3  N   UNL     1       6.133  -8.429   3.116  0.00  0.00    -0.296 N 
ATOM      4  C   UNL     1       5.315  -9.139   4.129  0.00  0.00    +0.115 C 
ATOM      5  C   UNL     1       4.505  -8.024   4.820  0.00  0.00    -0.004 C 
ATOM      6  C   UNL     1       5.213  -7.569   6.093  0.00  0.00    -0.010 C 
ATOM      7  C   UNL     1       5.208  -8.713   7.110  0.00  0.00    -0.082 C 
ATOM      8  N   UNL     1       3.824  -9.100   7.408  0.00  0.00    +0.379 N 
ATOM      9  C   UNL     1       3.179  -9.624   6.198  0.00  0.00    -0.082 C 
ATOM     10  C   UNL     1       3.098  -8.518   5.142  0.00  0.00    -0.010 C 
ATOM     11  C   UNL     1       7.412  -8.675   2.768  0.00  0.00    +0.247 C 
ATOM     12  O   UNL     1       8.000  -9.626   3.244  0.00  0.00    -0.270 OA
ATOM     13  H   UNL     1       3.822  -9.812   8.124  0.00  0.00    -0.086 HD
ATOM     14  H   UNL     1       3.314  -8.294   7.738  0.00  0.00    -0.086 HD
ENDROOT
BRANCH  11  15
ATOM     15  C   UNL     1       8.099  -7.787   1.808  0.00  0.00    +0.045 A 
ATOM     16  C   UNL     1       7.491  -7.465   0.589  0.00  0.00    +0.014 A 
ATOM     17  C   UNL     1       8.130  -6.637  -0.309  0.00  0.00    +0.001 A 
ATOM     18  C   UNL     1       9.380  -6.115  -0.016  0.00  0.00    +0.012 A 
ATOM     19  C   UNL     1      10.002  -6.423   1.189  0.00  0.00    +0.031 A 
ATOM     20  C   UNL     1       9.360  -7.260   2.115  0.00  0.00    +0.006 A 
ATOM     21  C   UNL     1      10.235  -7.413   3.304  0.00  0.00    -0.006 A 
ATOM     22  C   UNL     1      10.078  -8.128   4.485  0.00  0.00    +0.009 A 
ATOM     23  C   UNL     1      11.071  -8.098   5.451  0.00  0.00    +0.001 A 
ATOM     24  C   UNL     1      12.221  -7.360   5.250  0.00  0.00    +0.001 A 
ATOM     25  C   UNL     1      12.393  -6.641   4.078  0.00  0.00    +0.012 A 
ATOM     26  C   UNL     1      11.406  -6.663   3.101  0.00  0.00    +0.030 A 
ATOM     27  C   UNL     1      11.307  -6.024   1.767  0.00  0.00    +0.194 C 
ATOM     28  O   UNL     1      12.133  -5.299   1.251  0.00  0.00    -0.287 OA
ENDBRANCH  11  15
BRANCH   1  30
ATOM     29  N   UNL     1       2.286  -5.726   4.176  0.00  0.00    -0.315 N 
ATOM     30  C   UNL     1       3.016  -6.577   3.428  0.00  0.00    +0.218 C 
ATOM     31  O   UNL     1       2.523  -7.104   2.453  0.00  0.00    -0.275 OA
ATOM     32  H   UNL     1       2.680  -5.304   4.955  0.00  0.00    +0.149 HD
BRANCH  29  33
ATOM     33  C   UNL     1       0.897  -5.438   3.811  0.00  0.00    +0.106 C 
BRANCH  33  34
ATOM     34  C   UNL     1       0.300  -4.449   4.816  0.00  0.00    +0.042 C 
BRANCH  34  35
ATOM     35  C   UNL     1      -1.151  -4.149   4.435  0.00  0.00    +0.145 C 
BRANCH  35  40
ATOM     36  C   UNL     1      -3.500  -2.321   8.477  0.00  0.00    +0.067 C 
ATOM     37  C   UNL     1      -2.753  -2.425   7.172  0.00  0.00    +0.060 A 
ATOM     38  C   UNL     1      -2.327  -1.351   6.383  0.00  0.00    +0.047 A 
ATOM     39  C   UNL     1      -1.696  -1.857   5.298  0.00  0.00    +0.036 A 
ATOM     40  N   UNL     1      -1.722  -3.203   5.397  0.00  0.00    -0.268 N 
ATOM     41  N   UNL     1      -2.386  -3.535   6.585  0.00  0.00    -0.176 NA
ATOM     42  C   UNL     1      -1.075  -1.060   4.180  0.00  0.00    +0.065 C 
ENDBRANCH  35  40
ENDBRANCH  34  35
ENDBRANCH  33  34
ENDBRANCH  29  33
ENDBRANCH   1  30
TORSDOF 6
