REMARK  Name = ZINC20869132
REMARK  9 active torsions:
REMARK  status: ('A' for Active; 'I' for Inactive)
REMARK    1  A    between atoms: C_1  and  C_2
REMARK    2  A    between atoms: C_2  and  C_4
REMARK    3  A    between atoms: C_2  and  S_13
REMARK    4  A    between atoms: N_6  and  C_7
REMARK    5  A    between atoms: C_7  and  C_8
REMARK    6  A    between atoms: S_13  and  C_14
REMARK    7  A    between atoms: N_27  and  C_28
REMARK    8  A    between atoms: C_33  and  O_34
REMARK    9  A    between atoms: O_34  and  C_35
REMARK                            x       y       z     vdW  Elec       q    Type
REMARK                         _______ _______ _______ _____ _____    ______ ____
ROOT
ATOM      1  C   UNL     1      -2.252  -0.040  -1.549  0.00  0.00    +0.178 A 
ATOM      2  N   UNL     1      -1.429   0.648  -2.314  0.00  0.00    -0.215 NA
ATOM      3  C   UNL     1      -1.822   1.104  -3.498  0.00  0.00    +0.117 A 
ATOM      4  C   UNL     1      -3.118   0.881  -3.993  0.00  0.00    +0.076 A 
ATOM      5  C   UNL     1      -3.403   1.444  -5.314  0.00  0.00    -0.023 A 
ATOM      6  C   UNL     1      -2.405   2.117  -5.921  0.00  0.00    -0.004 A 
ATOM      7  S   UNL     1      -1.044   2.043  -4.788  0.00  0.00    -0.073 S 
ATOM      8  C   UNL     1      -2.443   2.782  -7.263  0.00  0.00    +0.043 C 
ATOM      9  C   UNL     1      -3.676   2.271  -8.022  0.00  0.00    +0.005 C 
ATOM     10  C   UNL     1      -4.890   2.343  -7.091  0.00  0.00    +0.005 C 
ATOM     11  C   UNL     1      -4.763   1.289  -5.990  0.00  0.00    +0.037 C 
ATOM     12  C   UNL     1      -3.990   0.132  -3.142  0.00  0.00    +0.268 A 
ATOM     13  O   UNL     1      -5.133  -0.110  -3.488  0.00  0.00    -0.267 OA
ATOM     14  N   UNL     1      -3.529  -0.307  -1.956  0.00  0.00    -0.252 N 
ENDROOT
BRANCH  14  15
ATOM     15  C   UNL     1      -4.377  -1.047  -1.119  0.00  0.00    +0.093 A 
ATOM     16  C   UNL     1      -5.170  -0.399  -0.183  0.00  0.00    +0.030 A 
ATOM     17  C   UNL     1      -6.009  -1.130   0.636  0.00  0.00    +0.002 A 
ATOM     18  C   UNL     1      -6.052  -2.509   0.533  0.00  0.00    +0.004 A 
ATOM     19  C   UNL     1      -5.261  -3.162  -0.393  0.00  0.00    +0.048 A 
ATOM     20  C   UNL     1      -4.421  -2.436  -1.222  0.00  0.00    +0.144 A 
BRANCH  20  21
ATOM     21  O   UNL     1      -3.642  -3.076  -2.134  0.00  0.00    -0.493 OA
ATOM     22  C   UNL     1      -3.739  -4.501  -2.182  0.00  0.00    +0.277 C 
ENDBRANCH  20  21
ENDBRANCH  14  15
BRANCH   1  23
ATOM     23  S   UNL     1      -1.696  -0.631   0.015  0.00  0.00    -0.075 S 
BRANCH  23  25
ATOM     24  C   UNL     1      -0.019   1.526   0.010  0.00  0.00    +0.029 C 
ATOM     25  C   UNL     1       0.002  -0.004   0.002  0.00  0.00    +0.137 C 
BRANCH  25  26
ATOM     26  C   UNL     1       0.731  -0.503   1.223  0.00  0.00    +0.227 C 
ATOM     27  O   UNL     1       0.105  -0.891   2.187  0.00  0.00    -0.275 OA
ATOM     28  N   UNL     1       2.079  -0.519   1.244  0.00  0.00    -0.307 N 
ATOM     29  H   UNL     1       2.646  -0.167   0.370  0.00  0.00    +0.149 HD
BRANCH  28  30
ATOM     30  C   UNL     1       2.787  -1.004   2.431  0.00  0.00    +0.178 C 
BRANCH  30  31
ATOM     31  C   UNL     1       4.274  -0.917   2.199  0.00  0.00    +0.122 A 
ATOM     32  C   UNL     1       5.055   0.139   2.488  0.00  0.00    +0.046 A 
ATOM     33  C   UNL     1       6.372  -0.210   2.110  0.00  0.00    +0.041 A 
ATOM     34  C   UNL     1       6.316  -1.458   1.612  0.00  0.00    +0.195 A 
ATOM     35  O   UNL     1       5.044  -1.884   1.674  0.00  0.00    -0.466 OA
ENDBRANCH  30  31
ENDBRANCH  28  30
ENDBRANCH  25  26
ENDBRANCH  23  25
ENDBRANCH   1  23
TORSDOF 7
