REMARK  Name = ZINC43230415
REMARK  6 active torsions:
REMARK  status: ('A' for Active; 'I' for Inactive)
REMARK    1  A    between atoms: C_1  and  C_2
REMARK    2  A    between atoms: C_2  and  C_3
REMARK    3  A    between atoms: C_2  and  C_4
REMARK    4  A    between atoms: C_9  and  N_10
REMARK    5  A    between atoms: N_13  and  C_14
REMARK    6  A    between atoms: C_14  and  C_15
REMARK                            x       y       z     vdW  Elec       q    Type
REMARK                         _______ _______ _______ _____ _____    ______ ____
ROOT
ATOM      1  N   UNL     1      -0.990  -1.440  -2.124  0.00  0.00    -0.269 N 
ATOM      2  C   UNL     1      -1.444  -2.043  -3.241  0.00  0.00    +0.304 C 
ATOM      3  O   UNL     1      -2.624  -2.315  -3.348  0.00  0.00    -0.253 OA
ATOM      4  N   UNL     1      -0.590  -2.344  -4.239  0.00  0.00    -0.296 N 
ATOM      5  H   UNL     1      -0.060  -1.171  -2.062  0.00  0.00    +0.156 HD
ATOM      6  H   UNL     1       0.351  -2.127  -4.154  0.00  0.00    +0.150 HD
ENDROOT
BRANCH   1  12
ATOM      7  C   UNL     1      -1.363  -1.101   0.238  0.00  0.00    -0.024 A 
ATOM      8  C   UNL     1      -2.224  -0.860   1.291  0.00  0.00    +0.006 A 
ATOM      9  C   UNL     1      -3.580  -0.725   1.060  0.00  0.00    +0.000 A 
ATOM     10  C   UNL     1      -4.080  -0.832  -0.225  0.00  0.00    +0.002 A 
ATOM     11  C   UNL     1      -3.224  -1.072  -1.282  0.00  0.00    +0.023 A 
ATOM     12  C   UNL     1      -1.861  -1.202  -1.054  0.00  0.00    +0.038 A 
BRANCH   7  14
ATOM     13  C   UNL     1       0.677   0.077   1.011  0.00  0.00    +0.012 C 
ATOM     14  C   UNL     1       0.115  -1.247   0.491  0.00  0.00    +0.015 C 
ATOM     15  C   UNL     1       0.349  -2.344   1.531  0.00  0.00    +0.012 C 
ENDBRANCH   7  14
ENDBRANCH   1  12
BRANCH   4  16
ATOM     16  C   UNL     1      -1.083  -3.000  -5.452  0.00  0.00    +0.153 C 
BRANCH  16  17
ATOM     17  C   UNL     1       0.081  -3.227  -6.418  0.00  0.00    +0.228 C 
ATOM     18  C   UNL     1      -0.433  -3.901  -7.698  0.00  0.00    +0.275 C 
ATOM     19  O   UNL     1       0.677  -4.086  -8.584  0.00  0.00    -0.485 OA
ATOM     20  C   UNL     1       1.511  -3.023  -8.750  0.00  0.00    +0.162 A 
ATOM     21  C   UNL     1       2.372  -2.997  -9.837  0.00  0.00    +0.049 A 
ATOM     22  C   UNL     1       3.227  -1.926 -10.017  0.00  0.00    +0.004 A 
ATOM     23  C   UNL     1       3.226  -0.878  -9.115  0.00  0.00    +0.004 A 
ATOM     24  C   UNL     1       2.369  -0.897  -8.031  0.00  0.00    +0.049 A 
ATOM     25  C   UNL     1       1.508  -1.969  -7.845  0.00  0.00    +0.163 A 
ATOM     26  O   UNL     1       0.665  -1.970  -6.776  0.00  0.00    -0.480 OA
ENDBRANCH  16  17
ENDBRANCH   4  16
TORSDOF 4
