REMARK  Name = ZINC01032144
REMARK  4 active torsions:
REMARK  status: ('A' for Active; 'I' for Inactive)
REMARK    1  A    between atoms: C_3  and  C_6
REMARK    2  A    between atoms: C_14  and  N_25
REMARK    3  A    between atoms: C_15  and  C_23
REMARK    4  A    between atoms: C_16  and  C_18
REMARK                            x       y       z     vdW  Elec       q    Type
REMARK                         _______ _______ _______ _____ _____    ______ ____
ROOT
ATOM      1  C   UNL     1      -2.888   3.614  -0.005  0.00  0.00    +0.022 C 
ATOM      2  C   UNL     1      -1.652   3.106   0.180  0.00  0.00    -0.004 C 
ATOM      3  C   UNL     1      -0.854   2.561  -0.984  0.00  0.00    +0.039 C 
ATOM      4  C   UNL     1      -0.176   1.272  -0.498  0.00  0.00    +0.009 C 
ATOM      5  C   UNL     1       0.777   1.618   0.641  0.00  0.00    +0.036 C 
ATOM      6  C   UNL     1       0.075   2.373   1.740  0.00  0.00    -0.014 C 
ATOM      7  C   UNL     1      -1.043   3.065   1.523  0.00  0.00    +0.133 C 
ATOM      8  O   UNL     1      -1.660   3.752   2.519  0.00  0.00    -0.441 OA
ATOM      9  C   UNL     1      -1.439   3.421   3.802  0.00  0.00    +0.199 C 
ATOM     10  C   UNL     1      -0.325   2.732   4.157  0.00  0.00    +0.098 C 
ATOM     11  C   UNL     1       0.686   2.328   3.123  0.00  0.00    +0.100 C 
ENDROOT
BRANCH   1  14
ATOM     12  C   UNL     1      -5.331   4.930   2.560  0.00  0.00    +0.008 A 
ATOM     13  C   UNL     1      -4.600   4.930   1.396  0.00  0.00    +0.015 A 
ATOM     14  C   UNL     1      -3.760   3.857   1.147  0.00  0.00    +0.013 A 
ATOM     15  S   UNL     1      -4.011   2.850   2.600  0.00  0.00    -0.097 S 
ATOM     16  C   UNL     1      -5.200   3.893   3.429  0.00  0.00    +0.046 A 
ENDBRANCH   1  14
BRANCH  11  17
ATOM     17  C   UNL     1       1.861   3.270   3.180  0.00  0.00    +0.002 A 
ATOM     18  C   UNL     1       3.164   2.996   3.431  0.00  0.00    +0.012 A 
ATOM     19  C   UNL     1       4.079   4.032   3.431  0.00  0.00    +0.008 A 
ATOM     20  C   UNL     1       3.646   5.291   3.181  0.00  0.00    +0.045 A 
ATOM     21  S   UNL     1       1.897   5.037   2.927  0.00  0.00    -0.101 S 
ENDBRANCH  11  17
BRANCH   9  22
ATOM     22  N   UNL     1      -2.349   3.782   4.764  0.00  0.00    -0.328 N 
ATOM     23  H   UNL     1      -3.092   4.362   4.534  0.00  0.00    +0.145 HD
ATOM     24  H   UNL     1      -2.250   3.457   5.672  0.00  0.00    +0.145 HD
ENDBRANCH   9  22
BRANCH  10  25
ATOM     25  C   UNL     1      -0.111   2.389   5.531  0.00  0.00    +0.101 C 
ATOM     26  N   UNL     1       0.059   2.117   6.621  0.00  0.00    -0.191 NA
ENDBRANCH  10  25
TORSDOF 4
