REMARK  Name = ZINC19743861
REMARK  4 active torsions:
REMARK  status: ('A' for Active; 'I' for Inactive)
REMARK    1  A    between atoms: C_1  and  C_2
REMARK    2  A    between atoms: C_2  and  C_3
REMARK    3  A    between atoms: C_14  and  C_17
REMARK    4  A    between atoms: C_19  and  C_22
REMARK                            x       y       z     vdW  Elec       q    Type
REMARK                         _______ _______ _______ _____ _____    ______ ____
ROOT
ATOM      1  C   UNL     1      -4.043   6.096   0.173  0.00  0.00    +0.160 C 
ATOM      2  C   UNL     1      -5.084   7.132   0.493  0.00  0.00    +0.234 C 
ATOM      3  O   UNL     1      -4.785   8.303   0.404  0.00  0.00    -0.274 OA
ATOM      4  N   UNL     1      -6.327   6.815   0.872  0.00  0.00    -0.312 N 
ATOM      5  C   UNL     1      -6.798   5.436   0.975  0.00  0.00    +0.123 C 
ATOM      6  C   UNL     1      -5.606   4.479   1.041  0.00  0.00    +0.126 C 
ATOM      7  N   UNL     1      -4.684   4.795  -0.061  0.00  0.00    -0.302 N 
ATOM      8  C   UNL     1      -3.736   3.796  -0.218  0.00  0.00    +0.122 A 
ATOM      9  C   UNL     1      -3.652   3.114  -1.430  0.00  0.00    +0.044 A 
ATOM     10  C   UNL     1      -2.712   2.131  -1.584  0.00  0.00    +0.018 A 
ATOM     11  C   UNL     1      -1.868   1.837  -0.503  0.00  0.00    +0.058 A 
ATOM     12  C   UNL     1      -2.008   2.560   0.682  0.00  0.00    +0.126 A 
ATOM     13  N   UNL     1      -2.923   3.502   0.786  0.00  0.00    -0.240 NA
ATOM     14  H   UNL     1      -7.005   7.647   1.111  0.00  0.00    +0.149 HD
ENDROOT
BRANCH  11  15
ATOM     15  C   UNL     1      -0.842   0.781  -0.619  0.00  0.00    +0.260 A 
ATOM     16  N   UNL     1       0.018   0.414   0.314  0.00  0.00    -0.187 NA
ATOM     17  C   UNL     1       0.753  -0.572  -0.242  0.00  0.00    +0.205 A 
ATOM     18  N   UNL     1       0.311  -0.750  -1.460  0.00  0.00    -0.056 NA
ATOM     19  O   UNL     1      -0.601   0.015  -1.694  0.00  0.00    -0.332 OA
BRANCH  17  20
ATOM     20  C   UNL     1       1.860  -1.316   0.409  0.00  0.00    +0.058 A 
ATOM     21  C   UNL     1       2.231  -1.014   1.718  0.00  0.00    +0.014 A 
ATOM     22  C   UNL     1       3.257  -1.713   2.320  0.00  0.00    +0.001 A 
ATOM     23  C   UNL     1       3.926  -2.704   1.624  0.00  0.00    +0.003 A 
ATOM     24  C   UNL     1       3.568  -3.005   0.323  0.00  0.00    +0.039 A 
ATOM     25  C   UNL     1       2.537  -2.316  -0.289  0.00  0.00    +0.134 A 
ATOM     26  F   UNL     1       2.188  -2.610  -1.561  0.00  0.00    -0.205 F 
ENDBRANCH  17  20
ENDBRANCH  11  15
BRANCH   1  28
ATOM     27  C   UNL     1      -4.248   6.608  -2.264  0.00  0.00    +0.006 C 
ATOM     28  C   UNL     1      -3.279   6.519  -1.084  0.00  0.00    +0.028 C 
ENDBRANCH   1  28
TORSDOF 3
