REMARK  Name = ZINC12487794
REMARK  9 active torsions:
REMARK  status: ('A' for Active; 'I' for Inactive)
REMARK    1  A    between atoms: C_4  and  N_7
REMARK    2  A    between atoms: N_7  and  C_8
REMARK    3  A    between atoms: C_8  and  C_10
REMARK    4  A    between atoms: C_8  and  C_17
REMARK    5  A    between atoms: N_19  and  C_20
REMARK    6  A    between atoms: C_20  and  C_21
REMARK    7  A    between atoms: C_26  and  C_28
REMARK    8  A    between atoms: C_28  and  N_29
REMARK    9  A    between atoms: C_30  and  C_32
REMARK                            x       y       z     vdW  Elec       q    Type
REMARK                         _______ _______ _______ _____ _____    ______ ____
ROOT
ATOM      1  N   UNL     1       3.671   1.119  -0.025  0.00  0.00    -0.254 N 
ATOM      2  C   UNL     1       2.516   0.425   0.001  0.00  0.00    +0.238 C 
ATOM      3  O   UNL     1       2.528  -0.779  -0.145  0.00  0.00    -0.274 OA
ENDROOT
BRANCH   1   7
ATOM      4  C   UNL     1       3.670   5.201   0.807  0.00  0.00    +0.000 A 
ATOM      5  C   UNL     1       4.244   4.315   1.700  0.00  0.00    +0.002 A 
ATOM      6  C   UNL     1       4.246   2.961   1.427  0.00  0.00    +0.023 A 
ATOM      7  C   UNL     1       3.670   2.490   0.255  0.00  0.00    +0.037 A 
ATOM      8  C   UNL     1       3.098   3.383  -0.642  0.00  0.00    +0.023 A 
ATOM      9  C   UNL     1       3.095   4.735  -0.361  0.00  0.00    +0.002 A 
ENDBRANCH   1   7
BRANCH   1  10
ATOM     10  C   UNL     1       4.928   0.438  -0.346  0.00  0.00    +0.200 C 
BRANCH  10  11
ATOM     11  C   UNL     1       5.856   0.511   0.839  0.00  0.00    +0.017 A 
ATOM     12  C   UNL     1       6.923   1.389   0.828  0.00  0.00    +0.009 A 
ATOM     13  C   UNL     1       7.771   1.461   1.917  0.00  0.00    +0.001 A 
ATOM     14  C   UNL     1       7.559   0.646   3.014  0.00  0.00    +0.003 A 
ATOM     15  C   UNL     1       6.497  -0.237   3.025  0.00  0.00    +0.039 A 
ATOM     16  C   UNL     1       5.643  -0.305   1.936  0.00  0.00    +0.129 A 
ATOM     17  F   UNL     1       4.604  -1.168   1.946  0.00  0.00    -0.205 F 
ENDBRANCH  10  11
BRANCH  10  18
ATOM     18  C   UNL     1       5.573   1.107  -1.532  0.00  0.00    +0.239 C 
ATOM     19  O   UNL     1       5.037   2.060  -2.057  0.00  0.00    -0.273 OA
ATOM     20  N   UNL     1       6.747   0.648  -2.009  0.00  0.00    -0.306 N 
ATOM     21  H   UNL     1       7.176  -0.114  -1.589  0.00  0.00    +0.149 HD
BRANCH  20  22
ATOM     22  C   UNL     1       7.375   1.298  -3.162  0.00  0.00    +0.178 C 
BRANCH  22  23
ATOM     23  C   UNL     1       8.667   0.598  -3.492  0.00  0.00    +0.122 A 
ATOM     24  C   UNL     1       8.806  -0.441  -4.336  0.00  0.00    +0.046 A 
ATOM     25  C   UNL     1      10.178  -0.779  -4.346  0.00  0.00    +0.041 A 
ATOM     26  C   UNL     1      10.796   0.072  -3.508  0.00  0.00    +0.195 A 
ATOM     27  O   UNL     1       9.877   0.907  -2.998  0.00  0.00    -0.466 OA
ENDBRANCH  22  23
ENDBRANCH  20  22
ENDBRANCH  10  18
ENDBRANCH   1  10
BRANCH   2  28
ATOM     28  C   UNL     1       1.209   1.145   0.211  0.00  0.00    +0.201 C 
BRANCH  28  29
ATOM     29  N   UNL     1       0.102   0.193   0.094  0.00  0.00    -0.302 N 
ATOM     30  C   UNL     1      -1.169   0.616   0.240  0.00  0.00    +0.251 C 
ATOM     31  O   UNL     1      -1.398   1.788   0.474  0.00  0.00    -0.270 OA
ATOM     32  H   UNL     1       0.284  -0.741  -0.093  0.00  0.00    +0.150 HD
BRANCH  30  33
ATOM     33  C   UNL     1      -2.277  -0.336   0.117  0.00  0.00    +0.074 A 
ATOM     34  C   UNL     1      -3.640  -0.112   0.236  0.00  0.00    +0.021 A 
ATOM     35  C   UNL     1      -4.469  -1.193   0.069  0.00  0.00    +0.008 A 
ATOM     36  C   UNL     1      -3.926  -2.411  -0.190  0.00  0.00    +0.046 A 
ATOM     37  S   UNL     1      -2.223  -2.088  -0.218  0.00  0.00    -0.092 S 
ENDBRANCH  30  33
ENDBRANCH  28  29
ENDBRANCH   2  28
TORSDOF 9
