REMARK  Name = ZINC16614594
REMARK  15 active torsions:
REMARK  status: ('A' for Active; 'I' for Inactive)
REMARK    1  A    between atoms: C_1  and  C_2
REMARK    2  A    between atoms: C_2  and  C_3
REMARK    3  A    between atoms: C_2  and  C_4
REMARK    4  A    between atoms: C_8  and  C_35
REMARK    5  A    between atoms: C_9  and  N_10
REMARK    6  A    between atoms: N_13  and  C_14
REMARK    7  A    between atoms: C_14  and  C_16
REMARK    8  A    between atoms: C_14  and  C_19
REMARK    9  A    between atoms: C_16  and  C_17
REMARK   10  A    between atoms: C_16  and  C_18
REMARK   11  A    between atoms: C_25  and  C_27
REMARK   12  A    between atoms: C_30  and  O_33
REMARK   13  A    between atoms: O_33  and  C_34
REMARK   14  A    between atoms: C_35  and  C_36
REMARK   15  A    between atoms: C_35  and  C_37
REMARK                            x       y       z     vdW  Elec       q    Type
REMARK                         _______ _______ _______ _____ _____    ______ ____
ROOT
ATOM      1  C   UNL     1       4.884   4.845  -2.060  0.00  0.00    +0.163 C 
ENDROOT
BRANCH   1   2
ATOM      2  C   UNL     1       3.554   4.197  -1.775  0.00  0.00    +0.239 C 
ATOM      3  O   UNL     1       3.501   3.192  -1.098  0.00  0.00    -0.273 OA
ATOM      4  N   UNL     1       2.422   4.735  -2.271  0.00  0.00    -0.262 N 
ATOM      5  C   UNL     1       1.206   4.086  -2.090  0.00  0.00    +0.188 A 
ATOM      6  N   UNL     1       0.933   2.945  -1.471  0.00  0.00    -0.125 NA
ATOM      7  N   UNL     1      -0.241   2.491  -1.397  0.00  0.00    -0.140 NA
ATOM      8  C   UNL     1      -1.274   3.128  -1.935  0.00  0.00    +0.134 A 
ATOM      9  S   UNL     1      -0.437   4.551  -2.627  0.00  0.00    -0.030 S 
ATOM     10  H   UNL     1       2.456   5.575  -2.755  0.00  0.00    +0.157 HD
BRANCH   8  11
ATOM     11  C   UNL     1      -2.707   2.765  -1.956  0.00  0.00    +0.009 A 
ATOM     12  C   UNL     1      -3.631   3.601  -2.585  0.00  0.00    +0.014 A 
ATOM     13  C   UNL     1      -4.966   3.257  -2.607  0.00  0.00    +0.046 A 
ATOM     14  C   UNL     1      -5.393   2.086  -1.996  0.00  0.00    +0.120 A 
ATOM     15  C   UNL     1      -4.477   1.254  -1.364  0.00  0.00    +0.046 A 
ATOM     16  C   UNL     1      -3.140   1.589  -1.342  0.00  0.00    +0.014 A 
BRANCH  14  17
ATOM     17  O   UNL     1      -6.710   1.752  -2.015  0.00  0.00    -0.495 OA
ATOM     18  C   UNL     1      -7.597   2.653  -2.683  0.00  0.00    +0.277 C 
ENDBRANCH  14  17
ENDBRANCH   8  11
ENDBRANCH   1   2
BRANCH   1  22
ATOM     19  N   UNL     1       7.891   4.620   0.044  0.00  0.00    -0.269 N 
ATOM     20  C   UNL     1       6.970   5.084  -0.823  0.00  0.00    +0.304 C 
ATOM     21  O   UNL     1       7.118   6.174  -1.341  0.00  0.00    -0.252 OA
ATOM     22  N   UNL     1       5.885   4.340  -1.117  0.00  0.00    -0.288 N 
ATOM     23  H   UNL     1       7.808   3.724   0.407  0.00  0.00    +0.156 HD
ATOM     24  H   UNL     1       5.767   3.470  -0.704  0.00  0.00    +0.151 HD
BRANCH  19  30
ATOM     25  C   UNL     1      10.255   5.115   0.006  0.00  0.00    -0.023 A 
ATOM     26  C   UNL     1      11.315   5.920   0.377  0.00  0.00    +0.006 A 
ATOM     27  C   UNL     1      11.097   7.031   1.170  0.00  0.00    +0.001 A 
ATOM     28  C   UNL     1       9.817   7.344   1.590  0.00  0.00    +0.006 A 
ATOM     29  C   UNL     1       8.752   6.547   1.218  0.00  0.00    -0.023 A 
ATOM     30  C   UNL     1       8.968   5.430   0.422  0.00  0.00    +0.042 A 
BRANCH  25  32
ATOM     31  C   UNL     1      11.199   4.320  -2.145  0.00  0.00    +0.012 C 
ATOM     32  C   UNL     1      10.494   3.901  -0.853  0.00  0.00    +0.015 C 
ATOM     33  C   UNL     1      11.372   2.904  -0.094  0.00  0.00    +0.012 C 
ENDBRANCH  25  32
BRANCH  29  34
ATOM     34  C   UNL     1       7.358   6.888   1.677  0.00  0.00    +0.015 C 
ATOM     35  C   UNL     1       7.328   6.965   3.205  0.00  0.00    +0.012 C 
ATOM     36  C   UNL     1       6.944   8.239   1.090  0.00  0.00    +0.012 C 
ENDBRANCH  29  34
ENDBRANCH  19  30
ENDBRANCH   1  22
BRANCH   1  37
ATOM     37  C   UNL     1       5.317   4.513  -3.489  0.00  0.00    +0.012 C 
ATOM     38  C   UNL     1       6.635   5.224  -3.801  0.00  0.00    +0.009 C 
ATOM     39  C   UNL     1       5.508   3.001  -3.626  0.00  0.00    +0.009 C 
ENDBRANCH   1  37
TORSDOF 8
