REMARK  Name = ZINC39695684
REMARK  6 active torsions:
REMARK  status: ('A' for Active; 'I' for Inactive)
REMARK    1  A    between atoms: C_1  and  C_2
REMARK    2  A    between atoms: C_10  and  C_12
REMARK    3  A    between atoms: C_12  and  C_13
REMARK    4  A    between atoms: C_12  and  N_14
REMARK    5  A    between atoms: C_15  and  C_17
REMARK    6  A    between atoms: C_27  and  C_29
REMARK                            x       y       z     vdW  Elec       q    Type
REMARK                         _______ _______ _______ _____ _____    ______ ____
ROOT
ATOM      1  C   UNL     1       1.874  -8.729   0.979  0.00  0.00    +0.100 C 
ATOM      2  C   UNL     1       0.769  -9.489   0.212  0.00  0.00    +0.121 C 
ATOM      3  N   UNL     1       1.255 -10.887   0.142  0.00  0.00    -0.296 N 
ATOM      4  C   UNL     1       1.876 -11.129   1.466  0.00  0.00    +0.115 C 
ATOM      5  C   UNL     1       2.595  -9.810   1.802  0.00  0.00    -0.004 C 
ATOM      6  C   UNL     1       2.474  -9.509   3.292  0.00  0.00    -0.010 C 
ATOM      7  C   UNL     1       3.248 -10.565   4.087  0.00  0.00    -0.082 C 
ATOM      8  N   UNL     1       4.658 -10.551   3.677  0.00  0.00    +0.379 N 
ATOM      9  C   UNL     1       4.773 -10.934   2.265  0.00  0.00    -0.082 C 
ATOM     10  C   UNL     1       4.063  -9.893   1.393  0.00  0.00    -0.010 C 
ATOM     11  C   UNL     1       1.157 -11.745  -0.893  0.00  0.00    +0.248 C 
ATOM     12  O   UNL     1       0.704 -11.366  -1.956  0.00  0.00    -0.270 OA
ATOM     13  H   UNL     1       5.035  -9.624   3.805  0.00  0.00    -0.086 HD
ATOM     14  H   UNL     1       5.178 -11.205   4.244  0.00  0.00    -0.086 HD
ENDROOT
BRANCH  11  15
ATOM     15  C   UNL     1       1.598 -13.146  -0.736  0.00  0.00    +0.055 A 
ATOM     16  C   UNL     1       1.424 -13.804   0.484  0.00  0.00    +0.016 A 
ATOM     17  C   UNL     1       1.838 -15.111   0.624  0.00  0.00    +0.021 A 
ATOM     18  C   UNL     1       2.427 -15.773  -0.441  0.00  0.00    +0.042 A 
ATOM     19  C   UNL     1       2.604 -15.128  -1.652  0.00  0.00    +0.040 A 
ATOM     20  C   UNL     1       2.188 -13.820  -1.808  0.00  0.00    +0.054 A 
ATOM     21 CL   UNL     1       2.403 -13.014  -3.331  0.00  0.00    -0.083 Cl
ATOM     22 CL   UNL     1       2.947 -17.419  -0.254  0.00  0.00    -0.083 Cl
ENDBRANCH  11  15
BRANCH   1  24
ATOM     23  N   UNL     1       2.010  -6.662   2.330  0.00  0.00    -0.305 N 
ATOM     24  C   UNL     1       1.265  -7.696   1.891  0.00  0.00    +0.219 C 
ATOM     25  O   UNL     1       0.104  -7.794   2.229  0.00  0.00    -0.275 OA
ATOM     26  H   UNL     1       2.938  -6.583   2.060  0.00  0.00    +0.149 HD
BRANCH  23  27
ATOM     27  C   UNL     1       1.417  -5.657   3.216  0.00  0.00    +0.136 C 
ATOM     28  C   UNL     1       0.703  -4.595   2.378  0.00  0.00    +0.036 C 
BRANCH  27  38
ATOM     29  C   UNL     1       5.802  -2.189   8.128  0.00  0.00    +0.044 C 
ATOM     30  C   UNL     1       5.320  -2.925   6.905  0.00  0.00    -0.048 A 
ATOM     31  C   UNL     1       6.219  -3.258   5.902  0.00  0.00    +0.005 A 
ATOM     32  C   UNL     1       5.802  -3.925   4.785  0.00  0.00    +0.030 A 
ATOM     33  C   UNL     1       4.457  -4.278   4.647  0.00  0.00    +0.089 A 
ATOM     34  C   UNL     1       3.546  -3.942   5.662  0.00  0.00    +0.067 A 
ATOM     35  C   UNL     1       3.989  -3.268   6.792  0.00  0.00    +0.031 A 
ATOM     36  N   UNL     1       2.318  -4.415   5.245  0.00  0.00    -0.340 N 
ATOM     37  H   UNL     1       1.480  -4.340   5.726  0.00  0.00    +0.167 HD
ATOM     38  C   UNL     1       2.503  -5.005   4.034  0.00  0.00    +0.128 A 
ATOM     39  N   UNL     1       3.753  -4.926   3.683  0.00  0.00    -0.231 NA
ENDBRANCH  27  38
ENDBRANCH  23  27
ENDBRANCH   1  24
TORSDOF 4
