REMARK  Name = ZINC04663459
REMARK  7 active torsions:
REMARK  status: ('A' for Active; 'I' for Inactive)
REMARK    1  A    between atoms: C_1  and  C_2
REMARK    2  A    between atoms: C_2  and  C_3
REMARK    3  A    between atoms: C_3  and  C_4
REMARK    4  A    between atoms: C_4  and  N_5
REMARK    5  A    between atoms: C_13  and  N_14
REMARK    6  A    between atoms: C_15  and  C_16
REMARK    7  A    between atoms: C_25  and  O_26
REMARK                            x       y       z     vdW  Elec       q    Type
REMARK                         _______ _______ _______ _____ _____    ______ ____
ROOT
ATOM      1  N   UNL     1       1.471  -2.526   2.420  0.00  0.00    -0.310 N 
ATOM      2  C   UNL     1       2.828  -2.777   2.521  0.00  0.00    +0.068 A 
ATOM      3  C   UNL     1       3.893  -2.673   1.639  0.00  0.00    +0.028 A 
ATOM      4  C   UNL     1       5.164  -3.010   2.058  0.00  0.00    +0.002 A 
ATOM      5  C   UNL     1       5.383  -3.451   3.356  0.00  0.00    +0.002 A 
ATOM      6  C   UNL     1       4.346  -3.560   4.239  0.00  0.00    +0.028 A 
ATOM      7  C   UNL     1       3.049  -3.223   3.836  0.00  0.00    +0.066 A 
ATOM      8  N   UNL     1       1.850  -3.227   4.467  0.00  0.00    -0.324 N 
ATOM      9  C   UNL     1       0.915  -2.811   3.641  0.00  0.00    +0.209 A 
ATOM     10  H   UNL     1       1.704  -3.491   5.389  0.00  0.00    +0.169 HD
ENDROOT
BRANCH   9  11
ATOM     11  N   UNL     1      -0.396  -2.688   3.947  0.00  0.00    -0.221 NA
ATOM     12  C   UNL     1      -0.820  -2.990   5.150  0.00  0.00    +0.126 C 
BRANCH  12  13
ATOM     13  C   UNL     1      -2.237  -2.856   5.481  0.00  0.00    +0.042 A 
ATOM     14  C   UNL     1      -2.727  -3.183   6.821  0.00  0.00    -0.006 A 
ATOM     15  C   UNL     1      -1.862  -3.631   7.825  0.00  0.00    +0.009 A 
ATOM     16  C   UNL     1      -2.358  -3.925   9.061  0.00  0.00    +0.001 A 
ATOM     17  C   UNL     1      -3.715  -3.785   9.338  0.00  0.00    +0.001 A 
ATOM     18  C   UNL     1      -4.585  -3.351   8.383  0.00  0.00    +0.008 A 
ATOM     19  C   UNL     1      -4.108  -3.039   7.099  0.00  0.00    -0.017 A 
ATOM     20  C   UNL     1      -4.976  -2.587   6.088  0.00  0.00    +0.012 A 
ATOM     21  C   UNL     1      -4.507  -2.287   4.849  0.00  0.00    +0.046 A 
ATOM     22  C   UNL     1      -3.156  -2.408   4.525  0.00  0.00    +0.126 A 
BRANCH  22  23
ATOM     23  O   UNL     1      -2.731  -2.093   3.277  0.00  0.00    -0.506 OA
ATOM     24  H   UNL     1      -2.747  -2.835   2.657  0.00  0.00    +0.292 HD
ENDBRANCH  22  23
ENDBRANCH  12  13
ENDBRANCH   9  11
BRANCH   1  25
ATOM     25  C   UNL     1       0.763  -2.041   1.233  0.00  0.00    +0.125 C 
BRANCH  25  26
ATOM     26  C   UNL     1       0.742  -0.511   1.242  0.00  0.00    +0.021 C 
BRANCH  26  28
ATOM     27  C   UNL     1      -0.019   1.526   0.010  0.00  0.00    +0.004 C 
ATOM     28  C   UNL     1       0.002  -0.004   0.002  0.00  0.00    -0.002 C 
ENDBRANCH  26  28
ENDBRANCH  25  26
ENDBRANCH   1  25
TORSDOF 6
