REMARK  Name = ZINC09139221
REMARK  10 active torsions:
REMARK  status: ('A' for Active; 'I' for Inactive)
REMARK    1  A    between atoms: C_1  and  C_2
REMARK    2  A    between atoms: C_2  and  C_3
REMARK    3  A    between atoms: C_3  and  N_4
REMARK    4  A    between atoms: C_5  and  C_21
REMARK    5  A    between atoms: C_8  and  S_9
REMARK    6  A    between atoms: S_9  and  C_10
REMARK    7  A    between atoms: C_10  and  C_12
REMARK    8  A    between atoms: C_10  and  C_15
REMARK    9  A    between atoms: C_12  and  C_13
REMARK   10  A    between atoms: C_12  and  C_14
REMARK                            x       y       z     vdW  Elec       q    Type
REMARK                         _______ _______ _______ _____ _____    ______ ____
ROOT
ATOM      1  N   UNL     1       0.807  -1.974  -1.425  0.00  0.00    -0.302 N 
ATOM      2  C   UNL     1      -0.248  -2.805  -1.723  0.00  0.00    +0.165 A 
ATOM      3  N   UNL     1       0.114  -4.022  -1.391  0.00  0.00    -0.128 NA
ATOM      4  N   UNL     1       1.306  -4.010  -0.912  0.00  0.00    -0.122 NA
ATOM      5  C   UNL     1       1.781  -2.784  -0.914  0.00  0.00    +0.193 A 
ENDROOT
BRANCH   2   6
ATOM      6  C   UNL     1      -1.545  -2.402  -2.308  0.00  0.00    +0.019 A 
ATOM      7  C   UNL     1      -1.960  -1.071  -2.245  0.00  0.00    +0.013 A 
ATOM      8  C   UNL     1      -3.169  -0.701  -2.797  0.00  0.00    +0.021 A 
ATOM      9  C   UNL     1      -3.975  -1.649  -3.404  0.00  0.00    +0.041 A 
ATOM     10  C   UNL     1      -3.571  -2.973  -3.465  0.00  0.00    +0.021 A 
ATOM     11  C   UNL     1      -2.362  -3.354  -2.921  0.00  0.00    +0.013 A 
ATOM     12 CL   UNL     1      -5.498  -1.177  -4.091  0.00  0.00    -0.084 Cl
ENDBRANCH   2   6
BRANCH   1  13
ATOM     13  C   UNL     1       0.874  -0.523  -1.621  0.00  0.00    +0.125 C 
BRANCH  13  15
ATOM     14  C   UNL     1       0.518   1.700  -0.537  0.00  0.00    +0.005 C 
ATOM     15  C   UNL     1       0.448   0.185  -0.333  0.00  0.00    +0.018 C 
ENDBRANCH  13  15
ENDBRANCH   1  13
BRANCH   5  16
ATOM     16  S   UNL     1       3.375  -2.279  -0.359  0.00  0.00    -0.073 S 
BRANCH  16  17
ATOM     17  C   UNL     1       4.050  -3.879   0.154  0.00  0.00    +0.143 C 
BRANCH  17  18
ATOM     18  C   UNL     1       5.489  -3.708   0.565  0.00  0.00    +0.234 C 
ATOM     19  O   UNL     1       5.885  -2.630   0.953  0.00  0.00    -0.274 OA
ATOM     20  N   UNL     1       6.337  -4.754   0.501  0.00  0.00    -0.239 N 
ATOM     21  C   UNL     1       7.625  -4.601   0.869  0.00  0.00    +0.303 C 
ATOM     22  O   UNL     1       8.021  -3.520   1.258  0.00  0.00    -0.253 OA
ATOM     23  N   UNL     1       8.472  -5.647   0.805  0.00  0.00    -0.313 N 
ATOM     24  H   UNL     1       6.020  -5.616   0.191  0.00  0.00    +0.159 HD
ATOM     25  H   UNL     1       8.156  -6.510   0.494  0.00  0.00    +0.146 HD
ATOM     26  H   UNL     1       9.399  -5.537   1.069  0.00  0.00    +0.146 HD
ENDBRANCH  17  18
BRANCH  17  27
ATOM     27  C   UNL     1       3.242  -4.417   1.337  0.00  0.00    +0.005 C 
ATOM     28  C   UNL     1       3.812  -5.769   1.771  0.00  0.00    +0.009 C 
ATOM     29  C   UNL     1       3.326  -3.430   2.503  0.00  0.00    +0.009 C 
ENDBRANCH  17  27
ENDBRANCH  16  17
ENDBRANCH   5  16
TORSDOF 7
