REMARK  Name = ZINC09960484
REMARK  10 active torsions:
REMARK  status: ('A' for Active; 'I' for Inactive)
REMARK    1  A    between atoms: C_1  and  O_2
REMARK    2  A    between atoms: O_2  and  C_3
REMARK    3  A    between atoms: C_3  and  C_5
REMARK    4  A    between atoms: C_7  and  C_14
REMARK    5  A    between atoms: C_9  and  N_11
REMARK    6  A    between atoms: N_16  and  C_17
REMARK    7  A    between atoms: C_17  and  C_18
REMARK    8  A    between atoms: C_18  and  N_19
REMARK    9  A    between atoms: N_19  and  C_20
REMARK   10  A    between atoms: C_23  and  C_25
REMARK                            x       y       z     vdW  Elec       q    Type
REMARK                         _______ _______ _______ _____ _____    ______ ____
ROOT
ATOM      1  C   UNL     1       2.512  -2.811  -0.036  0.00  0.00    +0.244 C 
ATOM      2  O   UNL     1       3.561  -2.197  -0.043  0.00  0.00    -0.270 OA
ATOM      3  N   UNL     1       2.520  -4.159  -0.043  0.00  0.00    -0.310 N 
ATOM      4  H   UNL     1       1.683  -4.648  -0.037  0.00  0.00    +0.149 HD
ENDROOT
BRANCH   1   7
ATOM      5  C   UNL     1       0.002  -0.004   0.002  0.00  0.00    +0.062 A 
ATOM      6  C   UNL     1       1.218  -0.686  -0.013  0.00  0.00    +0.028 A 
ATOM      7  C   UNL     1       1.227  -2.079  -0.020  0.00  0.00    +0.040 A 
ATOM      8  C   UNL     1       0.021  -2.783  -0.012  0.00  0.00    +0.045 A 
ATOM      9  C   UNL     1      -1.180  -2.101   0.003  0.00  0.00    +0.128 A 
ATOM     10  C   UNL     1      -1.197  -0.721   0.015  0.00  0.00    +0.047 A 
BRANCH   9  11
ATOM     11  N   UNL     1      -2.454  -2.854   0.012  0.00  0.00    +0.056 N 
ATOM     12  O   UNL     1      -2.442  -4.072   0.005  0.00  0.00    -0.126 OA
ATOM     13  O   UNL     1      -3.515  -2.256   0.025  0.00  0.00    -0.126 OA
ENDBRANCH   9  11
BRANCH   5  14
ATOM     14  C   UNL     1      -0.018   1.473   0.010  0.00  0.00    +0.339 C 
ATOM     15  O   UNL     1       1.026   2.095   0.004  0.00  0.00    -0.245 OA
BRANCH  14  17
ATOM     16  C   UNL     1      -1.137   3.582   0.027  0.00  0.00    +0.280 C 
ATOM     17  O   UNL     1      -1.194   2.131   0.019  0.00  0.00    -0.464 OA
ENDBRANCH  14  17
ENDBRANCH   5  14
ENDBRANCH   1   7
BRANCH   3  18
ATOM     18  C   UNL     1       3.793  -4.884  -0.058  0.00  0.00    +0.123 C 
BRANCH  18  19
ATOM     19  C   UNL     1       3.522  -6.389  -0.064  0.00  0.00    +0.121 C 
BRANCH  19  20
ATOM     20  N   UNL     1       4.795  -7.115  -0.079  0.00  0.00    -0.328 N 
ATOM     21  H   UNL     1       5.632  -6.625  -0.084  0.00  0.00    +0.147 HD
BRANCH  20  22
ATOM     22  C   UNL     1       4.803  -8.505  -0.086  0.00  0.00    +0.115 A 
ATOM     23  C   UNL     1       6.016  -9.188  -0.107  0.00  0.00    +0.079 A 
ATOM     24  C   UNL     1       6.008 -10.572  -0.108  0.00  0.00    +0.037 A 
ATOM     25  C   UNL     1       4.784 -11.228  -0.100  0.00  0.00    +0.072 A 
ATOM     26  C   UNL     1       3.620 -10.487  -0.085  0.00  0.00    +0.096 A 
ATOM     27 CL   UNL     1       7.517  -8.316  -0.124  0.00  0.00    -0.080 Cl
ATOM     28  N   UNL     1       3.589  -9.127  -0.078  0.00  0.00    -0.348 N 
ATOM     29  H   UNL     1       2.707  -8.602  -0.067  0.00  0.00    +0.167 HD
BRANCH  25  30
ATOM     30  C   UNL     1       4.728 -12.734  -0.106  0.00  0.00    +0.419 C 
ATOM     31  F   UNL     1       3.393 -13.151  -0.095  0.00  0.00    -0.166 F 
ATOM     32  F   UNL     1       5.359 -13.219  -1.257  0.00  0.00    -0.166 F 
ATOM     33  F   UNL     1       5.380 -13.230   1.028  0.00  0.00    -0.166 F 
ENDBRANCH  25  30
ENDBRANCH  20  22
ENDBRANCH  19  20
ENDBRANCH  18  19
ENDBRANCH   3  18
TORSDOF 9
