REMARK  Name = ZINC45682496
REMARK  8 active torsions:
REMARK  status: ('A' for Active; 'I' for Inactive)
REMARK    1  A    between atoms: C_1  and  C_2
REMARK    2  A    between atoms: C_4  and  C_16
REMARK    3  A    between atoms: C_6  and  C_11
REMARK    4  A    between atoms: C_16  and  O_18
REMARK    5  A    between atoms: O_18  and  C_19
REMARK    6  A    between atoms: C_19  and  C_20
REMARK    7  A    between atoms: N_22  and  C_23
REMARK    8  A    between atoms: C_24  and  C_32
REMARK                            x       y       z     vdW  Elec       q    Type
REMARK                         _______ _______ _______ _____ _____    ______ ____
ROOT
ATOM      1  C   UNL     1      -0.534   2.259  -4.986  0.00  0.00    +0.328 C 
ENDROOT
BRANCH   1   2
ATOM      2  C   UNL     1      -0.791   2.276  -6.471  0.00  0.00    +0.255 C 
ATOM      3  O   UNL     1      -0.920   1.233  -7.076  0.00  0.00    -0.272 OA
ATOM      4  N   UNL     1      -0.877   3.451  -7.126  0.00  0.00    -0.277 N 
ATOM      5  H   UNL     1      -0.774   4.285  -6.642  0.00  0.00    +0.155 HD
BRANCH   4   6
ATOM      6  C   UNL     1      -1.113   3.466  -8.492  0.00  0.00    +0.084 A 
ATOM      7  C   UNL     1      -1.226   4.569  -9.325  0.00  0.00    +0.068 A 
ATOM      8  C   UNL     1      -1.477   4.315 -10.733  0.00  0.00    -0.023 A 
ATOM      9  C   UNL     1      -1.570   3.005 -11.050  0.00  0.00    -0.004 A 
ATOM     10  S   UNL     1      -1.321   2.154  -9.520  0.00  0.00    -0.077 S 
ATOM     11  C   UNL     1      -1.824   2.424 -12.406  0.00  0.00    +0.043 C 
ATOM     12  C   UNL     1      -2.338   3.544 -13.323  0.00  0.00    +0.005 C 
ATOM     13  C   UNL     1      -1.428   4.766 -13.171  0.00  0.00    +0.005 C 
ATOM     14  C   UNL     1      -1.629   5.397 -11.791  0.00  0.00    +0.037 C 
BRANCH   7  15
ATOM     15  C   UNL     1      -1.098   5.934  -8.806  0.00  0.00    +0.244 C 
ATOM     16  O   UNL     1      -0.006   6.472  -8.771  0.00  0.00    -0.270 OA
ATOM     17  N   UNL     1      -2.188   6.594  -8.368  0.00  0.00    -0.325 N 
ATOM     18  H   UNL     1      -3.058   6.166  -8.396  0.00  0.00    +0.145 HD
ATOM     19  H   UNL     1      -2.103   7.497  -8.025  0.00  0.00    +0.145 HD
ENDBRANCH   7  15
ENDBRANCH   4   6
ENDBRANCH   1   2
BRANCH   1  20
ATOM     20  O   UNL     1      -0.486   0.907  -4.526  0.00  0.00    -0.452 OA
BRANCH  20  21
ATOM     21  C   UNL     1      -0.263   0.715  -3.212  0.00  0.00    +0.341 C 
ATOM     22  O   UNL     1      -0.113   1.669  -2.476  0.00  0.00    -0.245 OA
BRANCH  21  26
ATOM     23  C   UNL     1      -1.622   1.325  -0.388  0.00  0.00    +0.070 C 
ATOM     24  C   UNL     1      -1.326  -0.151  -0.328  0.00  0.00    +0.091 A 
ATOM     25  C   UNL     1      -0.695  -0.951  -1.376  0.00  0.00    +0.077 A 
ATOM     26  C   UNL     1      -0.200  -0.657  -2.665  0.00  0.00    +0.075 A 
ATOM     27  C   UNL     1       0.349  -1.699  -3.405  0.00  0.00    +0.047 A 
ATOM     28  C   UNL     1       0.387  -2.984  -2.847  0.00  0.00    +0.111 A 
ATOM     29  N   UNL     1      -0.088  -3.223  -1.632  0.00  0.00    -0.207 NA
ATOM     30  C   UNL     1      -0.620  -2.267  -0.888  0.00  0.00    +0.260 A 
ATOM     31  O   UNL     1      -1.159  -2.258   0.348  0.00  0.00    -0.334 OA
ATOM     32  N   UNL     1      -1.578  -0.947   0.668  0.00  0.00    -0.080 NA
BRANCH  28  33
ATOM     33  C   UNL     1       0.968  -4.093  -3.627  0.00  0.00    +0.153 A 
ATOM     34  C   UNL     1       1.069  -5.388  -3.221  0.00  0.00    +0.051 A 
ATOM     35  C   UNL     1       1.682  -6.096  -4.272  0.00  0.00    +0.042 A 
ATOM     36  C   UNL     1       1.924  -5.208  -5.258  0.00  0.00    +0.196 A 
ATOM     37  O   UNL     1       1.486  -4.001  -4.868  0.00  0.00    -0.461 OA
ENDBRANCH  28  33
ENDBRANCH  21  26
ENDBRANCH  20  21
ENDBRANCH   1  20
TORSDOF 7
