REMARK  Name = ZINC11854900
REMARK  10 active torsions:
REMARK  status: ('A' for Active; 'I' for Inactive)
REMARK    1  A    between atoms: C_1  and  C_2
REMARK    2  A    between atoms: C_2  and  C_3
REMARK    3  A    between atoms: C_3  and  C_4
REMARK    4  A    between atoms: C_4  and  O_5
REMARK    5  A    between atoms: O_5  and  C_6
REMARK    6  A    between atoms: C_9  and  C_12
REMARK    7  A    between atoms: N_14  and  C_15
REMARK    8  A    between atoms: C_17  and  C_30
REMARK    9  A    between atoms: C_25  and  C_29
REMARK   10  A    between atoms: C_26  and  C_28
REMARK                            x       y       z     vdW  Elec       q    Type
REMARK                         _______ _______ _______ _____ _____    ______ ____
ROOT
ATOM      1  C   UNL     1      -2.540   5.285   0.054  0.00  0.00    +0.132 A 
ATOM      2  C   UNL     1      -3.871   5.548   0.068  0.00  0.00    +0.074 A 
ATOM      3  C   UNL     1      -4.555   4.314   0.068  0.00  0.00    +0.102 A 
ATOM      4  N   UNL     1      -3.659   3.347   0.048  0.00  0.00    -0.162 NA
ATOM      5  N   UNL     1      -2.385   3.928   0.045  0.00  0.00    -0.185 N 
ATOM      6  C   UNL     1      -1.183   3.248   0.030  0.00  0.00    +0.234 A 
ATOM      7  N   UNL     1      -1.185   1.888   0.018  0.00  0.00    -0.291 N 
ATOM      8  H   UNL     1      -2.025   1.403   0.019  0.00  0.00    +0.172 HD
ATOM      9  C   UNL     1      -0.015   1.216   0.009  0.00  0.00    +0.256 A 
ATOM     10  O   UNL     1       0.002  -0.004   0.002  0.00  0.00    -0.267 OA
ATOM     11  C   UNL     1       1.187   1.950   0.001  0.00  0.00    +0.035 A 
ATOM     12  C   UNL     1       1.125   3.312   0.009  0.00  0.00    +0.050 A 
ATOM     13  N   UNL     1      -0.056   3.928   0.023  0.00  0.00    -0.217 NA
ATOM     14  C   UNL     1       2.395   4.123   0.000  0.00  0.00    +0.066 C 
ATOM     15  C   UNL     1       2.517   1.243  -0.015  0.00  0.00    +0.051 C 
ENDROOT
BRANCH   3  16
ATOM     16  C   UNL     1      -6.022   4.136   0.081  0.00  0.00    +0.039 A 
ATOM     17  C   UNL     1      -6.751   2.977   0.082  0.00  0.00    +0.018 A 
ATOM     18  C   UNL     1      -8.126   3.058   0.096  0.00  0.00    +0.008 A 
ATOM     19  C   UNL     1      -8.716   4.281   0.109  0.00  0.00    +0.046 A 
ATOM     20  S   UNL     1      -7.306   5.377   0.108  0.00  0.00    -0.095 S 
ENDBRANCH   3  16
BRANCH   1  23
ATOM     21  C   UNL     1      -1.812   7.544   0.059  0.00  0.00    +0.249 C 
ATOM     22  O   UNL     1      -2.973   7.906   0.072  0.00  0.00    -0.270 OA
ATOM     23  N   UNL     1      -1.516   6.229   0.050  0.00  0.00    -0.266 N 
ATOM     24  H   UNL     1      -0.590   5.940   0.040  0.00  0.00    +0.157 HD
BRANCH  21  28
ATOM     25  C   UNL     1       1.310  10.422   0.047  0.00  0.00    +0.121 A 
ATOM     26  C   UNL     1      -0.016  10.838   0.061  0.00  0.00    +0.046 A 
ATOM     27  C   UNL     1      -1.031   9.908   0.065  0.00  0.00    +0.016 A 
ATOM     28  C   UNL     1      -0.727   8.544   0.055  0.00  0.00    +0.037 A 
ATOM     29  C   UNL     1       0.608   8.130   0.047  0.00  0.00    +0.016 A 
ATOM     30  C   UNL     1       1.617   9.067   0.037  0.00  0.00    +0.046 A 
BRANCH  25  31
ATOM     31  O   UNL     1       2.308  11.342   0.043  0.00  0.00    -0.492 OA
BRANCH  31  32
ATOM     32  C   UNL     1       3.648  10.846   0.028  0.00  0.00    +0.229 C 
BRANCH  32  33
ATOM     33  C   UNL     1       4.627  12.021   0.025  0.00  0.00    +0.041 C 
BRANCH  33  35
ATOM     34  C   UNL     1       7.041  12.665   0.006  0.00  0.00    +0.004 C 
ATOM     35  C   UNL     1       6.062  11.490   0.009  0.00  0.00    -0.000 C 
ENDBRANCH  33  35
ENDBRANCH  32  33
ENDBRANCH  31  32
ENDBRANCH  25  31
ENDBRANCH  21  28
ENDBRANCH   1  23
TORSDOF 7
