REMARK  Name = ZINC04128380
REMARK  7 active torsions:
REMARK  status: ('A' for Active; 'I' for Inactive)
REMARK    1  A    between atoms: C_3  and  C_6
REMARK    2  A    between atoms: C_6  and  N_7
REMARK    3  A    between atoms: N_7  and  C_19
REMARK    4  A    between atoms: C_8  and  C_10
REMARK    5  A    between atoms: C_10  and  C_11
REMARK    6  A    between atoms: C_19  and  C_25
REMARK    7  A    between atoms: N_27  and  C_28
REMARK                            x       y       z     vdW  Elec       q    Type
REMARK                         _______ _______ _______ _____ _____    ______ ____
ROOT
ATOM      1  N   UNL     1       4.205   2.028   1.556  0.00  0.00    -0.282 N 
ATOM      2  C   UNL     1       4.748   1.971   0.323  0.00  0.00    +0.219 C 
ATOM      3  O   UNL     1       5.175   2.979  -0.198  0.00  0.00    -0.275 OA
ENDROOT
BRANCH   1   4
ATOM      4  C   UNL     1       4.060   3.318   2.233  0.00  0.00    +0.114 C 
ATOM      5  C   UNL     1       4.884   4.377   1.497  0.00  0.00    +0.035 C 
ATOM      6  C   UNL     1       6.358   3.965   1.494  0.00  0.00    +0.003 C 
ATOM      7  C   UNL     1       6.856   3.842   2.935  0.00  0.00    +0.000 C 
ATOM      8  C   UNL     1       6.032   2.784   3.672  0.00  0.00    +0.003 C 
ATOM      9  C   UNL     1       4.559   3.196   3.675  0.00  0.00    +0.035 C 
BRANCH   4  10
ATOM     10  C   UNL     1       2.609   3.724   2.236  0.00  0.00    +0.237 C 
ATOM     11  O   UNL     1       2.153   4.339   3.177  0.00  0.00    -0.273 OA
ATOM     12  N   UNL     1       1.817   3.404   1.194  0.00  0.00    -0.311 N 
ATOM     13  H   UNL     1       2.162   2.851   0.475  0.00  0.00    +0.149 HD
BRANCH  12  14
ATOM     14  C   UNL     1       0.437   3.892   1.145  0.00  0.00    +0.073 C 
ATOM     15  C   UNL     1      -0.482   2.959   1.960  0.00  0.00    +0.022 C 
ATOM     16  C   UNL     1      -1.800   2.918   1.147  0.00  0.00    +0.002 C 
ATOM     17  C   UNL     1      -1.297   2.914  -0.318  0.00  0.00    +0.002 C 
ATOM     18  C   UNL     1      -0.081   3.863  -0.304  0.00  0.00    +0.022 C 
ENDBRANCH  12  14
ENDBRANCH   4  10
ENDBRANCH   1   4
BRANCH   1  19
ATOM     19  C   UNL     1       3.760   0.799   2.217  0.00  0.00    +0.151 C 
BRANCH  19  22
ATOM     20  C   UNL     1       6.440  -0.480   4.604  0.00  0.00    +0.008 A 
ATOM     21  C   UNL     1       5.317   0.215   4.197  0.00  0.00    +0.013 A 
ATOM     22  C   UNL     1       4.933   0.142   2.899  0.00  0.00    +0.007 A 
ATOM     23  S   UNL     1       6.177  -0.934   2.206  0.00  0.00    -0.100 S 
ATOM     24  C   UNL     1       7.125  -1.214   3.693  0.00  0.00    +0.045 A 
ENDBRANCH  19  22
ENDBRANCH   1  19
BRANCH   2  25
ATOM     25  C   UNL     1       4.824   0.655  -0.407  0.00  0.00    +0.127 C 
BRANCH  25  26
ATOM     26  C   UNL     1       5.478   0.867  -1.773  0.00  0.00    +0.169 C 
ATOM     27  C   UNL     1       5.601  -0.449  -2.516  0.00  0.00    +0.241 C 
ATOM     28  O   UNL     1       6.227  -1.429  -2.172  0.00  0.00    -0.273 OA
ATOM     29  N   UNL     1       4.867  -0.304  -3.637  0.00  0.00    -0.239 N 
ATOM     30  C   UNL     1       4.304   0.907  -3.706  0.00  0.00    +0.307 C 
ATOM     31  O   UNL     1       3.598   1.273  -4.624  0.00  0.00    -0.252 OA
ATOM     32  N   UNL     1       4.610   1.679  -2.643  0.00  0.00    -0.287 N 
ATOM     33  H   UNL     1       4.761  -0.994  -4.312  0.00  0.00    +0.159 HD
ATOM     34  H   UNL     1       4.317   2.590  -2.481  0.00  0.00    +0.151 HD
ENDBRANCH  25  26
ENDBRANCH   2  25
TORSDOF 7
