REMARK  Name = ZINC01465483
REMARK  6 active torsions:
REMARK  status: ('A' for Active; 'I' for Inactive)
REMARK    1  A    between atoms: C_2  and  C_3
REMARK    2  A    between atoms: C_3  and  N_4
REMARK    3  A    between atoms: C_8  and  C_24
REMARK    4  A    between atoms: C_13  and  S_14
REMARK    5  A    between atoms: S_14  and  C_15
REMARK    6  A    between atoms: C_15  and  C_16
REMARK                            x       y       z     vdW  Elec       q    Type
REMARK                         _______ _______ _______ _____ _____    ______ ____
ROOT
ATOM      1  N   UNL     1      -3.449   0.291   2.808  0.00  0.00    -0.283 N 
ATOM      2  C   UNL     1      -2.362   0.291   2.015  0.00  0.00    +0.264 A 
ATOM      3  O   UNL     1      -1.481   1.119   2.177  0.00  0.00    -0.267 OA
ATOM      4  C   UNL     1      -2.252  -0.690   0.983  0.00  0.00    +0.083 A 
ATOM      5  C   UNL     1      -1.182  -0.887   0.009  0.00  0.00    +0.039 A 
ATOM      6  C   UNL     1      -1.299  -1.893  -0.892  0.00  0.00    +0.059 A 
ATOM      7  S   UNL     1      -2.860  -2.645  -0.473  0.00  0.00    -0.076 S 
ATOM      8  C   UNL     1      -3.321  -1.597   0.883  0.00  0.00    +0.117 A 
ATOM      9  N   UNL     1      -4.368  -1.544   1.699  0.00  0.00    -0.216 NA
ATOM     10  C   UNL     1      -4.444  -0.629   2.643  0.00  0.00    +0.173 A 
ENDROOT
BRANCH   5  11
ATOM     11  C   UNL     1       0.002  -0.004   0.002  0.00  0.00    +0.136 A 
ATOM     12  C   UNL     1       1.300  -0.410  -0.013  0.00  0.00    +0.050 A 
ATOM     13  C   UNL     1       2.091   0.758  -0.014  0.00  0.00    +0.042 A 
ATOM     14  C   UNL     1       1.246   1.807  -0.000  0.00  0.00    +0.196 A 
ATOM     15  O   UNL     1      -0.016   1.343   0.009  0.00  0.00    -0.463 OA
ENDBRANCH   5  11
BRANCH   1  16
ATOM     16  C   UNL     1      -3.566   1.294   3.869  0.00  0.00    +0.154 C 
BRANCH  16  18
ATOM     17  C   UNL     1      -5.338   2.974   3.927  0.00  0.00    +0.005 C 
ATOM     18  C   UNL     1      -4.266   2.516   3.330  0.00  0.00    -0.013 C 
ENDBRANCH  16  18
ENDBRANCH   1  16
BRANCH  10  19
ATOM     19  S   UNL     1      -5.849  -0.591   3.706  0.00  0.00    -0.078 S 
BRANCH  19  20
ATOM     20  C   UNL     1      -6.787  -1.986   3.037  0.00  0.00    +0.173 C 
BRANCH  20  21
ATOM     21  C   UNL     1      -8.068  -2.149   3.815  0.00  0.00    +0.226 C 
ATOM     22  O   UNL     1      -8.321  -1.396   4.731  0.00  0.00    -0.275 OA
ATOM     23  N   UNL     1      -8.932  -3.132   3.492  0.00  0.00    -0.301 N 
ATOM     24  C   UNL     1      -8.642  -4.048   2.381  0.00  0.00    +0.108 C 
ATOM     25  C   UNL     1      -8.742  -5.491   2.898  0.00  0.00    +0.019 C 
ATOM     26  C   UNL     1     -10.113  -5.702   3.544  0.00  0.00    +0.003 C 
ATOM     27  C   UNL     1     -10.270  -4.751   4.734  0.00  0.00    +0.019 C 
ATOM     28  C   UNL     1     -10.184  -3.304   4.240  0.00  0.00    +0.108 C 
ENDBRANCH  20  21
ENDBRANCH  19  20
ENDBRANCH  10  19
TORSDOF 6
