REMARK  Name = ZINC17136046
REMARK  12 active torsions:
REMARK  status: ('A' for Active; 'I' for Inactive)
REMARK    1  A    between atoms: C_1  and  C_2
REMARK    2  A    between atoms: C_7  and  O_8
REMARK    3  A    between atoms: O_8  and  C_9
REMARK    4  A    between atoms: C_9  and  C_10
REMARK    5  A    between atoms: N_12  and  C_13
REMARK    6  A    between atoms: C_13  and  C_14
REMARK    7  A    between atoms: C_14  and  C_16
REMARK    8  A    between atoms: C_14  and  N_25
REMARK    9  A    between atoms: C_19  and  N_22
REMARK   10  A    between atoms: N_22  and  C_23
REMARK   11  A    between atoms: N_22  and  C_24
REMARK   12  A    between atoms: N_28  and  C_31
REMARK                            x       y       z     vdW  Elec       q    Type
REMARK                         _______ _______ _______ _____ _____    ______ ____
ROOT
ATOM      1  C   UNL     1      -0.262   1.111   4.908  0.00  0.00    +0.104 C 
ENDROOT
BRANCH   1   2
ATOM      2  C   UNL     1      -1.173   1.339   6.086  0.00  0.00    -0.029 A 
ATOM      3  C   UNL     1      -2.345   0.615   6.202  0.00  0.00    +0.007 A 
ATOM      4  C   UNL     1      -3.180   0.817   7.284  0.00  0.00    +0.023 A 
ATOM      5  C   UNL     1      -2.845   1.758   8.251  0.00  0.00    +0.029 A 
ATOM      6  C   UNL     1      -1.670   2.487   8.128  0.00  0.00    +0.023 A 
ATOM      7  C   UNL     1      -0.837   2.276   7.046  0.00  0.00    +0.007 A 
BRANCH   5   8
ATOM      8  N   UNL     1      -3.690   1.969   9.343  0.00  0.00    -0.336 N 
ATOM      9  C   UNL     1      -3.336   2.962  10.361  0.00  0.00    +0.129 C 
ATOM     10  C   UNL     1      -4.929   1.199   9.471  0.00  0.00    +0.129 C 
ENDBRANCH   5   8
ENDBRANCH   1   2
BRANCH   1  11
ATOM     11  N   UNL     1      -0.111  -0.333   4.678  0.00  0.00    -0.291 NA
ATOM     12  C   UNL     1       1.250  -0.654   4.225  0.00  0.00    +0.104 C 
ATOM     13  C   UNL     1       1.390  -2.170   4.074  0.00  0.00    +0.120 C 
ATOM     14  N   UNL     1       0.389  -2.659   3.115  0.00  0.00    -0.327 N 
ATOM     15  C   UNL     1      -0.971  -2.338   3.568  0.00  0.00    +0.120 C 
ATOM     16  C   UNL     1      -1.111  -0.821   3.719  0.00  0.00    +0.104 C 
BRANCH  14  17
ATOM     17  C   UNL     1       0.533  -4.032   2.896  0.00  0.00    +0.030 A 
ATOM     18  C   UNL     1      -0.538  -4.888   3.118  0.00  0.00    +0.026 A 
ATOM     19  C   UNL     1      -0.394  -6.244   2.896  0.00  0.00    +0.040 A 
ATOM     20  C   UNL     1       0.819  -6.751   2.464  0.00  0.00    +0.124 A 
ATOM     21  C   UNL     1       1.890  -5.901   2.248  0.00  0.00    +0.040 A 
ATOM     22  C   UNL     1       1.750  -4.543   2.463  0.00  0.00    +0.026 A 
ATOM     23  F   UNL     1       0.959  -8.078   2.253  0.00  0.00    -0.205 F 
ENDBRANCH  14  17
ENDBRANCH   1  11
BRANCH   1  24
ATOM     24  C   UNL     1      -0.865   1.764   3.663  0.00  0.00    +0.128 C 
BRANCH  24  27
ATOM     25  C   UNL     1      -0.334   1.972   1.294  0.00  0.00    +0.251 C 
ATOM     26  O   UNL     1      -1.431   2.458   1.120  0.00  0.00    -0.272 OA
ATOM     27  N   UNL     1       0.047   1.592   2.530  0.00  0.00    -0.311 N 
ATOM     28  H   UNL     1       1.042   1.151   2.687  0.00  0.00    +0.149 HD
BRANCH  25  29
ATOM     29  C   UNL     1       0.605   1.794   0.128  0.00  0.00    +0.324 C 
BRANCH  29  30
ATOM     30  O   UNL     1      -0.022   2.270  -1.065  0.00  0.00    -0.483 OA
BRANCH  30  37
ATOM     31  C   UNL     1      -1.243   3.204  -3.434  0.00  0.00    +0.047 C 
ATOM     32  C   UNL     1       0.147   2.623  -3.411  0.00  0.00    -0.009 A 
ATOM     33  C   UNL     1       0.878   2.532  -4.580  0.00  0.00    +0.007 A 
ATOM     34  C   UNL     1       2.154   2.000  -4.559  0.00  0.00    +0.000 A 
ATOM     35  C   UNL     1       2.702   1.558  -3.369  0.00  0.00    +0.004 A 
ATOM     36  C   UNL     1       1.978   1.653  -2.196  0.00  0.00    +0.046 A 
ATOM     37  C   UNL     1       0.695   2.181  -2.216  0.00  0.00    +0.124 A 
ENDBRANCH  30  37
ENDBRANCH  29  30
ENDBRANCH  25  29
ENDBRANCH  24  27
ENDBRANCH   1  24
TORSDOF 9
