REMARK  Name = ZINC59311747
REMARK  8 active torsions:
REMARK  status: ('A' for Active; 'I' for Inactive)
REMARK    1  A    between atoms: C_1  and  C_2
REMARK    2  A    between atoms: C_2  and  C_3
REMARK    3  A    between atoms: C_3  and  C_4
REMARK    4  A    between atoms: N_5  and  N_6
REMARK    5  A    between atoms: C_9  and  S_12
REMARK    6  A    between atoms: S_12  and  C_13
REMARK    7  A    between atoms: C_13  and  C_14
REMARK    8  A    between atoms: N_16  and  C_17
REMARK                            x       y       z     vdW  Elec       q    Type
REMARK                         _______ _______ _______ _____ _____    ______ ____
ROOT
ATOM      1  S   UNL     1      -1.875  -4.926  -6.859  0.00  0.00    -0.075 S 
ENDROOT
BRANCH   1   5
ATOM      2  N   UNL     1       0.311  -4.047  -2.287  0.00  0.00    -0.206 N 
ATOM      3  C   UNL     1      -0.199  -4.739  -3.371  0.00  0.00    +0.232 A 
ATOM      4  N   UNL     1      -0.728  -4.205  -4.451  0.00  0.00    -0.186 NA
ATOM      5  C   UNL     1      -1.115  -5.173  -5.289  0.00  0.00    +0.211 A 
ATOM      6  N   UNL     1      -0.837  -6.338  -4.751  0.00  0.00    -0.144 NA
ATOM      7  N   UNL     1      -0.236  -6.082  -3.508  0.00  0.00    -0.245 N 
ATOM      8  H   UNL     1       0.686  -4.531  -1.535  0.00  0.00    +0.177 HD
ATOM      9  H   UNL     1       0.086  -6.740  -2.873  0.00  0.00    +0.192 HD
BRANCH   2  11
ATOM     10  C   UNL     1       0.758  -2.005  -1.274  0.00  0.00    +0.103 C 
ATOM     11  N   UNL     1       0.286  -2.646  -2.276  0.00  0.00    -0.192 NA
BRANCH  10  12
ATOM     12  C   UNL     1       0.731  -0.498  -1.262  0.00  0.00    +0.048 C 
BRANCH  12  14
ATOM     13  C   UNL     1      -0.009   1.519   0.014  0.00  0.00    +0.004 C 
ATOM     14  C   UNL     1       0.019  -0.011   0.002  0.00  0.00    +0.002 C 
ENDBRANCH  12  14
ENDBRANCH  10  12
ENDBRANCH   2  11
ENDBRANCH   1   5
BRANCH   1  15
ATOM     15  C   UNL     1      -2.148  -6.607  -7.484  0.00  0.00    +0.173 C 
BRANCH  15  16
ATOM     16  C   UNL     1      -2.802  -6.538  -8.840  0.00  0.00    +0.227 C 
ATOM     17  O   UNL     1      -3.059  -5.461  -9.335  0.00  0.00    -0.275 OA
ATOM     18  N   UNL     1      -3.102  -7.673  -9.502  0.00  0.00    -0.285 N 
ATOM     19  H   UNL     1      -2.836  -8.532  -9.137  0.00  0.00    +0.155 HD
BRANCH  18  20
ATOM     20  C   UNL     1      -3.796  -7.613 -10.715  0.00  0.00    +0.036 A 
ATOM     21  C   UNL     1      -4.715  -8.602 -11.040  0.00  0.00    +0.043 A 
ATOM     22  C   UNL     1      -5.400  -8.540 -12.239  0.00  0.00    +0.044 A 
ATOM     23  C   UNL     1      -5.170  -7.494 -13.116  0.00  0.00    +0.040 A 
ATOM     24  C   UNL     1      -4.253  -6.508 -12.795  0.00  0.00    +0.044 A 
ATOM     25  C   UNL     1      -3.570  -6.562 -11.594  0.00  0.00    +0.043 A 
ATOM     26 CL   UNL     1      -3.967  -5.198 -13.897  0.00  0.00    -0.083 Cl
ATOM     27 CL   UNL     1      -6.549  -9.776 -12.647  0.00  0.00    -0.083 Cl
ENDBRANCH  18  20
ENDBRANCH  15  16
ENDBRANCH   1  15
TORSDOF 7
