REMARK  Name = ZINC06196693
REMARK  13 active torsions:
REMARK  status: ('A' for Active; 'I' for Inactive)
REMARK    1  A    between atoms: C_1  and  C_2
REMARK    2  A    between atoms: C_2  and  O_3
REMARK    3  A    between atoms: O_3  and  C_4
REMARK    4  A    between atoms: C_11  and  C_16
REMARK    5  A    between atoms: C_16  and  N_69
REMARK    6  A    between atoms: C_17  and  C_18
REMARK    7  A    between atoms: C_17  and  N_69
REMARK    8  A    between atoms: C_21  and  O_24
REMARK    9  A    between atoms: O_24  and  C_25
REMARK   10  A    between atoms: C_26  and  C_27
REMARK   11  A    between atoms: C_26  and  N_69
REMARK   12  A    between atoms: N_31  and  C_32
REMARK   13  A    between atoms: C_32  and  C_33
REMARK                            x       y       z     vdW  Elec       q    Type
REMARK                         _______ _______ _______ _____ _____    ______ ____
ROOT
ATOM      1  N   UNL     1      -6.016  -2.585   2.568  0.00  0.00    +0.390 N 
ATOM      2  H   UNL     1      -5.124  -3.069   2.725  0.00  0.00    -0.080 HD
ENDROOT
BRANCH   1   3
ATOM      3  C   UNL     1      -7.069  -3.247   3.368  0.00  0.00    -0.036 C 
BRANCH   3  11
ATOM      4  C   UNL     1      -6.446  -1.759   9.353  0.00  0.00    +0.121 A 
ATOM      5  C   UNL     1      -5.613  -2.825   9.687  0.00  0.00    +0.047 A 
ATOM      6  C   UNL     1      -5.236  -3.745   8.734  0.00  0.00    +0.030 A 
ATOM      7  C   UNL     1      -5.688  -3.616   7.425  0.00  0.00    +0.049 A 
ATOM      8  C   UNL     1      -6.530  -2.541   7.084  0.00  0.00    +0.002 A 
ATOM      9  C   UNL     1      -6.906  -1.612   8.060  0.00  0.00    +0.055 A 
ATOM     10  C   UNL     1      -6.995  -2.413   5.701  0.00  0.00    +0.017 A 
ATOM     11  C   UNL     1      -6.603  -3.346   4.798  0.00  0.00    +0.001 A 
ATOM     12  C   UNL     1      -5.758  -4.405   5.190  0.00  0.00    +0.251 A 
ATOM     13  O   UNL     1      -5.414  -5.229   4.361  0.00  0.00    -0.268 OA
ATOM     14  N   UNL     1      -5.322  -4.528   6.456  0.00  0.00    -0.322 N 
ATOM     15  H   UNL     1      -4.723  -5.291   6.699  0.00  0.00    +0.169 HD
BRANCH   4  16
ATOM     16  O   UNL     1      -6.808  -0.860  10.307  0.00  0.00    -0.492 OA
BRANCH  16  18
ATOM     17  C   UNL     1      -6.809   0.034  12.552  0.00  0.00    +0.048 C 
ATOM     18  C   UNL     1      -6.298  -1.071  11.624  0.00  0.00    +0.225 C 
ENDBRANCH  16  18
ENDBRANCH   4  16
ENDBRANCH   3  11
ENDBRANCH   1   3
BRANCH   1  19
ATOM     19  C   UNL     1      -6.354  -2.655   1.131  0.00  0.00    -0.042 C 
BRANCH  19  20
ATOM     20  C   UNL     1      -5.096  -2.443   0.329  0.00  0.00    -0.064 A 
ATOM     21  C   UNL     1      -4.062  -3.357   0.411  0.00  0.00    +0.005 A 
ATOM     22  C   UNL     1      -2.908  -3.164  -0.323  0.00  0.00    +0.046 A 
ATOM     23  C   UNL     1      -2.787  -2.052  -1.143  0.00  0.00    +0.120 A 
ATOM     24  C   UNL     1      -3.823  -1.133  -1.220  0.00  0.00    +0.046 A 
ATOM     25  C   UNL     1      -4.977  -1.333  -0.488  0.00  0.00    +0.005 A 
BRANCH  23  26
ATOM     26  O   UNL     1      -1.652  -1.860  -1.867  0.00  0.00    -0.495 OA
ATOM     27  C   UNL     1      -1.597  -0.693  -2.690  0.00  0.00    +0.277 C 
ENDBRANCH  23  26
ENDBRANCH  19  20
ENDBRANCH   1  19
BRANCH   1  28
ATOM     28  C   UNL     1      -5.876  -1.174   2.986  0.00  0.00    +0.001 C 
BRANCH  28  29
ATOM     29  C   UNL     1      -4.515  -0.680   2.569  0.00  0.00    +0.135 A 
ATOM     30  N   UNL     1      -4.245   0.109   1.558  0.00  0.00    -0.115 NA
ATOM     31  N   UNL     1      -2.971   0.300   1.532  0.00  0.00    -0.023 NA
ATOM     32  N   UNL     1      -2.421  -0.347   2.499  0.00  0.00    -0.044 NA
ATOM     33  N   UNL     1      -3.341  -0.960   3.165  0.00  0.00    -0.229 N 
BRANCH  33  34
ATOM     34  C   UNL     1      -3.144  -1.805   4.345  0.00  0.00    +0.178 C 
BRANCH  34  35
ATOM     35  C   UNL     1      -2.277  -3.009   3.972  0.00  0.00    +0.140 C 
ATOM     36  C   UNL     1      -2.107  -3.948   5.192  0.00  0.00    +0.035 C 
ATOM     37  C   UNL     1      -1.816  -5.301   4.484  0.00  0.00    +0.031 C 
ATOM     38  C   UNL     1      -2.675  -5.194   3.206  0.00  0.00    +0.160 C 
ATOM     39  O   UNL     1      -2.933  -3.805   2.972  0.00  0.00    -0.375 OA
ENDBRANCH  34  35
ENDBRANCH  33  34
ENDBRANCH  28  29
ENDBRANCH   1  28
TORSDOF 11
