REMARK  Name = ZINC12833001
REMARK  13 active torsions:
REMARK  status: ('A' for Active; 'I' for Inactive)
REMARK    1  A    between atoms: C_1  and  C_2
REMARK    2  A    between atoms: C_2  and  C_3
REMARK    3  A    between atoms: C_3  and  C_4
REMARK    4  A    between atoms: C_3  and  C_5
REMARK    5  A    between atoms: C_3  and  N_6
REMARK    6  A    between atoms: C_7  and  C_11
REMARK    7  A    between atoms: C_11  and  N_68
REMARK    8  A    between atoms: C_12  and  C_13
REMARK    9  A    between atoms: C_12  and  N_68
REMARK   10  A    between atoms: C_22  and  C_23
REMARK   11  A    between atoms: C_22  and  N_68
REMARK   12  A    between atoms: C_27  and  C_36
REMARK   13  A    between atoms: C_29  and  C_35
REMARK                            x       y       z     vdW  Elec       q    Type
REMARK                         _______ _______ _______ _____ _____    ______ ____
ROOT
ATOM      1  N   UNL     1      -1.548   7.899  -1.250  0.00  0.00    +0.390 N 
ATOM      2  H   UNL     1      -2.328   7.505  -1.789  0.00  0.00    -0.080 HD
ENDROOT
BRANCH   1   3
ATOM      3  C   UNL     1      -1.681   9.371  -1.219  0.00  0.00    +0.001 C 
BRANCH   3   5
ATOM      4  N   UNL     1      -1.747  11.030  -3.155  0.00  0.00    -0.226 N 
ATOM      5  C   UNL     1      -2.071   9.850  -2.594  0.00  0.00    +0.136 A 
ATOM      6  N   UNL     1      -2.796   9.201  -3.472  0.00  0.00    -0.115 NA
ATOM      7  N   UNL     1      -2.907   9.942  -4.521  0.00  0.00    -0.023 NA
ATOM      8  N   UNL     1      -2.272  11.046  -4.334  0.00  0.00    -0.043 NA
BRANCH   4   9
ATOM      9  C   UNL     1      -0.946  12.094  -2.544  0.00  0.00    +0.061 C 
ATOM     10  C   UNL     1      -1.548  12.470  -1.189  0.00  0.00    +0.036 C 
ATOM     11  C   UNL     1       0.489  11.602  -2.346  0.00  0.00    +0.036 C 
BRANCH   9  13
ATOM     12  C   UNL     1      -0.108  14.431  -2.821  0.00  0.00    +0.006 C 
ATOM     13  C   UNL     1      -0.944  13.320  -3.459  0.00  0.00    +0.026 C 
ENDBRANCH   9  13
ENDBRANCH   4   9
ENDBRANCH   3   5
ENDBRANCH   1   3
BRANCH   1  14
ATOM     14  C   UNL     1      -0.276   7.521  -1.901  0.00  0.00    -0.042 C 
BRANCH  14  15
ATOM     15  C   UNL     1      -0.423   7.698  -3.390  0.00  0.00    -0.060 A 
ATOM     16  C   UNL     1      -1.038   6.716  -4.145  0.00  0.00    +0.005 A 
ATOM     17  C   UNL     1      -1.181   6.877  -5.510  0.00  0.00    +0.050 A 
ATOM     18  C   UNL     1      -0.697   8.018  -6.128  0.00  0.00    +0.166 A 
ATOM     19  C   UNL     1      -0.074   9.005  -5.369  0.00  0.00    +0.166 A 
ATOM     20  C   UNL     1       0.061   8.840  -4.000  0.00  0.00    +0.051 A 
ATOM     21  O   UNL     1       0.310  10.018  -6.201  0.00  0.00    -0.453 OA
ATOM     22  C   UNL     1       0.281   9.458  -7.527  0.00  0.00    +0.466 C 
ATOM     23  O   UNL     1      -0.705   8.412  -7.435  0.00  0.00    -0.453 OA
ENDBRANCH  14  15
ENDBRANCH   1  14
BRANCH   1  24
ATOM     24  C   UNL     1      -1.592   7.358   0.124  0.00  0.00    -0.036 C 
BRANCH  24  25
ATOM     25  C   UNL     1      -1.578   5.853   0.057  0.00  0.00    +0.001 A 
ATOM     26  C   UNL     1      -0.415   5.179   0.241  0.00  0.00    +0.017 A 
ATOM     27  C   UNL     1      -0.435   3.717   0.169  0.00  0.00    -0.001 A 
ATOM     28  C   UNL     1       0.732   2.968   0.351  0.00  0.00    +0.013 A 
ATOM     29  C   UNL     1       0.679   1.605   0.278  0.00  0.00    -0.050 A 
ATOM     30  C   UNL     1      -0.522   0.956   0.026  0.00  0.00    +0.008 A 
ATOM     31  C   UNL     1      -1.683   1.675  -0.162  0.00  0.00    -0.026 A 
ATOM     32  C   UNL     1      -1.655   3.063  -0.087  0.00  0.00    +0.052 A 
ATOM     33  N   UNL     1      -2.803   3.807  -0.265  0.00  0.00    -0.322 N 
ATOM     34  H   UNL     1      -3.643   3.354  -0.441  0.00  0.00    +0.169 HD
ATOM     35  C   UNL     1      -2.774   5.149  -0.197  0.00  0.00    +0.251 A 
ATOM     36  O   UNL     1      -3.808   5.774  -0.359  0.00  0.00    -0.268 OA
ATOM     37  C   UNL     1      -2.979   0.958  -0.442  0.00  0.00    +0.046 C 
ATOM     38  C   UNL     1       1.937   0.797   0.475  0.00  0.00    +0.044 C 
ENDBRANCH  24  25
ENDBRANCH   1  24
TORSDOF 8
