REMARK  Name = ZINC09891960
REMARK  7 active torsions:
REMARK  status: ('A' for Active; 'I' for Inactive)
REMARK    1  A    between atoms: C_4  and  N_7
REMARK    2  A    between atoms: C_11  and  N_14
REMARK    3  A    between atoms: N_14  and  C_15
REMARK    4  A    between atoms: C_15  and  C_16
REMARK    5  A    between atoms: C_16  and  N_17
REMARK    6  A    between atoms: N_17  and  C_18
REMARK    7  A    between atoms: C_21  and  N_24
REMARK                            x       y       z     vdW  Elec       q    Type
REMARK                         _______ _______ _______ _____ _____    ______ ____
ROOT
ATOM      1  N   UNL     1       2.413   1.122   0.004  0.00  0.00    -0.340 N 
ATOM      2  H   UNL     1       3.233   1.601  -0.196  0.00  0.00    +0.146 HD
ENDROOT
BRANCH   1   7
ATOM      3  N   UNL     1      -1.202   3.106   0.030  0.00  0.00    -0.196 N 
ATOM      4  C   UNL     1      -0.084   3.804  -0.251  0.00  0.00    +0.288 A 
ATOM      5  O   UNL     1      -0.150   5.000  -0.491  0.00  0.00    -0.265 OA
ATOM      6  C   UNL     1       1.156   3.150  -0.265  0.00  0.00    +0.106 A 
ATOM      7  C   UNL     1       1.203   1.795   0.010  0.00  0.00    +0.067 A 
ATOM      8  C   UNL     1       0.006   1.105   0.299  0.00  0.00    +0.157 A 
ATOM      9  N   UNL     1      -1.135   1.736   0.301  0.00  0.00    -0.170 NA
ATOM     10 BR   UNL     1       2.740   4.105  -0.657  0.00  0.00    -0.043 Br
BRANCH   3  14
ATOM     11  C   UNL     1      -4.889   5.044   0.078  0.00  0.00    +0.000 A 
ATOM     12  C   UNL     1      -4.742   3.858  -0.618  0.00  0.00    +0.002 A 
ATOM     13  C   UNL     1      -3.521   3.213  -0.636  0.00  0.00    +0.028 A 
ATOM     14  C   UNL     1      -2.440   3.757   0.046  0.00  0.00    +0.069 A 
ATOM     15  C   UNL     1      -2.593   4.946   0.749  0.00  0.00    +0.028 A 
ATOM     16  C   UNL     1      -3.815   5.588   0.758  0.00  0.00    +0.002 A 
ENDBRANCH   3  14
ENDBRANCH   1   7
BRANCH   1  17
ATOM     17  C   UNL     1       2.455  -0.313   0.297  0.00  0.00    +0.120 C 
BRANCH  17  18
ATOM     18  C   UNL     1       3.902  -0.806   0.224  0.00  0.00    +0.120 C 
BRANCH  18  19
ATOM     19  N   UNL     1       3.944  -2.240   0.518  0.00  0.00    -0.342 N 
ATOM     20  H   UNL     1       3.124  -2.719   0.717  0.00  0.00    +0.146 HD
BRANCH  19  21
ATOM     21  C   UNL     1       5.165  -2.919   0.511  0.00  0.00    +0.027 A 
ATOM     22  C   UNL     1       6.339  -2.236   0.220  0.00  0.00    +0.025 A 
ATOM     23  C   UNL     1       7.545  -2.909   0.220  0.00  0.00    +0.034 A 
ATOM     24  C   UNL     1       7.583  -4.263   0.497  0.00  0.00    +0.126 A 
ATOM     25  C   UNL     1       6.416  -4.947   0.781  0.00  0.00    +0.034 A 
ATOM     26  C   UNL     1       5.207  -4.279   0.789  0.00  0.00    +0.025 A 
BRANCH  24  27
ATOM     27  N   UNL     1       8.877  -4.982   0.490  0.00  0.00    +0.056 N 
ATOM     28  O   UNL     1       8.912  -6.175   0.735  0.00  0.00    -0.126 OA
ATOM     29  O   UNL     1       9.907  -4.381   0.240  0.00  0.00    -0.126 OA
ENDBRANCH  24  27
ENDBRANCH  19  21
ENDBRANCH  18  19
ENDBRANCH  17  18
ENDBRANCH   1  17
TORSDOF 7
