REMARK  Name = ZINC03225798
REMARK  4 active torsions:
REMARK  status: ('A' for Active; 'I' for Inactive)
REMARK    1  A    between atoms: C_6  and  O_26
REMARK    2  A    between atoms: C_7  and  C_11
REMARK    3  A    between atoms: N_13  and  N_14
REMARK    4  A    between atoms: N_14  and  C_15
REMARK                            x       y       z     vdW  Elec       q    Type
REMARK                         _______ _______ _______ _____ _____    ______ ____
ROOT
ATOM      1  C   UNL     1      -1.500  -2.804  -1.796  0.00  0.00    +0.264 C 
ATOM      2  O   UNL     1      -2.200  -2.208  -2.593  0.00  0.00    -0.269 OA
ATOM      3  N   UNL     1      -0.750  -2.116  -0.913  0.00  0.00    -0.232 N 
ATOM      4  H   UNL     1      -0.192  -2.592  -0.277  0.00  0.00    +0.173 HD
ENDROOT
BRANCH   1  11
ATOM      5  C   UNL     1       0.143  -8.433  -0.011  0.00  0.00    +0.001 A 
ATOM      6  C   UNL     1      -0.639  -9.130  -0.930  0.00  0.00    +0.001 A 
ATOM      7  C   UNL     1      -1.424  -8.471  -1.825  0.00  0.00    +0.008 A 
ATOM      8  C   UNL     1      -1.450  -7.066  -1.827  0.00  0.00    -0.014 A 
ATOM      9  C   UNL     1      -2.252  -6.358  -2.740  0.00  0.00    +0.054 A 
ATOM     10  C   UNL     1      -2.266  -4.995  -2.720  0.00  0.00    +0.130 A 
ATOM     11  C   UNL     1      -1.474  -4.280  -1.797  0.00  0.00    +0.080 A 
ATOM     12  C   UNL     1      -0.675  -4.954  -0.887  0.00  0.00    +0.025 A 
ATOM     13  C   UNL     1      -0.654  -6.356  -0.892  0.00  0.00    -0.017 A 
ATOM     14  C   UNL     1       0.144  -7.073   0.018  0.00  0.00    +0.008 A 
BRANCH  10  15
ATOM     15  O   UNL     1      -3.046  -4.319  -3.601  0.00  0.00    -0.506 OA
ATOM     16  H   UNL     1      -2.607  -4.111  -4.436  0.00  0.00    +0.292 HD
ENDBRANCH  10  15
ENDBRANCH   1  11
BRANCH   3  17
ATOM     17  N   UNL     1      -0.775  -0.716  -0.913  0.00  0.00    -0.264 N 
ATOM     18  H   UNL     1      -1.333  -0.241  -1.548  0.00  0.00    +0.170 HD
BRANCH  17  19
ATOM     19  C   UNL     1       0.002  -0.004   0.002  0.00  0.00    +0.048 C 
ATOM     20  C   UNL     1       0.771  -0.649   0.879  0.00  0.00    -0.002 C 
ATOM     21  C   UNL     1       1.548   0.139   1.899  0.00  0.00    +0.029 C 
ATOM     22  C   UNL     1       2.799   0.765   1.290  0.00  0.00    +0.009 C 
ATOM     23  C   UNL     1       2.479   1.394  -0.064  0.00  0.00    +0.036 C 
ATOM     24  C   UNL     1       1.190   2.169   0.002  0.00  0.00    -0.038 A 
ATOM     25  C   UNL     1      -0.018   1.475   0.010  0.00  0.00    +0.000 A 
ATOM     26  C   UNL     1      -1.221   2.175   0.031  0.00  0.00    +0.010 A 
ATOM     27  C   UNL     1      -1.207   3.556   0.057  0.00  0.00    +0.001 A 
ATOM     28  C   UNL     1      -0.004   4.239   0.067  0.00  0.00    +0.000 A 
ATOM     29  C   UNL     1       1.194   3.546   0.041  0.00  0.00    +0.004 A 
ENDBRANCH  17  19
ENDBRANCH   3  17
TORSDOF 4
