REMARK  Name = ZINC39662603
REMARK  5 active torsions:
REMARK  status: ('A' for Active; 'I' for Inactive)
REMARK    1  A    between atoms: C_4  and  C_7
REMARK    2  A    between atoms: C_7  and  C_9
REMARK    3  A    between atoms: C_7  and  N_11
REMARK    4  A    between atoms: C_12  and  C_14
REMARK    5  A    between atoms: C_25  and  C_27
REMARK                            x       y       z     vdW  Elec       q    Type
REMARK                         _______ _______ _______ _____ _____    ______ ____
ROOT
ATOM      1  C   UNL     1       4.673  -3.584   2.300  0.00  0.00    +0.100 C 
ATOM      2  C   UNL     1       3.953  -3.215   3.616  0.00  0.00    +0.121 C 
ATOM      3  N   UNL     1       4.675  -3.975   4.664  0.00  0.00    -0.295 N 
ATOM      4  C   UNL     1       6.101  -3.888   4.266  0.00  0.00    +0.115 C 
ATOM      5  C   UNL     1       6.083  -4.025   2.731  0.00  0.00    -0.004 C 
ATOM      6  C   UNL     1       7.135  -3.112   2.108  0.00  0.00    -0.010 C 
ATOM      7  C   UNL     1       8.530  -3.605   2.503  0.00  0.00    -0.082 C 
ATOM      8  N   UNL     1       8.713  -4.985   2.038  0.00  0.00    +0.379 N 
ATOM      9  C   UNL     1       7.757  -5.872   2.713  0.00  0.00    -0.082 C 
ATOM     10  C   UNL     1       6.330  -5.475   2.326  0.00  0.00    -0.010 C 
ATOM     11  C   UNL     1       4.153  -4.604   5.736  0.00  0.00    +0.265 C 
ATOM     12  O   UNL     1       4.888  -5.118   6.556  0.00  0.00    -0.268 OA
ATOM     13  H   UNL     1       8.562  -5.026   1.042  0.00  0.00    -0.086 HD
ATOM     14  H   UNL     1       9.653  -5.287   2.246  0.00  0.00    -0.086 HD
ENDROOT
BRANCH  11  15
ATOM     15  C   UNL     1       2.683  -4.668   5.914  0.00  0.00    +0.126 A 
ATOM     16  C   UNL     1       2.159  -5.225   7.090  0.00  0.00    +0.033 A 
ATOM     17  C   UNL     1       0.807  -5.290   7.267  0.00  0.00    +0.012 A 
ATOM     18  C   UNL     1      -0.023  -4.788   6.247  0.00  0.00    +0.000 A 
ATOM     19  C   UNL     1      -1.422  -4.822   6.363  0.00  0.00    +0.010 A 
ATOM     20  C   UNL     1      -2.193  -4.327   5.356  0.00  0.00    +0.001 A 
ATOM     21  C   UNL     1      -1.613  -3.785   4.210  0.00  0.00    +0.002 A 
ATOM     22  C   UNL     1      -0.262  -3.735   4.063  0.00  0.00    +0.028 A 
ATOM     23  C   UNL     1       0.570  -4.237   5.082  0.00  0.00    +0.072 A 
ATOM     24  N   UNL     1       1.897  -4.195   4.966  0.00  0.00    -0.242 NA
ENDBRANCH  11  15
BRANCH   1  26
ATOM     25  N   UNL     1       4.946  -2.554   0.068  0.00  0.00    -0.296 N 
ATOM     26  C   UNL     1       4.753  -2.385   1.391  0.00  0.00    +0.219 C 
ATOM     27  O   UNL     1       4.645  -1.268   1.850  0.00  0.00    -0.275 OA
ATOM     28  H   UNL     1       5.032  -3.447  -0.300  0.00  0.00    +0.150 HD
BRANCH  25  29
ATOM     29  C   UNL     1       5.023  -1.388  -0.816  0.00  0.00    +0.207 C 
BRANCH  29  33
ATOM     30  C   UNL     1       3.905  -2.525  -4.779  0.00  0.00    +0.000 A 
ATOM     31  C   UNL     1       3.488  -1.312  -4.264  0.00  0.00    +0.000 A 
ATOM     32  C   UNL     1       3.850  -0.944  -2.982  0.00  0.00    +0.006 A 
ATOM     33  C   UNL     1       4.628  -1.790  -2.214  0.00  0.00    -0.013 A 
ATOM     34  C   UNL     1       5.044  -3.003  -2.728  0.00  0.00    +0.006 A 
ATOM     35  C   UNL     1       4.684  -3.371  -4.011  0.00  0.00    +0.000 A 
ENDBRANCH  29  33
BRANCH  29  36
ATOM     36  C   UNL     1       6.401  -0.870  -0.825  0.00  0.00    +0.090 C 
ATOM     37  N   UNL     1       7.465  -0.471  -0.832  0.00  0.00    -0.194 NA
ENDBRANCH  29  36
ENDBRANCH  25  29
ENDBRANCH   1  26
TORSDOF 5
