REMARK  Name = ZINC13063811
REMARK  10 active torsions:
REMARK  status: ('A' for Active; 'I' for Inactive)
REMARK    1  A    between atoms: C_1  and  C_2
REMARK    2  A    between atoms: C_2  and  C_3
REMARK    3  A    between atoms: C_3  and  C_5
REMARK    4  A    between atoms: C_3  and  N_67
REMARK    5  A    between atoms: N_9  and  C_10
REMARK    6  A    between atoms: C_15  and  C_16
REMARK    7  A    between atoms: C_15  and  N_67
REMARK    8  A    between atoms: C_21  and  C_28
REMARK    9  A    between atoms: C_29  and  C_30
REMARK   10  A    between atoms: C_29  and  N_67
REMARK                            x       y       z     vdW  Elec       q    Type
REMARK                         _______ _______ _______ _____ _____    ______ ____
ROOT
ATOM      1  N   UNL     1      -0.661   1.624  -0.996  0.00  0.00    +0.391 N 
ATOM      2  H   UNL     1      -1.537   1.203  -1.326  0.00  0.00    -0.080 HD
ENDROOT
BRANCH   1   3
ATOM      3  C   UNL     1      -0.453   1.252   0.419  0.00  0.00    +0.003 C 
BRANCH   3   4
ATOM      4  C   UNL     1       0.741   1.976   0.987  0.00  0.00    +0.138 A 
ATOM      5  N   UNL     1       0.968   3.266   0.941  0.00  0.00    -0.115 NA
ATOM      6  N   UNL     1       2.087   3.494   1.536  0.00  0.00    -0.023 NA
ATOM      7  N   UNL     1       2.585   2.382   1.953  0.00  0.00    -0.044 NA
ATOM      8  N   UNL     1       1.784   1.423   1.633  0.00  0.00    -0.228 N 
BRANCH   8   9
ATOM      9  C   UNL     1       1.974  -0.001   1.920  0.00  0.00    +0.111 C 
ATOM     10  C   UNL     1       2.139  -0.217   3.438  0.00  0.00    +0.027 C 
ATOM     11  C   UNL     1       3.194  -1.345   3.549  0.00  0.00    +0.002 C 
ATOM     12  C   UNL     1       4.178  -1.006   2.402  0.00  0.00    +0.002 C 
ATOM     13  C   UNL     1       3.270  -0.503   1.261  0.00  0.00    +0.027 C 
ENDBRANCH   8   9
ENDBRANCH   3   4
BRANCH   3  15
ATOM     14  C   UNL     1      -2.892   0.799   0.722  0.00  0.00    +0.002 C 
ATOM     15  C   UNL     1      -1.704   1.626   1.218  0.00  0.00    -0.011 C 
ENDBRANCH   3  15
ENDBRANCH   1   3
BRANCH   1  16
ATOM     16  C   UNL     1      -0.756   3.094  -1.123  0.00  0.00    -0.036 C 
BRANCH  16  17
ATOM     17  C   UNL     1      -1.325   3.426  -2.478  0.00  0.00    +0.001 A 
ATOM     18  C   UNL     1      -2.660   3.618  -2.622  0.00  0.00    +0.017 A 
ATOM     19  C   UNL     1      -3.180   3.945  -3.951  0.00  0.00    -0.001 A 
ATOM     20  C   UNL     1      -4.546   4.158  -4.161  0.00  0.00    +0.010 A 
ATOM     21  C   UNL     1      -5.000   4.457  -5.414  0.00  0.00    +0.004 A 
ATOM     22  C   UNL     1      -4.118   4.550  -6.482  0.00  0.00    -0.048 A 
ATOM     23  C   UNL     1      -2.768   4.343  -6.298  0.00  0.00    +0.029 A 
ATOM     24  C   UNL     1      -2.282   4.038  -5.031  0.00  0.00    +0.049 A 
ATOM     25  N   UNL     1      -0.936   3.826  -4.819  0.00  0.00    -0.322 N 
ATOM     26  H   UNL     1      -0.319   3.890  -5.564  0.00  0.00    +0.169 HD
ATOM     27  C   UNL     1      -0.467   3.532  -3.594  0.00  0.00    +0.251 A 
ATOM     28  O   UNL     1       0.729   3.351  -3.443  0.00  0.00    -0.268 OA
ATOM     29  C   UNL     1      -4.642   4.880  -7.856  0.00  0.00    +0.044 C 
ENDBRANCH  16  17
ENDBRANCH   1  16
BRANCH   1  30
ATOM     30  C   UNL     1       0.456   1.118  -1.821  0.00  0.00    -0.045 C 
BRANCH  30  31
ATOM     31  C   UNL     1       0.359  -0.407  -1.898  0.00  0.00    +0.102 C 
ATOM     32  C   UNL     1       1.574  -0.986  -2.658  0.00  0.00    +0.032 C 
ATOM     33  C   UNL     1       0.984  -2.161  -3.470  0.00  0.00    +0.030 C 
ATOM     34  C   UNL     1      -0.517  -2.154  -3.104  0.00  0.00    +0.160 C 
ATOM     35  O   UNL     1      -0.788  -0.799  -2.684  0.00  0.00    -0.378 OA
ENDBRANCH  30  31
ENDBRANCH   1  30
TORSDOF 8
