REMARK  Name = ZINC63573465
REMARK  7 active torsions:
REMARK  status: ('A' for Active; 'I' for Inactive)
REMARK    1  A    between atoms: C_1  and  C_2
REMARK    2  A    between atoms: C_5  and  C_8
REMARK    3  A    between atoms: C_15  and  O_20
REMARK    4  A    between atoms: O_20  and  C_21
REMARK    5  A    between atoms: N_27  and  C_28
REMARK    6  A    between atoms: C_31  and  C_35
REMARK    7  A    between atoms: C_33  and  C_34
REMARK                            x       y       z     vdW  Elec       q    Type
REMARK                         _______ _______ _______ _____ _____    ______ ____
ROOT
ATOM      1  C   UNL     1       0.607  -3.508   0.164  0.00  0.00    +0.134 C 
ATOM      2  C   UNL     1      -0.863  -3.937   0.097  0.00  0.00    +0.131 C 
ATOM      3  C   UNL     1      -1.336  -4.092   1.536  0.00  0.00    -0.035 C 
ATOM      4  C   UNL     1      -2.396  -3.304   1.670  0.00  0.00    +0.003 A 
ATOM      5  C   UNL     1      -3.317  -3.078   2.794  0.00  0.00    +0.055 A 
ATOM      6  C   UNL     1      -4.314  -2.172   2.595  0.00  0.00    +0.121 A 
ATOM      7  C   UNL     1      -4.500  -1.462   1.400  0.00  0.00    +0.047 A 
ATOM      8  C   UNL     1      -3.714  -1.596   0.301  0.00  0.00    +0.029 A 
ATOM      9  C   UNL     1      -2.602  -2.552   0.393  0.00  0.00    +0.043 A 
ATOM     10  N   UNL     1      -1.704  -2.903  -0.509  0.00  0.00    -0.375 N 
ATOM     11  C   UNL     1      -0.605  -4.947   2.542  0.00  0.00    +0.052 C 
ATOM     12  C   UNL     1       0.875  -4.524   2.490  0.00  0.00    +0.114 C 
ATOM     13  N   UNL     1       1.302  -4.416   1.089  0.00  0.00    -0.276 N 
ATOM     14  C   UNL     1       2.338  -5.156   0.647  0.00  0.00    +0.307 C 
ATOM     15  O   UNL     1       2.755  -5.003  -0.485  0.00  0.00    -0.252 OA
ATOM     16  N   UNL     1       2.912  -6.065   1.459  0.00  0.00    -0.269 N 
ATOM     17  H   UNL     1       2.541  -6.232   2.340  0.00  0.00    +0.156 HD
ATOM     18  H   UNL     1      -1.608  -2.545  -1.405  0.00  0.00    +0.160 HD
ENDROOT
BRANCH  16  19
ATOM     19  C   UNL     1       4.043  -6.770   1.032  0.00  0.00    +0.038 A 
ATOM     20  C   UNL     1       4.248  -7.001  -0.322  0.00  0.00    +0.024 A 
ATOM     21  C   UNL     1       5.366  -7.696  -0.740  0.00  0.00    +0.005 A 
ATOM     22  C   UNL     1       6.280  -8.162   0.188  0.00  0.00    -0.050 A 
ATOM     23  C   UNL     1       6.078  -7.933   1.536  0.00  0.00    +0.008 A 
ATOM     24  C   UNL     1       4.965  -7.233   1.960  0.00  0.00    -0.029 A 
ATOM     25  C   UNL     1       4.749  -6.979   3.430  0.00  0.00    +0.045 C 
ATOM     26  C   UNL     1       7.498  -8.920  -0.273  0.00  0.00    +0.044 C 
ENDBRANCH  16  19
BRANCH   1  31
ATOM     27  C   UNL     1       0.970   1.923   2.106  0.00  0.00    +0.044 C 
ATOM     28  C   UNL     1       0.875   0.506   1.600  0.00  0.00    -0.050 A 
ATOM     29  C   UNL     1       1.373   0.184   0.351  0.00  0.00    +0.004 A 
ATOM     30  C   UNL     1       1.286  -1.115  -0.114  0.00  0.00    +0.006 A 
ATOM     31  C   UNL     1       0.702  -2.092   0.671  0.00  0.00    -0.025 A 
ATOM     32  C   UNL     1       0.205  -1.770   1.920  0.00  0.00    +0.006 A 
ATOM     33  C   UNL     1       0.296  -0.472   2.386  0.00  0.00    +0.004 A 
ENDBRANCH   1  31
BRANCH   6  34
ATOM     34  O   UNL     1      -5.181  -1.942   3.616  0.00  0.00    -0.495 OA
ATOM     35  C   UNL     1      -6.218  -0.988   3.383  0.00  0.00    +0.277 C 
ENDBRANCH   6  34
TORSDOF 3
