REMARK  Name = ZINC39537141
REMARK  6 active torsions:
REMARK  status: ('A' for Active; 'I' for Inactive)
REMARK    1  A    between atoms: C_1  and  C_2
REMARK    2  A    between atoms: C_4  and  C_30
REMARK    3  A    between atoms: C_6  and  N_8
REMARK    4  A    between atoms: C_14  and  N_19
REMARK    5  A    between atoms: N_19  and  C_20
REMARK    6  A    between atoms: C_20  and  C_21
REMARK                            x       y       z     vdW  Elec       q    Type
REMARK                         _______ _______ _______ _____ _____    ______ ____
ROOT
ATOM      1  N   UNL     1       0.052  -2.796   2.390  0.00  0.00    -0.247 N 
ATOM      2  C   UNL     1       0.148  -2.242   3.745  0.00  0.00    +0.120 C 
ATOM      3  C   UNL     1      -0.943  -1.200   4.008  0.00  0.00    +0.028 C 
ATOM      4  C   UNL     1      -0.991  -0.913   5.512  0.00  0.00    +0.001 C 
ATOM      5  C   UNL     1      -1.435  -2.149   6.291  0.00  0.00    -0.011 C 
ATOM      6  C   UNL     1      -0.398  -3.272   6.130  0.00  0.00    -0.041 C 
ATOM      7  C   UNL     1      -0.130  -3.432   4.649  0.00  0.00    -0.047 C 
ATOM      8  C   UNL     1      -0.180  -4.500   3.901  0.00  0.00    +0.087 C 
ATOM      9  N   UNL     1      -0.026  -4.189   2.560  0.00  0.00    -0.271 N 
ATOM     10  H   UNL     1       0.024  -4.840   1.843  0.00  0.00    +0.169 HD
ENDROOT
BRANCH   1  16
ATOM     11  C   UNL     1       0.542   1.456  -0.025  0.00  0.00    +0.044 C 
ATOM     12  C   UNL     1       0.271  -0.026  -0.015  0.00  0.00    -0.048 A 
ATOM     13  C   UNL     1       0.006  -0.688  -1.200  0.00  0.00    +0.006 A 
ATOM     14  C   UNL     1      -0.244  -2.048  -1.195  0.00  0.00    -0.048 A 
ATOM     15  C   UNL     1      -0.229  -2.751  -0.006  0.00  0.00    +0.028 A 
ATOM     16  C   UNL     1       0.037  -2.089   1.186  0.00  0.00    +0.049 A 
ATOM     17  C   UNL     1       0.292  -0.724   1.177  0.00  0.00    +0.028 A 
ATOM     18  C   UNL     1      -0.533  -2.765  -2.489  0.00  0.00    +0.044 C 
ENDBRANCH   1  16
BRANCH   6  19
ATOM     19  N   UNL     1       0.849  -2.906   6.815  0.00  0.00    +0.388 N 
ATOM     20  H   UNL     1       1.550  -3.609   6.636  0.00  0.00    -0.084 HD
ATOM     21  H   UNL     1       1.172  -2.014   6.471  0.00  0.00    -0.084 HD
BRANCH  19  22
ATOM     22  C   UNL     1       0.606  -2.814   8.261  0.00  0.00    -0.006 C 
BRANCH  22  23
ATOM     23  C   UNL     1       1.885  -2.438   8.963  0.00  0.00    +0.091 A 
ATOM     24  N   UNL     1       2.806  -3.279   9.334  0.00  0.00    -0.234 NA
ATOM     25  C   UNL     1       3.821  -2.607   9.937  0.00  0.00    +0.089 A 
ATOM     26  C   UNL     1       5.032  -3.002  10.510  0.00  0.00    +0.030 A 
ATOM     27  C   UNL     1       5.867  -2.066  11.051  0.00  0.00    +0.002 A 
ATOM     28  C   UNL     1       5.526  -0.722  11.039  0.00  0.00    +0.002 A 
ATOM     29  C   UNL     1       4.335  -0.308  10.478  0.00  0.00    +0.028 A 
ATOM     30  C   UNL     1       3.475  -1.245   9.923  0.00  0.00    +0.066 A 
ATOM     31  N   UNL     1       2.247  -1.170   9.296  0.00  0.00    -0.343 N 
ATOM     32  H   UNL     1       1.737  -0.363   9.126  0.00  0.00    +0.167 HD
ENDBRANCH  22  23
ENDBRANCH  19  22
ENDBRANCH   6  19
TORSDOF 4
