REMARK  Name = ZINC06194866
REMARK  8 active torsions:
REMARK  status: ('A' for Active; 'I' for Inactive)
REMARK    1  A    between atoms: C_1  and  C_2
REMARK    2  A    between atoms: C_6  and  C_15
REMARK    3  A    between atoms: C_13  and  C_14
REMARK    4  A    between atoms: C_15  and  C_17
REMARK    5  A    between atoms: C_15  and  N_70
REMARK    6  A    between atoms: N_21  and  C_22
REMARK    7  A    between atoms: C_22  and  C_23
REMARK    8  A    between atoms: N_31  and  C_34
REMARK                            x       y       z     vdW  Elec       q    Type
REMARK                         _______ _______ _______ _____ _____    ______ ____
ROOT
ATOM      1  C   UNL     1       4.884   3.977  -0.023  0.00  0.00    +0.039 C 
ENDROOT
BRANCH   1   7
ATOM      2  C   UNL     1      -2.521   4.486  -0.749  0.00  0.00    +0.044 C 
ATOM      3  C   UNL     1      -1.270   3.661  -0.582  0.00  0.00    -0.047 A 
ATOM      4  C   UNL     1      -0.056   4.282  -0.505  0.00  0.00    +0.013 A 
ATOM      5  C   UNL     1       1.105   3.518  -0.351  0.00  0.00    -0.001 A 
ATOM      6  C   UNL     1       2.423   4.150  -0.265  0.00  0.00    +0.017 A 
ATOM      7  C   UNL     1       3.513   3.358  -0.115  0.00  0.00    +0.011 A 
ATOM      8  C   UNL     1       3.369   1.956  -0.045  0.00  0.00    +0.251 A 
ATOM      9  O   UNL     1       4.362   1.262   0.090  0.00  0.00    -0.268 OA
ATOM     10  N   UNL     1       2.163   1.366  -0.123  0.00  0.00    -0.322 N 
ATOM     11  H   UNL     1       2.099   0.399  -0.071  0.00  0.00    +0.169 HD
ATOM     12  C   UNL     1       1.016   2.115  -0.276  0.00  0.00    +0.049 A 
ATOM     13  C   UNL     1      -0.232   1.505  -0.357  0.00  0.00    +0.030 A 
ATOM     14  C   UNL     1      -1.362   2.278  -0.515  0.00  0.00    -0.046 A 
ATOM     15  C   UNL     1      -2.712   1.615  -0.610  0.00  0.00    +0.044 C 
ENDBRANCH   1   7
BRANCH   1  21
ATOM     16  C   UNL     1       7.098   3.986  -1.004  0.00  0.00    -0.058 C 
ATOM     17  C   UNL     1       7.972   3.348  -2.086  0.00  0.00    +0.086 C 
ATOM     18  N   UNL     1       7.387   3.619  -3.407  0.00  0.00    -0.331 N 
ATOM     19  C   UNL     1       6.024   3.077  -3.498  0.00  0.00    +0.086 C 
ATOM     20  C   UNL     1       5.151   3.715  -2.415  0.00  0.00    -0.058 C 
ATOM     21  N   UNL     1       5.737   3.416  -1.092  0.00  0.00    +0.391 N 
ATOM     22  H   UNL     1       5.793   2.398  -0.975  0.00  0.00    -0.080 HD
BRANCH  18  23
ATOM     23  C   UNL     1       8.198   3.112  -4.427  0.00  0.00    +0.065 A 
ATOM     24  C   UNL     1       7.863   3.333  -5.756  0.00  0.00    +0.026 A 
ATOM     25  C   UNL     1       8.665   2.830  -6.763  0.00  0.00    +0.002 A 
ATOM     26  C   UNL     1       9.802   2.108  -6.448  0.00  0.00    +0.003 A 
ATOM     27  C   UNL     1      10.140   1.885  -5.126  0.00  0.00    +0.040 A 
ATOM     28  C   UNL     1       9.344   2.390  -4.113  0.00  0.00    +0.144 A 
ATOM     29  F   UNL     1       9.677   2.177  -2.821  0.00  0.00    -0.204 F 
ENDBRANCH  18  23
ENDBRANCH   1  21
BRANCH   1  30
ATOM     30  C   UNL     1       5.495   3.647   1.315  0.00  0.00    +0.143 A 
ATOM     31  N   UNL     1       5.996   2.493   1.683  0.00  0.00    -0.115 NA
ATOM     32  N   UNL     1       6.419   2.611   2.894  0.00  0.00    -0.023 NA
ATOM     33  N   UNL     1       6.201   3.810   3.308  0.00  0.00    -0.044 NA
ATOM     34  N   UNL     1       5.637   4.481   2.361  0.00  0.00    -0.228 N 
BRANCH  34  35
ATOM     35  C   UNL     1       5.226   5.886   2.416  0.00  0.00    +0.178 C 
BRANCH  35  36
ATOM     36  C   UNL     1       3.787   5.977   2.929  0.00  0.00    +0.140 C 
ATOM     37  C   UNL     1       3.350   7.458   3.046  0.00  0.00    +0.035 C 
ATOM     38  C   UNL     1       1.808   7.321   2.927  0.00  0.00    +0.031 C 
ATOM     39  C   UNL     1       1.659   6.138   1.946  0.00  0.00    +0.160 C 
ATOM     40  O   UNL     1       2.881   5.393   1.979  0.00  0.00    -0.375 OA
ENDBRANCH  35  36
ENDBRANCH  34  35
ENDBRANCH   1  30
TORSDOF 6
