REMARK  Name = ZINC20796593
REMARK  5 active torsions:
REMARK  status: ('A' for Active; 'I' for Inactive)
REMARK    1  A    between atoms: C_1  and  C_2
REMARK    2  A    between atoms: C_6  and  N_9
REMARK    3  A    between atoms: C_7  and  C_8
REMARK    4  A    between atoms: N_13  and  C_15
REMARK    5  A    between atoms: C_23  and  C_28
REMARK                            x       y       z     vdW  Elec       q    Type
REMARK                         _______ _______ _______ _____ _____    ______ ____
ROOT
ATOM      1  N   UNL     1       3.079   0.367  -0.509  0.00  0.00    -0.297 N 
ATOM      2  C   UNL     1       2.639   1.586   0.003  0.00  0.00    +0.156 A 
ATOM      3  C   UNL     1       1.268   1.962   0.286  0.00  0.00    +0.080 A 
ATOM      4  C   UNL     1       1.296   3.264   0.784  0.00  0.00    +0.058 A 
ATOM      5  N   UNL     1       2.570   3.654   0.801  0.00  0.00    -0.234 N 
ATOM      6  N   UNL     1       3.386   2.621   0.323  0.00  0.00    -0.150 NA
ATOM      7  C   UNL     1       0.054   4.006   1.203  0.00  0.00    +0.060 C 
ATOM      8  C   UNL     1      -1.067   2.999   1.476  0.00  0.00    -0.001 C 
ATOM      9  C   UNL     1      -1.252   2.058   0.276  0.00  0.00    +0.083 C 
ATOM     10  C   UNL     1       0.011   1.222   0.128  0.00  0.00    +0.169 C 
ATOM     11  O   UNL     1      -0.018   0.033  -0.110  0.00  0.00    -0.292 OA
ATOM     12  C   UNL     1      -2.373   3.755   1.728  0.00  0.00    +0.008 C 
ATOM     13  H   UNL     1       2.363  -0.452  -0.674  0.00  0.00    +0.154 HD
ENDROOT
BRANCH   1  19
ATOM     14  C   UNL     1       6.735  -2.603  -1.913  0.00  0.00    +0.044 C 
ATOM     15  C   UNL     1       6.231  -1.246  -1.496  0.00  0.00    -0.046 A 
ATOM     16  C   UNL     1       7.108  -0.179  -1.413  0.00  0.00    +0.004 A 
ATOM     17  C   UNL     1       6.649   1.068  -1.029  0.00  0.00    +0.002 A 
ATOM     18  C   UNL     1       5.313   1.254  -0.734  0.00  0.00    +0.023 A 
ATOM     19  C   UNL     1       4.431   0.183  -0.812  0.00  0.00    +0.036 A 
ATOM     20  C   UNL     1       4.895  -1.068  -1.197  0.00  0.00    -0.026 A 
ATOM     21  C   UNL     1       3.941  -2.231  -1.288  0.00  0.00    +0.046 C 
ENDBRANCH   1  19
BRANCH   5  22
ATOM     22  C   UNL     1       3.024   4.908   1.233  0.00  0.00    +0.066 A 
ATOM     23  C   UNL     1       2.259   6.043   0.998  0.00  0.00    +0.030 A 
ATOM     24  C   UNL     1       2.706   7.276   1.429  0.00  0.00    +0.040 A 
ATOM     25  C   UNL     1       3.921   7.384   2.085  0.00  0.00    +0.124 A 
ATOM     26  C   UNL     1       4.687   6.253   2.315  0.00  0.00    +0.040 A 
ATOM     27  C   UNL     1       4.242   5.017   1.891  0.00  0.00    +0.030 A 
ATOM     28  F   UNL     1       4.358   8.592   2.501  0.00  0.00    -0.205 F 
ENDBRANCH   5  22
TORSDOF 2
