REMARK  Name = ZINC27950403
REMARK  6 active torsions:
REMARK  status: ('A' for Active; 'I' for Inactive)
REMARK    1  A    between atoms: C_1  and  C_2
REMARK    2  A    between atoms: C_2  and  C_4
REMARK    3  A    between atoms: C_2  and  N_11
REMARK    4  A    between atoms: N_11  and  S_12
REMARK    5  A    between atoms: S_12  and  C_15
REMARK    6  A    between atoms: N_17  and  C_20
REMARK                            x       y       z     vdW  Elec       q    Type
REMARK                         _______ _______ _______ _____ _____    ______ ____
ROOT
ATOM      1  S   UNL     1      -0.803   0.628  -2.538  0.00  0.00    -0.041 S 
ATOM      2  O   UNL     1      -1.568   1.354  -3.490  0.00  0.00    -0.190 OA
ATOM      3  O   UNL     1       0.519   0.182  -2.803  0.00  0.00    -0.190 OA
ENDROOT
BRANCH   1   4
ATOM      4  C   UNL     1      -1.744  -0.803  -2.122  0.00  0.00    +0.168 A 
ATOM      5  C   UNL     1      -1.252  -1.962  -1.640  0.00  0.00    +0.150 A 
ATOM      6  N   UNL     1      -2.320  -2.798  -1.455  0.00  0.00    -0.325 N 
ATOM      7  C   UNL     1      -3.427  -2.124  -1.839  0.00  0.00    +0.176 A 
ATOM      8  N   UNL     1      -3.074  -0.933  -2.237  0.00  0.00    -0.332 N 
ATOM      9  C   UNL     1      -2.271  -4.170  -0.943  0.00  0.00    +0.151 C 
ATOM     10 CL   UNL     1       0.414  -2.322  -1.312  0.00  0.00    -0.060 Cl
ATOM     11  H   UNL     1      -3.678  -0.096  -2.619  0.00  0.00    +0.168 HD
ENDBRANCH   1   4
BRANCH   1  12
ATOM     12  N   UNL     1      -0.721   1.571  -1.179  0.00  0.00    +0.475 NA
BRANCH  12  14
ATOM     13  C   UNL     1       1.423   1.615  -0.003  0.00  0.00    -0.014 C 
ATOM     14  C   UNL     1      -0.013   1.086   0.008  0.00  0.00    -0.071 C 
BRANCH  14  15
ATOM     15  C   UNL     1      -0.718   1.572   1.248  0.00  0.00    -0.048 A 
ATOM     16  C   UNL     1      -1.569   2.659   1.178  0.00  0.00    +0.003 A 
ATOM     17  C   UNL     1      -2.219   3.103   2.314  0.00  0.00    +0.000 A 
ATOM     18  C   UNL     1      -2.012   2.465   3.523  0.00  0.00    +0.001 A 
ATOM     19  C   UNL     1      -1.158   1.381   3.595  0.00  0.00    +0.020 A 
ATOM     20  C   UNL     1      -0.510   0.933   2.457  0.00  0.00    +0.042 A 
ATOM     21 CL   UNL     1       0.563  -0.428   2.547  0.00  0.00    -0.083 Cl
ENDBRANCH  14  15
ENDBRANCH  12  14
ENDBRANCH   1  12
TORSDOF 4
