REMARK  Name = ZINC43021919
REMARK  9 active torsions:
REMARK  status: ('A' for Active; 'I' for Inactive)
REMARK    1  A    between atoms: C_1  and  C_2
REMARK    2  A    between atoms: C_2  and  C_4
REMARK    3  A    between atoms: C_2  and  N_12
REMARK    4  A    between atoms: C_13  and  C_15
REMARK    5  A    between atoms: C_15  and  C_16
REMARK    6  A    between atoms: N_19  and  C_22
REMARK    7  A    between atoms: C_22  and  C_23
REMARK    8  A    between atoms: N_26  and  C_28
REMARK    9  A    between atoms: C_31  and  C_34
REMARK                            x       y       z     vdW  Elec       q    Type
REMARK                         _______ _______ _______ _____ _____    ______ ____
ROOT
ATOM      1  C   UNL     1      -0.282  -1.153  -4.761  0.00  0.00    -0.006 C 
ATOM      2  C   UNL     1      -1.348  -2.213  -4.470  0.00  0.00    -0.015 C 
ATOM      3  C   UNL     1      -2.291  -2.322  -5.670  0.00  0.00    -0.078 C 
ATOM      4  N   UNL     1      -1.528  -2.707  -6.863  0.00  0.00    +0.382 N 
ATOM      5  C   UNL     1      -0.552  -1.661  -7.190  0.00  0.00    -0.078 C 
ATOM      6  C   UNL     1       0.458  -1.526  -6.048  0.00  0.00    -0.015 C 
ATOM      7  H   UNL     1      -1.043  -3.574  -6.686  0.00  0.00    -0.081 HD
ENDROOT
BRANCH   1   8
ATOM      8  C   UNL     1       0.712  -1.094  -3.598  0.00  0.00    +0.099 C 
BRANCH   8  10
ATOM      9  N   UNL     1       0.688  -0.476  -1.203  0.00  0.00    -0.309 N 
ATOM     10  C   UNL     1       0.006  -0.608  -2.358  0.00  0.00    +0.214 C 
ATOM     11  O   UNL     1      -1.175  -0.336  -2.400  0.00  0.00    -0.276 OA
ATOM     12  H   UNL     1       1.632  -0.695  -1.170  0.00  0.00    +0.149 HD
BRANCH   9  14
ATOM     13  C   UNL     1      -0.019   1.526   0.010  0.00  0.00    +0.033 C 
ATOM     14  C   UNL     1       0.002  -0.004   0.002  0.00  0.00    +0.101 C 
BRANCH  14  15
ATOM     15  C   UNL     1       0.731  -0.503   1.223  0.00  0.00    -0.011 A 
ATOM     16  C   UNL     1       2.097  -0.231   1.385  0.00  0.00    +0.012 A 
ATOM     17  C   UNL     1       2.741  -0.690   2.496  0.00  0.00    +0.070 A 
ATOM     18  C   UNL     1       2.022  -1.426   3.453  0.00  0.00    +0.249 A 
ATOM     19  O   UNL     1       2.586  -1.843   4.452  0.00  0.00    -0.268 OA
ATOM     20  N   UNL     1       0.711  -1.671   3.269  0.00  0.00    -0.329 N 
ATOM     21  H   UNL     1       0.220  -2.180   3.934  0.00  0.00    +0.168 HD
ATOM     22  C   UNL     1       0.066  -1.210   2.167  0.00  0.00    +0.091 A 
ENDBRANCH  14  15
ENDBRANCH   9  14
ENDBRANCH   8  10
ENDBRANCH   1   8
BRANCH   4  23
ATOM     23  C   UNL     1      -2.448  -2.887  -7.994  0.00  0.00    -0.041 C 
BRANCH  23  24
ATOM     24  C   UNL     1      -1.684  -3.400  -9.187  0.00  0.00    -0.046 A 
ATOM     25  C   UNL     1      -1.056  -2.616 -10.176  0.00  0.00    +0.021 A 
ATOM     26  C   UNL     1      -0.487  -3.459 -11.061  0.00  0.00    +0.091 A 
ATOM     27  N   UNL     1      -0.741  -4.738 -10.655  0.00  0.00    -0.323 N 
ATOM     28  C   UNL     1      -1.471  -4.694  -9.501  0.00  0.00    +0.093 A 
BRANCH  27  29
ATOM     29  C   UNL     1      -0.318  -5.903 -11.310  0.00  0.00    +0.046 A 
ATOM     30  C   UNL     1      -0.648  -7.149 -10.796  0.00  0.00    +0.026 A 
ATOM     31  C   UNL     1      -0.230  -8.295 -11.444  0.00  0.00    +0.014 A 
ATOM     32  C   UNL     1       0.517  -8.202 -12.604  0.00  0.00    +0.055 A 
ATOM     33  C   UNL     1       0.848  -6.961 -13.119  0.00  0.00    +0.014 A 
ATOM     34  C   UNL     1       0.427  -5.812 -12.478  0.00  0.00    +0.026 A 
BRANCH  32  35
ATOM     35  C   UNL     1       0.971  -9.454 -13.309  0.00  0.00    +0.417 C 
ATOM     36  F   UNL     1       0.003  -9.842 -14.241  0.00  0.00    -0.166 F 
ATOM     37  F   UNL     1       2.180  -9.205 -13.969  0.00  0.00    -0.166 F 
ATOM     38  F   UNL     1       1.153 -10.476 -12.373  0.00  0.00    -0.166 F 
ENDBRANCH  32  35
ENDBRANCH  27  29
ENDBRANCH  23  24
ENDBRANCH   4  23
TORSDOF 8
