REMARK  Name = ZINC39635872
REMARK  6 active torsions:
REMARK  status: ('A' for Active; 'I' for Inactive)
REMARK    1  A    between atoms: C_1  and  C_2
REMARK    2  A    between atoms: C_3  and  C_14
REMARK    3  A    between atoms: C_4  and  C_7
REMARK    4  A    between atoms: C_18  and  C_27
REMARK    5  A    between atoms: N_29  and  C_30
REMARK    6  A    between atoms: C_36  and  C_38
REMARK                            x       y       z     vdW  Elec       q    Type
REMARK                         _______ _______ _______ _____ _____    ______ ____
ROOT
ATOM      1  C   UNL     1      -2.619  -0.336   0.187  0.00  0.00    +0.252 C 
ATOM      2  O   UNL     1      -3.347  -0.245  -0.783  0.00  0.00    -0.270 OA
ATOM      3  N   UNL     1      -3.097  -0.061   1.417  0.00  0.00    -0.296 N 
ATOM      4  C   UNL     1      -2.349  -0.028   2.696  0.00  0.00    +0.121 C 
ATOM      5  C   UNL     1      -2.937   1.179   3.461  0.00  0.00    +0.100 C 
ATOM      6  C   UNL     1      -4.343   1.373   2.867  0.00  0.00    -0.004 C 
ATOM      7  C   UNL     1      -4.489   0.283   1.795  0.00  0.00    +0.115 C 
ATOM      8  C   UNL     1      -4.460   2.753   2.228  0.00  0.00    -0.010 C 
ATOM      9  C   UNL     1      -5.883   2.944   1.695  0.00  0.00    -0.082 C 
ATOM     10  N   UNL     1      -6.843   2.810   2.798  0.00  0.00    +0.379 N 
ATOM     11  C   UNL     1      -6.788   1.450   3.347  0.00  0.00    -0.082 C 
ATOM     12  C   UNL     1      -5.403   1.195   3.949  0.00  0.00    -0.010 C 
ATOM     13  H   UNL     1      -6.614   3.473   3.523  0.00  0.00    -0.086 HD
ATOM     14  H   UNL     1      -7.774   2.996   2.457  0.00  0.00    -0.086 HD
ENDROOT
BRANCH   1  17
ATOM     15  C   UNL     1      -0.231   1.548  -0.530  0.00  0.00    +0.090 C 
ATOM     16  C   UNL     1      -0.162   0.061  -0.294  0.00  0.00    +0.147 A 
ATOM     17  C   UNL     1      -1.215  -0.748   0.018  0.00  0.00    +0.106 A 
ATOM     18  C   UNL     1      -0.677  -2.110   0.154  0.00  0.00    +0.127 A 
ATOM     19  N   UNL     1       0.609  -2.036  -0.075  0.00  0.00    -0.077 NA
ATOM     20  O   UNL     1       0.939  -0.692  -0.360  0.00  0.00    -0.359 OA
BRANCH  18  21
ATOM     21  C   UNL     1      -1.446  -3.334   0.487  0.00  0.00    +0.023 A 
ATOM     22  C   UNL     1      -2.822  -3.260   0.700  0.00  0.00    +0.011 A 
ATOM     23  C   UNL     1      -3.532  -4.401   1.010  0.00  0.00    +0.001 A 
ATOM     24  C   UNL     1      -2.882  -5.619   1.109  0.00  0.00    +0.001 A 
ATOM     25  C   UNL     1      -1.518  -5.700   0.898  0.00  0.00    +0.020 A 
ATOM     26  C   UNL     1      -0.797  -4.564   0.582  0.00  0.00    +0.050 A 
ATOM     27 CL   UNL     1       0.914  -4.668   0.310  0.00  0.00    -0.083 Cl
ENDBRANCH  18  21
ENDBRANCH   1  17
BRANCH   5  28
ATOM     28  C   UNL     1      -2.094   2.407   3.232  0.00  0.00    +0.218 C 
ATOM     29  O   UNL     1      -1.436   2.510   2.219  0.00  0.00    -0.275 OA
ATOM     30  N   UNL     1      -2.072   3.390   4.154  0.00  0.00    -0.312 N 
ATOM     31  H   UNL     1      -2.539   3.276   4.996  0.00  0.00    +0.149 HD
BRANCH  30  32
ATOM     32  C   UNL     1      -1.342   4.631   3.883  0.00  0.00    +0.076 C 
ATOM     33  C   UNL     1       0.141   4.430   4.203  0.00  0.00    +0.022 C 
ATOM     34  C   UNL     1       0.299   4.057   5.678  0.00  0.00    +0.002 C 
ATOM     35  C   UNL     1      -0.264   5.180   6.552  0.00  0.00    +0.000 C 
ATOM     36  C   UNL     1      -1.747   5.381   6.232  0.00  0.00    +0.005 C 
ATOM     37  C   UNL     1      -1.904   5.754   4.756  0.00  0.00    +0.006 C 
ATOM     38  C   UNL     1      -3.387   5.955   4.437  0.00  0.00    +0.009 C 
ENDBRANCH  30  32
ENDBRANCH   5  28
TORSDOF 4
