REMARK  Name = ZINC57866296
REMARK  9 active torsions:
REMARK  status: ('A' for Active; 'I' for Inactive)
REMARK    1  A    between atoms: C_1  and  C_2
REMARK    2  A    between atoms: C_2  and  C_3
REMARK    3  A    between atoms: C_3  and  C_5
REMARK    4  A    between atoms: C_3  and  C_6
REMARK    5  A    between atoms: C_6  and  C_7
REMARK    6  A    between atoms: C_8  and  C_34
REMARK    7  A    between atoms: C_15  and  S_17
REMARK    8  A    between atoms: S_17  and  C_18
REMARK    9  A    between atoms: C_18  and  C_19
REMARK                            x       y       z     vdW  Elec       q    Type
REMARK                         _______ _______ _______ _____ _____    ______ ____
ROOT
ATOM      1  C   UNL     1       1.277  -2.528   2.581  0.00  0.00    -0.023 A 
ATOM      2  C   UNL     1       2.586  -2.822   2.632  0.00  0.00    -0.007 A 
ATOM      3  S   UNL     1       2.821  -3.344   4.321  0.00  0.00    -0.075 S 
ATOM      4  C   UNL     1       1.156  -3.150   4.901  0.00  0.00    +0.092 A 
ATOM      5  C   UNL     1       0.469  -2.683   3.777  0.00  0.00    +0.075 A 
ATOM      6  C   UNL     1      -0.976  -2.424   3.981  0.00  0.00    +0.282 A 
ATOM      7  O   UNL     1      -1.666  -2.018   3.059  0.00  0.00    -0.265 OA
ATOM      8  N   UNL     1      -1.516  -2.639   5.184  0.00  0.00    -0.185 NA
ATOM      9  C   UNL     1      -0.811  -3.077   6.206  0.00  0.00    +0.171 A 
ATOM     10  N   UNL     1       0.520  -3.346   6.088  0.00  0.00    -0.328 N 
ATOM     11  C   UNL     1       3.609  -2.733   1.530  0.00  0.00    +0.052 C 
ATOM     12  H   UNL     1       1.018  -3.667   6.856  0.00  0.00    +0.168 HD
ENDROOT
BRANCH   1  13
ATOM     13  C   UNL     1       0.655  -2.037   1.299  0.00  0.00    +0.040 C 
BRANCH  13  14
ATOM     14  C   UNL     1       0.742  -0.511   1.242  0.00  0.00    -0.010 C 
ATOM     15  C   UNL     1       2.210  -0.086   1.169  0.00  0.00    +0.008 C 
BRANCH  14  17
ATOM     16  C   UNL     1      -0.019   1.526   0.010  0.00  0.00    +0.004 C 
ATOM     17  C   UNL     1       0.002  -0.004   0.002  0.00  0.00    +0.000 C 
ENDBRANCH  14  17
ENDBRANCH  13  14
ENDBRANCH   1  13
BRANCH   9  18
ATOM     18  S   UNL     1      -1.608  -3.332   7.756  0.00  0.00    -0.080 S 
BRANCH  18  19
ATOM     19  C   UNL     1      -3.334  -2.868   7.445  0.00  0.00    +0.151 C 
BRANCH  19  20
ATOM     20  C   UNL     1      -4.137  -3.042   8.708  0.00  0.00    +0.121 A 
ATOM     21  N   UNL     1      -5.462  -2.754   8.692  0.00  0.00    -0.307 N 
ATOM     22  H   UNL     1      -5.877  -2.441   7.873  0.00  0.00    +0.170 HD
ATOM     23  C   UNL     1      -6.208  -2.900   9.808  0.00  0.00    +0.295 A 
ATOM     24  O   UNL     1      -7.400  -2.643   9.799  0.00  0.00    -0.264 OA
ATOM     25  C   UNL     1      -5.576  -3.358  10.986  0.00  0.00    +0.218 A 
ATOM     26  C   UNL     1      -4.214  -3.635  10.934  0.00  0.00    +0.124 A 
ATOM     27  N   UNL     1      -3.540  -3.471   9.785  0.00  0.00    -0.229 NA
ATOM     28  C   UNL     1      -3.846  -4.085  12.285  0.00  0.00    +0.046 A 
ATOM     29  C   UNL     1      -2.657  -4.501  12.879  0.00  0.00    +0.014 A 
ATOM     30  C   UNL     1      -2.648  -4.867  14.207  0.00  0.00    +0.001 A 
ATOM     31  C   UNL     1      -3.817  -4.821  14.952  0.00  0.00    +0.004 A 
ATOM     32  C   UNL     1      -5.000  -4.411  14.377  0.00  0.00    +0.047 A 
ATOM     33  C   UNL     1      -5.031  -4.037  13.037  0.00  0.00    +0.138 A 
ATOM     34  O   UNL     1      -6.026  -3.604  12.234  0.00  0.00    -0.448 OA
ENDBRANCH  19  20
ENDBRANCH  18  19
ENDBRANCH   9  18
TORSDOF 6
