REMARK  Name = ZINC63738781
REMARK  11 active torsions:
REMARK  status: ('A' for Active; 'I' for Inactive)
REMARK    1  A    between atoms: C_1  and  C_2
REMARK    2  A    between atoms: C_2  and  C_4
REMARK    3  A    between atoms: C_2  and  N_12
REMARK    4  A    between atoms: C_4  and  C_5
REMARK    5  A    between atoms: C_5  and  C_6
REMARK    6  A    between atoms: C_13  and  C_15
REMARK    7  A    between atoms: C_15  and  C_17
REMARK    8  A    between atoms: C_15  and  C_18
REMARK    9  A    between atoms: C_24  and  C_26
REMARK   10  A    between atoms: C_32  and  O_36
REMARK   11  A    between atoms: O_36  and  C_37
REMARK                            x       y       z     vdW  Elec       q    Type
REMARK                         _______ _______ _______ _____ _____    ______ ____
ROOT
ATOM      1  C   UNL     1      -4.000  -1.215  -2.566  0.00  0.00    +0.004 C 
ATOM      2  C   UNL     1      -5.436  -1.747  -2.555  0.00  0.00    +0.023 C 
ATOM      3  C   UNL     1      -5.956  -1.829  -3.994  0.00  0.00    +0.108 C 
ATOM      4  N   UNL     1      -5.805  -0.512  -4.627  0.00  0.00    -0.300 N 
ATOM      5  C   UNL     1      -4.484   0.131  -4.614  0.00  0.00    +0.108 C 
ATOM      6  C   UNL     1      -3.980   0.192  -3.168  0.00  0.00    +0.023 C 
ATOM      7  C   UNL     1      -6.858   0.095  -5.210  0.00  0.00    +0.242 C 
ATOM      8  O   UNL     1      -7.944  -0.447  -5.215  0.00  0.00    -0.273 OA
ENDROOT
BRANCH   7   9
ATOM      9  C   UNL     1      -6.687   1.446  -5.856  0.00  0.00    +0.190 C 
ATOM     10  C   UNL     1      -6.275   2.469  -4.822  0.00  0.00    +0.016 C 
ATOM     11  C   UNL     1      -7.250   3.404  -4.809  0.00  0.00    -0.003 A 
ATOM     12  C   UNL     1      -7.433   4.637  -4.031  0.00  0.00    +0.013 A 
ATOM     13  C   UNL     1      -8.536   5.388  -4.241  0.00  0.00    +0.046 A 
ATOM     14  C   UNL     1      -9.512   5.018  -5.186  0.00  0.00    +0.122 A 
ATOM     15  C   UNL     1      -9.410   3.893  -5.939  0.00  0.00    +0.071 A 
ATOM     16  C   UNL     1      -8.290   3.036  -5.796  0.00  0.00    +0.047 A 
ATOM     17  N   UNL     1      -7.968   1.912  -6.399  0.00  0.00    -0.370 N 
ATOM     18  H   UNL     1      -8.489   1.466  -7.085  0.00  0.00    +0.161 HD
BRANCH  14  19
ATOM     19  O   UNL     1     -10.597   5.815  -5.349  0.00  0.00    -0.495 OA
ATOM     20  C   UNL     1     -10.667   6.989  -4.536  0.00  0.00    +0.277 C 
ENDBRANCH  14  19
ENDBRANCH   7   9
BRANCH   1  21
ATOM     21  C   UNL     1      -3.465  -1.164  -1.134  0.00  0.00    +0.075 C 
ATOM     22  C   UNL     1      -3.485  -2.571  -0.532  0.00  0.00    +0.017 C 
BRANCH  21  24
ATOM     23  N   UNL     1      -1.372  -0.511   0.012  0.00  0.00    -0.312 N 
ATOM     24  C   UNL     1      -2.051  -0.643  -1.145  0.00  0.00    +0.216 C 
ATOM     25  O   UNL     1      -1.524  -0.341  -2.194  0.00  0.00    -0.276 OA
ATOM     26  H   UNL     1      -1.794  -0.752   0.852  0.00  0.00    +0.149 HD
BRANCH  23  28
ATOM     27  C   UNL     1      -0.019   1.526   0.010  0.00  0.00    +0.028 C 
ATOM     28  C   UNL     1       0.002  -0.004   0.002  0.00  0.00    +0.070 C 
BRANCH  28  29
ATOM     29  C   UNL     1       0.742  -0.511   1.242  0.00  0.00    +0.026 C 
BRANCH  29  30
ATOM     30  C   UNL     1       0.872  -2.034   1.171  0.00  0.00    +0.037 C 
BRANCH  30  31
ATOM     31  C   UNL     1       1.601  -2.533   2.392  0.00  0.00    -0.047 A 
ATOM     32  C   UNL     1       2.979  -2.641   2.378  0.00  0.00    +0.003 A 
ATOM     33  C   UNL     1       3.647  -3.099   3.498  0.00  0.00    +0.000 A 
ATOM     34  C   UNL     1       2.938  -3.448   4.632  0.00  0.00    +0.000 A 
ATOM     35  C   UNL     1       1.560  -3.340   4.646  0.00  0.00    +0.000 A 
ATOM     36  C   UNL     1       0.892  -2.878   3.527  0.00  0.00    +0.003 A 
ENDBRANCH  30  31
ENDBRANCH  29  30
ENDBRANCH  28  29
ENDBRANCH  23  28
ENDBRANCH  21  24
ENDBRANCH   1  21
TORSDOF 8
