REMARK  Name = ZINC36581425
REMARK  13 active torsions:
REMARK  status: ('A' for Active; 'I' for Inactive)
REMARK    1  A    between atoms: C_1  and  C_2
REMARK    2  A    between atoms: C_4  and  C_15
REMARK    3  A    between atoms: C_12  and  C_13
REMARK    4  A    between atoms: C_12  and  C_14
REMARK    5  A    between atoms: N_17  and  C_18
REMARK    6  A    between atoms: N_17  and  C_36
REMARK    7  A    between atoms: C_18  and  C_20
REMARK    8  A    between atoms: C_18  and  C_27
REMARK    9  A    between atoms: C_25  and  O_26
REMARK   10  A    between atoms: N_29  and  C_30
REMARK   11  A    between atoms: C_36  and  C_37
REMARK   12  A    between atoms: C_36  and  C_38
REMARK   13  A    between atoms: C_36  and  C_39
REMARK                            x       y       z     vdW  Elec       q    Type
REMARK                         _______ _______ _______ _____ _____    ______ ____
ROOT
ATOM      1  C   UNL     1      -7.402  -4.515 -12.495  0.00  0.00    +0.196 C 
ENDROOT
BRANCH   1   2
ATOM      2  C   UNL     1      -7.515  -4.034 -13.919  0.00  0.00    +0.023 A 
ATOM      3  C   UNL     1      -6.392  -3.591 -14.590  0.00  0.00    +0.009 A 
ATOM      4  C   UNL     1      -6.495  -3.148 -15.896  0.00  0.00    +0.001 A 
ATOM      5  C   UNL     1      -7.722  -3.148 -16.534  0.00  0.00    +0.004 A 
ATOM      6  C   UNL     1      -8.848  -3.591 -15.867  0.00  0.00    +0.046 A 
ATOM      7  C   UNL     1      -8.746  -4.040 -14.558  0.00  0.00    +0.122 A 
BRANCH   7   8
ATOM      8  O   UNL     1      -9.852  -4.481 -13.902  0.00  0.00    -0.506 OA
ATOM      9  H   UNL     1     -10.327  -3.789 -13.422  0.00  0.00    +0.292 HD
ENDBRANCH   7   8
ENDBRANCH   1   2
BRANCH   1  10
ATOM     10  C   UNL     1      -8.330  -5.684 -12.285  0.00  0.00    +0.238 C 
ATOM     11  O   UNL     1      -8.764  -5.922 -11.178  0.00  0.00    -0.273 OA
ATOM     12  N   UNL     1      -8.679  -6.463 -13.328  0.00  0.00    -0.311 N 
ATOM     13  H   UNL     1      -8.333  -6.272 -14.213  0.00  0.00    +0.149 HD
BRANCH  12  14
ATOM     14  C   UNL     1      -9.581  -7.599 -13.123  0.00  0.00    +0.073 C 
ATOM     15  C   UNL     1      -8.773  -8.817 -12.671  0.00  0.00    +0.022 C 
ATOM     16  C   UNL     1      -9.716 -10.004 -12.458  0.00  0.00    +0.002 C 
ATOM     17  C   UNL     1     -10.435 -10.326 -13.769  0.00  0.00    +0.000 C 
ATOM     18  C   UNL     1     -11.243  -9.108 -14.221  0.00  0.00    +0.002 C 
ATOM     19  C   UNL     1     -10.300  -7.922 -14.434  0.00  0.00    +0.022 C 
ENDBRANCH  12  14
ENDBRANCH   1  10
BRANCH   1  22
ATOM     20  C   UNL     1      -5.484  -5.957 -12.919  0.00  0.00    +0.220 C 
ATOM     21  O   UNL     1      -6.075  -6.426 -13.869  0.00  0.00    -0.275 OA
ATOM     22  N   UNL     1      -6.024  -4.932 -12.229  0.00  0.00    -0.281 N 
BRANCH  20  25
ATOM     23  C   UNL     1      -3.658  -8.916 -11.877  0.00  0.00    +0.008 C 
ATOM     24  C   UNL     1      -3.983  -7.949 -13.011  0.00  0.00    +0.001 C 
ATOM     25  C   UNL     1      -4.146  -6.520 -12.511  0.00  0.00    +0.079 C 
ATOM     26  C   UNL     1      -3.015  -5.598 -12.953  0.00  0.00    +0.017 C 
ATOM     27  C   UNL     1      -2.342  -6.088 -14.236  0.00  0.00    -0.004 C 
ATOM     28  C   UNL     1      -3.280  -6.876 -15.163  0.00  0.00    +0.008 C 
ATOM     29  C   UNL     1      -3.017  -8.051 -14.185  0.00  0.00    -0.001 C 
ATOM     30  C   UNL     1      -1.629  -7.438 -14.017  0.00  0.00    -0.029 C 
ATOM     31  C   UNL     1      -0.951  -7.586 -12.659  0.00  0.00    +0.011 C 
ATOM     32  C   UNL     1      -0.657  -7.792 -15.159  0.00  0.00    +0.011 C 
ENDBRANCH  20  25
BRANCH  22  33
ATOM     33  C   UNL     1      -5.231  -4.236 -11.212  0.00  0.00    +0.030 C 
ATOM     34  C   UNL     1      -4.203  -3.334 -11.897  0.00  0.00    +0.031 C 
ATOM     35  C   UNL     1      -6.155  -3.385 -10.339  0.00  0.00    +0.031 C 
ATOM     36  C   UNL     1      -4.507  -5.263 -10.339  0.00  0.00    +0.031 C 
ENDBRANCH  22  33
ENDBRANCH   1  22
TORSDOF 7
