REMARK  Name = ZINC09016048
REMARK  13 active torsions:
REMARK  status: ('A' for Active; 'I' for Inactive)
REMARK    1  A    between atoms: C_1  and  C_2
REMARK    2  A    between atoms: C_2  and  CA_3
REMARK    3  A    between atoms: CA_3  and  C_5
REMARK    4  A    between atoms: CA_3  and  N_7
REMARK    5  A    between atoms: C_5  and  O_6
REMARK    6  A    between atoms: C_14  and  C_18
REMARK    7  A    between atoms: C_18  and  C_19
REMARK    8  A    between atoms: C_19  and  C_20
REMARK    9  A    between atoms: C_19  and  C_21
REMARK   10  A    between atoms: C_24  and  C_26
REMARK   11  A    between atoms: C_24  and  C_27
REMARK   12  A    between atoms: C_29  and  S_31
REMARK   13  A    between atoms: S_31  and  C_32
REMARK                            x       y       z     vdW  Elec       q    Type
REMARK                         _______ _______ _______ _____ _____    ______ ____
ROOT
ATOM      1  N   UNL     1      -0.199   0.335  -0.143  0.00  0.00    -0.323 N 
ATOM      2  C   UNL     1       0.934   1.131  -0.104  0.00  0.00    +0.138 A 
ATOM      3  C   UNL     1       2.202   0.564  -0.102  0.00  0.00    +0.080 A 
ATOM      4  C   UNL     1       3.350   1.363  -0.062  0.00  0.00    +0.094 A 
ATOM      5  C   UNL     1       4.637   0.643  -0.064  0.00  0.00    +0.037 A 
ATOM      6  C   UNL     1       5.937   1.196  -0.028  0.00  0.00    -0.026 A 
ATOM      7  C   UNL     1       7.026   0.360  -0.033  0.00  0.00    +0.003 A 
ATOM      8  C   UNL     1       6.840  -1.016  -0.079  0.00  0.00    +0.048 A 
ATOM      9  N   UNL     1       5.626  -1.528  -0.115  0.00  0.00    -0.244 NA
ATOM     10  C   UNL     1       4.557  -0.760  -0.107  0.00  0.00    +0.111 A 
ATOM     11  S   UNL     1       2.813  -1.098  -0.142  0.00  0.00    -0.064 S 
ATOM     12  C   UNL     1       8.431   0.903   0.018  0.00  0.00    +0.197 C 
ATOM     13  O   UNL     1       8.434   2.291  -0.313  0.00  0.00    -0.369 OA
ATOM     14  C   UNL     1       7.502   3.059   0.457  0.00  0.00    +0.068 C 
ATOM     15  C   UNL     1       6.085   2.693   0.009  0.00  0.00    +0.070 C 
ATOM     16  C   UNL     1       7.747   4.551   0.222  0.00  0.00    +0.041 C 
ATOM     17  C   UNL     1       7.671   2.735   1.942  0.00  0.00    +0.041 C 
ATOM     18  N   UNL     1       3.144   2.700  -0.028  0.00  0.00    -0.221 NA
ATOM     19  C   UNL     1       1.929   3.206  -0.031  0.00  0.00    +0.190 A 
ATOM     20  N   UNL     1       0.833   2.459  -0.073  0.00  0.00    -0.206 NA
ATOM     21  H   UNL     1      -0.113  -0.631  -0.169  0.00  0.00    +0.148 HD
ENDROOT
BRANCH  19  22
ATOM     22  S   UNL     1       1.750   4.958   0.014  0.00  0.00    -0.089 S 
ATOM     23  C   UNL     1      -0.055   5.090  -0.007  0.00  0.00    +0.093 C 
ENDBRANCH  19  22
BRANCH   1  24
ATOM     24  CA  UNL     1      -1.528   0.951  -0.150  0.00  0.00    +0.097 C 
BRANCH  24  26
ATOM     25  C   UNL     1      -2.241  -0.312   1.885  0.00  0.00    +0.006 C 
ATOM     26  C   UNL     1      -2.552  -0.037   0.412  0.00  0.00    +0.021 C 
ENDBRANCH  24  26
BRANCH  24  27
ATOM     27  C   UNL     1      -1.911   1.321  -1.585  0.00  0.00    +0.178 C 
BRANCH  27  28
ATOM     28  O   UNL     1      -2.042   0.131  -2.365  0.00  0.00    -0.393 OA
ATOM     29  H   UNL     1      -2.283   0.290  -3.288  0.00  0.00    +0.209 HD
ENDBRANCH  27  28
ENDBRANCH  24  27
ENDBRANCH   1  24
BRANCH   8  30
ATOM     30  C   UNL     1       8.037  -1.932  -0.089  0.00  0.00    +0.058 C 
BRANCH  30  31
ATOM     31  C   UNL     1       8.505  -2.176   1.347  0.00  0.00    -0.011 C 
ATOM     32  C   UNL     1       7.428  -2.951   2.110  0.00  0.00    +0.007 C 
ATOM     33  C   UNL     1       9.802  -2.987   1.330  0.00  0.00    +0.007 C 
ENDBRANCH  30  31
ENDBRANCH   8  30
TORSDOF 7
