REMARK  Name = ZINC04222112
REMARK  12 active torsions:
REMARK  status: ('A' for Active; 'I' for Inactive)
REMARK    1  A    between atoms: C_1  and  C_2
REMARK    2  A    between atoms: C_2  and  N_3
REMARK    3  A    between atoms: N_3  and  C_4
REMARK    4  A    between atoms: C_4  and  C_5
REMARK    5  A    between atoms: C_6  and  C_8
REMARK    6  A    between atoms: C_8  and  C_10
REMARK    7  A    between atoms: C_8  and  C_11
REMARK    8  A    between atoms: C_15  and  C_42
REMARK    9  A    between atoms: C_23  and  C_25
REMARK   10  A    between atoms: C_31  and  C_33
REMARK   11  A    between atoms: C_34  and  C_41
REMARK   12  A    between atoms: C_38  and  O_40
REMARK                            x       y       z     vdW  Elec       q    Type
REMARK                         _______ _______ _______ _____ _____    ______ ____
ROOT
ATOM      1  C   UNL     1       2.643   2.750   0.850  0.00  0.00    +0.029 C 
ATOM      2  C   UNL     1       3.895   3.583   1.127  0.00  0.00    +0.007 C 
ATOM      3  C   UNL     1       3.688   5.016   0.630  0.00  0.00    +0.008 C 
ATOM      4  C   UNL     1       2.494   5.631   1.376  0.00  0.00    -0.022 C 
ATOM      5  C   UNL     1       2.768   5.505   2.886  0.00  0.00    +0.051 C 
ATOM      6  C   UNL     1       1.490   5.701   3.626  0.00  0.00    +0.015 A 
ATOM      7  C   UNL     1       0.227   5.681   3.128  0.00  0.00    +0.057 A 
ATOM      8  N   UNL     1      -0.751   5.886   4.006  0.00  0.00    -0.229 NA
ATOM      9  C   UNL     1      -0.513   6.096   5.284  0.00  0.00    +0.165 A 
ATOM     10  S   UNL     1       1.222   6.015   5.350  0.00  0.00    -0.057 S 
ATOM     11  N   UNL     1      -1.417   6.322   6.316  0.00  0.00    -0.264 N 
ATOM     12  C   UNL     1      -0.971   6.518   7.572  0.00  0.00    +0.222 C 
ATOM     13  O   UNL     1       0.220   6.495   7.803  0.00  0.00    -0.275 OA
ATOM     14  C   UNL     1      -0.004   5.435   1.642  0.00  0.00    +0.042 C 
ATOM     15  C   UNL     1       1.246   4.807   1.037  0.00  0.00    +0.033 C 
ATOM     16  C   UNL     1       1.435   3.380   1.550  0.00  0.00    +0.123 C 
ATOM     17  C   UNL     1      -0.299   6.764   0.943  0.00  0.00    +0.014 C 
ATOM     18  C   UNL     1       2.310   7.098   0.982  0.00  0.00    +0.012 C 
ATOM     19  H   UNL     1      -2.369   6.340   6.131  0.00  0.00    +0.157 HD
ENDROOT
BRANCH  12  20
ATOM     20  C   UNL     1      -1.951   6.764   8.690  0.00  0.00    +0.078 C 
ATOM     21  C   UNL     1      -2.765   8.023   8.387  0.00  0.00    +0.032 C 
ATOM     22  C   UNL     1      -3.784   8.251   9.508  0.00  0.00    +0.108 C 
ATOM     23  N   UNL     1      -3.072   8.288  10.793  0.00  0.00    -0.302 N 
ATOM     24  C   UNL     1      -2.189   7.167  11.144  0.00  0.00    +0.108 C 
ATOM     25  C   UNL     1      -1.189   6.951  10.004  0.00  0.00    +0.032 C 
ATOM     26  C   UNL     1      -3.226   9.330  11.633  0.00  0.00    +0.212 C 
ATOM     27  O   UNL     1      -2.558   9.398  12.643  0.00  0.00    -0.276 OA
ATOM     28  C   UNL     1      -4.230  10.409  11.319  0.00  0.00    +0.109 C 
ENDBRANCH  12  20
BRANCH   1  29
ATOM     29  C   UNL     1       2.851   1.329   1.376  0.00  0.00    +0.078 C 
ATOM     30  C   UNL     1       3.235   1.383   2.856  0.00  0.00    +0.017 C 
BRANCH  29  32
ATOM     31  N   UNL     1       3.660  -0.314  -0.288  0.00  0.00    -0.302 N 
ATOM     32  C   UNL     1       3.954   0.661   0.595  0.00  0.00    +0.219 C 
ATOM     33  O   UNL     1       5.106   1.001   0.762  0.00  0.00    -0.275 OA
BRANCH  31  35
ATOM     34  C   UNL     1       1.715   0.311  -1.633  0.00  0.00    +0.024 C 
ATOM     35  C   UNL     1       2.262  -0.647  -0.572  0.00  0.00    +0.104 C 
ENDBRANCH  31  35
BRANCH  31  36
ATOM     36  C   UNL     1       4.738  -1.040  -0.963  0.00  0.00    +0.104 C 
ATOM     37  C   UNL     1       5.127  -2.264  -0.131  0.00  0.00    +0.024 C 
ENDBRANCH  31  36
ENDBRANCH  29  32
ENDBRANCH   1  29
BRANCH  16  38
ATOM     38  O   UNL     1       0.264   2.611   1.267  0.00  0.00    -0.391 OA
ATOM     39  H   UNL     1       0.337   1.679   1.512  0.00  0.00    +0.210 HD
ENDBRANCH  16  38
TORSDOF 6
