REMARK  Name = ZINC36504447
REMARK  12 active torsions:
REMARK  status: ('A' for Active; 'I' for Inactive)
REMARK    1  A    between atoms: C_1  and  N_2
REMARK    2  A    between atoms: N_2  and  C_3
REMARK    3  A    between atoms: N_2  and  C_4
REMARK    4  A    between atoms: C_7  and  C_10
REMARK    5  A    between atoms: C_10  and  C_12
REMARK    6  A    between atoms: C_10  and  N_21
REMARK    7  A    between atoms: N_14  and  C_15
REMARK    8  A    between atoms: N_21  and  C_22
REMARK    9  A    between atoms: C_22  and  C_23
REMARK   10  A    between atoms: C_28  and  C_30
REMARK   11  A    between atoms: C_30  and  N_31
REMARK   12  A    between atoms: C_32  and  C_34
REMARK                            x       y       z     vdW  Elec       q    Type
REMARK                         _______ _______ _______ _____ _____    ______ ____
ROOT
ATOM      1  C   UNL     1      -0.009  -2.608  -4.776  0.00  0.00    +0.193 C 
ENDROOT
BRANCH   1   5
ATOM      2  C   UNL     1       0.961  -0.491  -1.192  0.00  0.00    +0.029 A 
ATOM      3  C   UNL     1       0.612  -1.835  -1.134  0.00  0.00    +0.023 A 
ATOM      4  C   UNL     1       0.299  -2.516  -2.294  0.00  0.00    +0.008 A 
ATOM      5  C   UNL     1       0.332  -1.862  -3.512  0.00  0.00    -0.018 A 
ATOM      6  C   UNL     1       0.679  -0.524  -3.573  0.00  0.00    +0.008 A 
ATOM      7  C   UNL     1       0.988   0.164  -2.416  0.00  0.00    +0.023 A 
BRANCH   2   9
ATOM      8  C   UNL     1       1.640   1.619  -0.083  0.00  0.00    +0.129 C 
ATOM      9  N   UNL     1       1.278   0.201  -0.020  0.00  0.00    -0.336 N 
ATOM     10  C   UNL     1       1.249  -0.492   1.270  0.00  0.00    +0.129 C 
ENDBRANCH   2   9
ENDBRANCH   1   5
BRANCH   1  11
ATOM     11  C   UNL     1      -1.464  -2.394  -5.108  0.00  0.00    +0.238 C 
ATOM     12  O   UNL     1      -1.779  -1.946  -6.189  0.00  0.00    -0.273 OA
ATOM     13  N   UNL     1      -2.414  -2.703  -4.203  0.00  0.00    -0.311 N 
ATOM     14  H   UNL     1      -2.162  -3.062  -3.338  0.00  0.00    +0.149 HD
BRANCH  13  15
ATOM     15  C   UNL     1      -3.828  -2.495  -4.526  0.00  0.00    +0.073 C 
ATOM     16  C   UNL     1      -4.213  -1.046  -4.220  0.00  0.00    +0.022 C 
ATOM     17  C   UNL     1      -5.690  -0.829  -4.557  0.00  0.00    +0.002 C 
ATOM     18  C   UNL     1      -6.549  -1.774  -3.715  0.00  0.00    +0.000 C 
ATOM     19  C   UNL     1      -6.164  -3.223  -4.021  0.00  0.00    +0.002 C 
ATOM     20  C   UNL     1      -4.687  -3.440  -3.684  0.00  0.00    +0.022 C 
ENDBRANCH  13  15
ENDBRANCH   1  11
BRANCH   1  21
ATOM     21  N   UNL     1       0.821  -2.111  -5.876  0.00  0.00    -0.277 N 
ATOM     22  C   UNL     1       2.161  -2.249  -5.824  0.00  0.00    +0.234 C 
ATOM     23  O   UNL     1       2.679  -2.783  -4.867  0.00  0.00    -0.274 OA
BRANCH  21  24
ATOM     24  C   UNL     1       0.195  -1.466  -7.032  0.00  0.00    +0.183 C 
BRANCH  24  25
ATOM     25  C   UNL     1      -0.279  -0.089  -6.643  0.00  0.00    +0.122 A 
ATOM     26  C   UNL     1       0.403   1.057  -6.821  0.00  0.00    +0.046 A 
ATOM     27  C   UNL     1      -0.409   2.099  -6.315  0.00  0.00    +0.041 A 
ATOM     28  C   UNL     1      -1.538   1.527  -5.859  0.00  0.00    +0.195 A 
ATOM     29  O   UNL     1      -1.456   0.202  -6.066  0.00  0.00    -0.466 OA
ENDBRANCH  24  25
ENDBRANCH  21  24
BRANCH  22  30
ATOM     30  C   UNL     1       3.015  -1.738  -6.956  0.00  0.00    +0.200 C 
BRANCH  30  31
ATOM     31  N   UNL     1       4.425  -2.005  -6.662  0.00  0.00    -0.303 N 
ATOM     32  C   UNL     1       5.378  -1.633  -7.540  0.00  0.00    +0.244 C 
ATOM     33  O   UNL     1       5.067  -1.075  -8.575  0.00  0.00    -0.270 OA
ATOM     34  H   UNL     1       4.673  -2.450  -5.837  0.00  0.00    +0.150 HD
BRANCH  32  35
ATOM     35  C   UNL     1       6.801  -1.902  -7.244  0.00  0.00    +0.037 A 
ATOM     36  C   UNL     1       7.161  -2.547  -6.059  0.00  0.00    +0.013 A 
ATOM     37  C   UNL     1       8.491  -2.796  -5.790  0.00  0.00    +0.001 A 
ATOM     38  C   UNL     1       9.467  -2.408  -6.690  0.00  0.00    +0.000 A 
ATOM     39  C   UNL     1       9.117  -1.768  -7.865  0.00  0.00    +0.001 A 
ATOM     40  C   UNL     1       7.790  -1.518  -8.150  0.00  0.00    +0.013 A 
ENDBRANCH  32  35
ENDBRANCH  30  31
ENDBRANCH  22  30
ENDBRANCH   1  21
TORSDOF 10
