REMARK  Name = ZINC22784356
REMARK  7 active torsions:
REMARK  status: ('A' for Active; 'I' for Inactive)
REMARK    1  A    between atoms: C_1  and  C_2
REMARK    2  A    between atoms: C_8  and  C_10
REMARK    3  A    between atoms: C_10  and  C_12
REMARK    4  A    between atoms: C_10  and  N_17
REMARK    5  A    between atoms: N_20  and  C_23
REMARK    6  A    between atoms: C_23  and  C_24
REMARK    7  A    between atoms: C_23  and  C_30
REMARK                            x       y       z     vdW  Elec       q    Type
REMARK                         _______ _______ _______ _____ _____    ______ ____
ROOT
ATOM      1  N   UNL     1      -2.225   7.219  -3.083  0.00  0.00    -0.288 NA
ATOM      2  C   UNL     1      -2.377   7.753  -1.723  0.00  0.00    +0.101 C 
ATOM      3  C   UNL     1      -1.197   7.296  -0.863  0.00  0.00    +0.100 C 
ATOM      4  N   UNL     1      -1.147   5.827  -0.846  0.00  0.00    -0.289 NA
ATOM      5  C   UNL     1      -0.995   5.293  -2.207  0.00  0.00    +0.100 C 
ATOM      6  C   UNL     1      -2.175   5.750  -3.067  0.00  0.00    +0.101 C 
ENDROOT
BRANCH   1   7
ATOM      7  C   UNL     1      -3.301   7.699  -3.961  0.00  0.00    +0.136 C 
BRANCH   7  15
ATOM      8  C   UNL     1      -4.252   3.884 -10.300  0.00  0.00    +0.090 C 
ATOM      9  C   UNL     1      -3.901   4.657  -9.054  0.00  0.00    +0.150 A 
ATOM     10  N   UNL     1      -2.674   5.035  -8.701  0.00  0.00    -0.205 NA
ATOM     11  C   UNL     1      -2.731   5.683  -7.570  0.00  0.00    +0.199 A 
ATOM     12  N   UNL     1      -4.023   5.748  -7.145  0.00  0.00    -0.169 N 
ATOM     13  N   UNL     1      -4.753   5.061  -8.150  0.00  0.00    -0.147 NA
ATOM     14  C   UNL     1      -4.264   6.402  -5.961  0.00  0.00    +0.285 A 
ATOM     15  C   UNL     1      -3.258   6.947  -5.266  0.00  0.00    +0.081 A 
ATOM     16  S   UNL     1      -1.852   6.556  -6.296  0.00  0.00    -0.047 S 
ATOM     17  O   UNL     1      -5.537   6.496  -5.490  0.00  0.00    -0.265 OA
ENDBRANCH   7  15
BRANCH   7  18
ATOM     18  C   UNL     1      -3.116   9.171  -4.223  0.00  0.00    +0.012 A 
ATOM     19  C   UNL     1      -4.052  10.149  -4.296  0.00  0.00    +0.013 A 
ATOM     20  C   UNL     1      -3.647  11.447  -4.546  0.00  0.00    +0.008 A 
ATOM     21  C   UNL     1      -2.327  11.701  -4.722  0.00  0.00    +0.045 A 
ATOM     22  S   UNL     1      -1.609  10.079  -4.526  0.00  0.00    -0.100 S 
ENDBRANCH   7  18
ENDBRANCH   1   7
BRANCH   4  23
ATOM     23  C   UNL     1      -0.070   5.347   0.031  0.00  0.00    +0.117 C 
BRANCH  23  24
ATOM     24  C   UNL     1      -0.050   3.840   0.023  0.00  0.00    -0.026 A 
ATOM     25  C   UNL     1       1.156   3.165   0.008  0.00  0.00    +0.005 A 
ATOM     26  C   UNL     1       1.175   1.783   0.000  0.00  0.00    +0.000 A 
ATOM     27  C   UNL     1      -0.013   1.076   0.008  0.00  0.00    +0.000 A 
ATOM     28  C   UNL     1      -1.219   1.751   0.017  0.00  0.00    +0.000 A 
ATOM     29  C   UNL     1      -1.238   3.133   0.030  0.00  0.00    +0.005 A 
ENDBRANCH  23  24
BRANCH  23  30
ATOM     30  C   UNL     1      -0.311   5.838   1.435  0.00  0.00    -0.026 A 
ATOM     31  C   UNL     1      -1.593   5.858   1.951  0.00  0.00    +0.005 A 
ATOM     32  C   UNL     1      -1.813   6.304   3.241  0.00  0.00    +0.000 A 
ATOM     33  C   UNL     1      -0.751   6.740   4.011  0.00  0.00    +0.000 A 
ATOM     34  C   UNL     1       0.530   6.726   3.494  0.00  0.00    +0.000 A 
ATOM     35  C   UNL     1       0.751   6.275   2.206  0.00  0.00    +0.005 A 
ENDBRANCH  23  30
ENDBRANCH   4  23
TORSDOF 6
