REMARK  Name = ZINC18527466
REMARK  11 active torsions:
REMARK  status: ('A' for Active; 'I' for Inactive)
REMARK    1  A    between atoms: C_1  and  C_2
REMARK    2  A    between atoms: C_2  and  O_3
REMARK    3  A    between atoms: O_3  and  C_4
REMARK    4  A    between atoms: C_7  and  C_10
REMARK    5  A    between atoms: C_13  and  S_16
REMARK    6  A    between atoms: N_14  and  N_15
REMARK    7  A    between atoms: S_16  and  C_17
REMARK    8  A    between atoms: C_17  and  C_19
REMARK    9  A    between atoms: C_17  and  C_20
REMARK   10  A    between atoms: C_32  and  C_33
REMARK   11  A    between atoms: C_32  and  C_34
REMARK                            x       y       z     vdW  Elec       q    Type
REMARK                         _______ _______ _______ _____ _____    ______ ____
ROOT
ATOM      1  S   UNL     1       0.301  -0.715  -2.049  0.00  0.00    -0.072 S 
ENDROOT
BRANCH   1   5
ATOM      2  C   UNL     1      -0.501  -1.853   1.603  0.00  0.00    +0.182 A 
ATOM      3  N   UNL     1      -0.481  -2.988   0.944  0.00  0.00    -0.127 NA
ATOM      4  N   UNL     1      -0.220  -2.772  -0.295  0.00  0.00    -0.121 NA
ATOM      5  C   UNL     1      -0.062  -1.485  -0.506  0.00  0.00    +0.209 A 
ATOM      6  N   UNL     1      -0.230  -0.855   0.695  0.00  0.00    -0.224 N 
BRANCH   2  10
ATOM      7  C   UNL     1      -1.260  -1.353   5.753  0.00  0.00    +0.121 A 
ATOM      8  C   UNL     1      -1.571  -2.555   5.132  0.00  0.00    +0.046 A 
ATOM      9  C   UNL     1      -1.327  -2.721   3.786  0.00  0.00    +0.015 A 
ATOM     10  C   UNL     1      -0.765  -1.679   3.046  0.00  0.00    +0.021 A 
ATOM     11  C   UNL     1      -0.447  -0.474   3.676  0.00  0.00    +0.015 A 
ATOM     12  C   UNL     1      -0.701  -0.313   5.021  0.00  0.00    +0.046 A 
BRANCH   7  13
ATOM     13  O   UNL     1      -1.503  -1.192   7.080  0.00  0.00    -0.492 OA
BRANCH  13  15
ATOM     14  C   UNL     1      -1.502   0.061   9.146  0.00  0.00    +0.048 C 
ATOM     15  C   UNL     1      -1.159   0.070   7.655  0.00  0.00    +0.225 C 
ENDBRANCH  13  15
ENDBRANCH   7  13
ENDBRANCH   2  10
BRANCH   6  16
ATOM     16  N   UNL     1      -0.151   0.486   0.941  0.00  0.00    -0.295 N 
ATOM     17  H   UNL     1       0.791   0.754   1.185  0.00  0.00    +0.163 HD
ATOM     18  H   UNL     1      -0.486   1.019   0.152  0.00  0.00    +0.163 HD
ENDBRANCH   6  16
ENDBRANCH   1   5
BRANCH   1  19
ATOM     19  C   UNL     1       0.366  -2.173  -3.120  0.00  0.00    +0.137 C 
ATOM     20  C   UNL     1      -1.018  -2.820  -3.185  0.00  0.00    +0.029 C 
BRANCH  19  21
ATOM     21  C   UNL     1       0.793  -1.760  -4.505  0.00  0.00    +0.234 C 
ATOM     22  O   UNL     1       0.911  -0.584  -4.777  0.00  0.00    -0.274 OA
ATOM     23  N   UNL     1       1.044  -2.697  -5.440  0.00  0.00    -0.255 N 
ATOM     24  C   UNL     1       1.230  -2.345  -6.786  0.00  0.00    +0.059 A 
ATOM     25  C   UNL     1       0.611  -1.232  -7.326  0.00  0.00    +0.025 A 
ATOM     26  C   UNL     1       0.810  -0.913  -8.657  0.00  0.00    +0.002 A 
ATOM     27  C   UNL     1       1.625  -1.704  -9.447  0.00  0.00    +0.002 A 
ATOM     28  C   UNL     1       2.258  -2.819  -8.910  0.00  0.00    +0.025 A 
ATOM     29  C   UNL     1       2.060  -3.145  -7.577  0.00  0.00    +0.055 A 
ATOM     30  N   UNL     1       2.679  -4.266  -7.016  0.00  0.00    -0.282 N 
ATOM     31  C   UNL     1       2.282  -4.746  -5.822  0.00  0.00    +0.241 C 
ATOM     32  O   UNL     1       2.862  -5.693  -5.334  0.00  0.00    -0.273 OA
ATOM     33  C   UNL     1       1.125  -4.121  -5.085  0.00  0.00    +0.113 C 
ATOM     34  C   UNL     1       1.344  -4.261  -3.577  0.00  0.00    +0.042 C 
ATOM     35  C   UNL     1      -0.174  -4.823  -5.482  0.00  0.00    +0.042 C 
ATOM     36  H   UNL     1       3.403  -4.703  -7.491  0.00  0.00    +0.155 HD
ENDBRANCH  19  21
ENDBRANCH   1  19
TORSDOF 7
