REMARK  Name = ZINC16754999
REMARK  7 active torsions:
REMARK  status: ('A' for Active; 'I' for Inactive)
REMARK    1  A    between atoms: C_2  and  C_3
REMARK    2  A    between atoms: C_3  and  N_4
REMARK    3  A    between atoms: C_8  and  C_9
REMARK    4  A    between atoms: C_12  and  O_16
REMARK    5  A    between atoms: C_14  and  O_15
REMARK    6  A    between atoms: N_19  and  S_20
REMARK    7  A    between atoms: S_20  and  C_23
REMARK                            x       y       z     vdW  Elec       q    Type
REMARK                         _______ _______ _______ _____ _____    ______ ____
ROOT
ATOM      1  N   UNL     1       1.045  -1.521   1.238  0.00  0.00    -0.241 N 
ATOM      2  C   UNL     1       1.650  -1.177   2.362  0.00  0.00    +0.259 C 
ATOM      3  O   UNL     1       2.106  -0.060   2.522  0.00  0.00    -0.269 OA
ATOM      4  C   UNL     1       1.748  -2.206   3.412  0.00  0.00    +0.078 C 
ATOM      5  C   UNL     1       2.309  -2.126   4.646  0.00  0.00    +0.032 C 
ATOM      6  S   UNL     1       0.930  -3.587   2.626  0.00  0.00    -0.047 S 
ATOM      7  C   UNL     1       0.529  -2.792   1.078  0.00  0.00    +0.189 C 
ATOM      8  N   UNL     1      -0.096  -3.291   0.047  0.00  0.00    -0.105 NA
ENDROOT
BRANCH   5   9
ATOM      9  C   UNL     1       2.135  -3.224   5.603  0.00  0.00    +0.018 A 
ATOM     10  C   UNL     1       1.115  -4.165   5.417  0.00  0.00    +0.015 A 
ATOM     11  C   UNL     1       0.956  -5.193   6.317  0.00  0.00    +0.046 A 
ATOM     12  C   UNL     1       1.806  -5.302   7.413  0.00  0.00    +0.120 A 
ATOM     13  C   UNL     1       2.821  -4.376   7.608  0.00  0.00    +0.091 A 
ATOM     14  C   UNL     1       2.996  -3.340   6.708  0.00  0.00    +0.127 A 
BRANCH  14  15
ATOM     15  O   UNL     1       3.992  -2.437   6.894  0.00  0.00    -0.506 OA
ATOM     16  H   UNL     1       3.734  -1.672   7.427  0.00  0.00    +0.292 HD
ENDBRANCH  14  15
BRANCH  12  17
ATOM     17  O   UNL     1       1.642  -6.320   8.297  0.00  0.00    -0.507 OA
ATOM     18  H   UNL     1       2.144  -7.117   8.077  0.00  0.00    +0.292 HD
ENDBRANCH  12  17
ENDBRANCH   5   9
BRANCH   8  19
ATOM     19  S   UNL     1      -0.630  -4.858   0.082  0.00  0.00    +0.101 S 
ATOM     20  O   UNL     1       0.528  -5.681   0.126  0.00  0.00    -0.146 OA
ATOM     21  O   UNL     1      -1.646  -4.919   1.074  0.00  0.00    -0.146 OA
BRANCH  19  22
ATOM     22  C   UNL     1      -1.415  -5.175  -1.463  0.00  0.00    +0.113 A 
ATOM     23  C   UNL     1      -2.767  -4.927  -1.614  0.00  0.00    +0.032 A 
ATOM     24  C   UNL     1      -3.384  -5.175  -2.826  0.00  0.00    +0.040 A 
ATOM     25  C   UNL     1      -2.648  -5.671  -3.888  0.00  0.00    +0.124 A 
ATOM     26  C   UNL     1      -1.295  -5.919  -3.736  0.00  0.00    +0.040 A 
ATOM     27  C   UNL     1      -0.679  -5.665  -2.525  0.00  0.00    +0.032 A 
ATOM     28  F   UNL     1      -3.251  -5.914  -5.073  0.00  0.00    -0.205 F 
ENDBRANCH  19  22
ENDBRANCH   8  19
BRANCH   1  29
ATOM     29  C   UNL     1       0.914  -0.544   0.154  0.00  0.00    +0.142 C 
BRANCH  29  31
ATOM     30  C   UNL     1      -0.347   1.535   0.377  0.00  0.00    +0.005 C 
ATOM     31  C   UNL     1      -0.370   0.226   0.324  0.00  0.00    -0.015 C 
ENDBRANCH  29  31
ENDBRANCH   1  29
TORSDOF 7
