REMARK  Name = ZINC21789194
REMARK  2 active torsions:
REMARK  status: ('A' for Active; 'I' for Inactive)
REMARK    1  A    between atoms: C_9  and  C_12
REMARK    2  A    between atoms: N_14  and  C_15
REMARK                            x       y       z     vdW  Elec       q    Type
REMARK                         _______ _______ _______ _____ _____    ______ ____
ROOT
ATOM      1  C   UNL     1       2.327  -4.170   0.059  0.00  0.00    +0.260 C 
ATOM      2  O   UNL     1       1.375  -4.593  -0.561  0.00  0.00    -0.271 OA
ATOM      3  N   UNL     1       3.299  -5.013   0.461  0.00  0.00    -0.281 N 
ATOM      4  H   UNL     1       4.197  -4.619   0.958  0.00  0.00    +0.155 HD
ENDROOT
BRANCH   1  13
ATOM      5  C   UNL     1       1.192   2.096  -0.048  0.00  0.00    +0.002 A 
ATOM      6  C   UNL     1       0.006   1.387  -0.035  0.00  0.00    +0.004 A 
ATOM      7  C   UNL     1       0.020   0.004  -0.032  0.00  0.00    +0.047 A 
ATOM      8  C   UNL     1       1.227  -0.678  -0.043  0.00  0.00    +0.142 A 
ATOM      9  C   UNL     1       2.420   0.038  -0.053  0.00  0.00    +0.070 A 
ATOM     10  C   UNL     1       2.401   1.424  -0.057  0.00  0.00    +0.026 A 
ATOM     11  N   UNL     1       3.645  -0.648  -0.059  0.00  0.00    -0.337 N 
ATOM     12  C   UNL     1       3.621  -2.089  -0.363  0.00  0.00    +0.155 C 
ATOM     13  C   UNL     1       2.424  -2.700   0.380  0.00  0.00    +0.276 C 
ATOM     14  O   UNL     1       1.231  -2.038  -0.045  0.00  0.00    -0.476 OA
ATOM     15  H   UNL     1       4.601  -0.147   0.154  0.00  0.00    +0.146 HD
ENDBRANCH   1  13
BRANCH   3  16
ATOM     16  C   UNL     1       3.164  -6.390   0.246  0.00  0.00    +0.052 A 
ATOM     17  C   UNL     1       2.528  -6.856  -0.897  0.00  0.00    +0.026 A 
ATOM     18  C   UNL     1       2.397  -8.215  -1.107  0.00  0.00    +0.022 A 
ATOM     19  C   UNL     1       2.899  -9.112  -0.181  0.00  0.00    +0.042 A 
ATOM     20  C   UNL     1       3.534  -8.651   0.959  0.00  0.00    +0.041 A 
ATOM     21  C   UNL     1       3.673  -7.292   1.172  0.00  0.00    +0.064 A 
ATOM     22 CL   UNL     1       4.475  -6.714   2.599  0.00  0.00    -0.082 Cl
ATOM     23 CL   UNL     1       2.732 -10.819  -0.449  0.00  0.00    -0.083 Cl
ENDBRANCH   3  16
TORSDOF 2
