REMARK  Name = ZINC38671717
REMARK  8 active torsions:
REMARK  status: ('A' for Active; 'I' for Inactive)
REMARK    1  A    between atoms: C_1  and  C_2
REMARK    2  A    between atoms: C_4  and  S_10
REMARK    3  A    between atoms: S_10  and  N_13
REMARK    4  A    between atoms: N_13  and  C_14
REMARK    5  A    between atoms: C_14  and  C_15
REMARK    6  A    between atoms: C_15  and  C_17
REMARK    7  A    between atoms: C_15  and  N_27
REMARK    8  A    between atoms: N_25  and  C_26
REMARK                            x       y       z     vdW  Elec       q    Type
REMARK                         _______ _______ _______ _____ _____    ______ ____
ROOT
ATOM      1  C   UNL     1       3.001  -5.653  -2.292  0.00  0.00    -0.022 C 
ENDROOT
BRANCH   1   2
ATOM      2  C   UNL     1       3.342  -6.790  -1.365  0.00  0.00    -0.059 A 
ATOM      3  C   UNL     1       4.105  -6.559  -0.235  0.00  0.00    +0.004 A 
ATOM      4  C   UNL     1       4.420  -7.597   0.615  0.00  0.00    +0.023 A 
ATOM      5  C   UNL     1       3.970  -8.891   0.342  0.00  0.00    +0.033 A 
ATOM      6  C   UNL     1       3.206  -9.113  -0.792  0.00  0.00    -0.025 A 
ATOM      7  C   UNL     1       2.889  -8.067  -1.639  0.00  0.00    +0.007 A 
ATOM      8  C   UNL     1       2.851 -10.581  -0.854  0.00  0.00    +0.056 C 
ATOM      9  C   UNL     1       3.510 -11.190   0.395  0.00  0.00    +0.109 C 
ATOM     10  N   UNL     1       4.173 -10.069   1.064  0.00  0.00    -0.332 N 
ATOM     11  C   UNL     1       4.939 -10.168   2.309  0.00  0.00    +0.129 C 
ENDBRANCH   1   2
BRANCH   1  12
ATOM     12  N   UNL     1       4.170  -4.776  -2.443  0.00  0.00    +0.385 N 
ATOM     13  C   UNL     1       3.853  -3.699  -3.388  0.00  0.00    -0.078 C 
ATOM     14  C   UNL     1       5.039  -2.737  -3.487  0.00  0.00    -0.019 C 
ATOM     15  C   UNL     1       6.271  -3.502  -3.977  0.00  0.00    -0.004 C 
ATOM     16  C   UNL     1       6.548  -4.669  -3.024  0.00  0.00    -0.019 C 
ATOM     17  C   UNL     1       5.306  -5.559  -2.942  0.00  0.00    -0.078 C 
ATOM     18  H   UNL     1       4.406  -4.376  -1.547  0.00  0.00    -0.081 HD
ENDBRANCH   1  12
BRANCH   1  19
ATOM     19  C   UNL     1       1.834  -4.852  -1.709  0.00  0.00    +0.095 C 
BRANCH  19  20
ATOM     20  N   UNL     1       0.641  -5.700  -1.652  0.00  0.00    -0.191 NA
ATOM     21  H   UNL     1       0.610  -6.529  -2.155  0.00  0.00    +0.148 HD
BRANCH  20  22
ATOM     22  S   UNL     1      -0.656  -5.243  -0.728  0.00  0.00    +0.060 S 
ATOM     23  O   UNL     1      -0.141  -4.891   0.549  0.00  0.00    -0.153 OA
ATOM     24  O   UNL     1      -1.649  -6.244  -0.900  0.00  0.00    -0.153 OA
BRANCH  22  28
ATOM     25  C   UNL     1      -4.463  -2.594  -3.138  0.00  0.00    +0.045 C 
ATOM     26  C   UNL     1      -3.080  -2.599  -2.539  0.00  0.00    -0.030 A 
ATOM     27  C   UNL     1      -2.571  -3.759  -1.985  0.00  0.00    +0.034 A 
ATOM     28  C   UNL     1      -1.303  -3.764  -1.435  0.00  0.00    +0.124 A 
ATOM     29  C   UNL     1      -0.542  -2.608  -1.439  0.00  0.00    +0.069 A 
ATOM     30  C   UNL     1      -1.051  -1.448  -1.993  0.00  0.00    +0.042 A 
ATOM     31  C   UNL     1      -2.318  -1.444  -2.548  0.00  0.00    +0.045 A 
ATOM     32 CL   UNL     1      -2.955   0.010  -3.249  0.00  0.00    -0.083 Cl
ATOM     33 CL   UNL     1       1.050  -2.615  -0.748  0.00  0.00    -0.081 Cl
ENDBRANCH  22  28
ENDBRANCH  20  22
ENDBRANCH  19  20
ENDBRANCH   1  19
TORSDOF 6
