REMARK  Name = ZINC10575451
REMARK  5 active torsions:
REMARK  status: ('A' for Active; 'I' for Inactive)
REMARK    1  A    between atoms: C_11  and  C_13
REMARK    2  A    between atoms: C_13  and  O_14
REMARK    3  A    between atoms: O_14  and  C_15
REMARK    4  A    between atoms: C_15  and  C_17
REMARK    5  A    between atoms: C_17  and  O_23
REMARK                            x       y       z     vdW  Elec       q    Type
REMARK                         _______ _______ _______ _____ _____    ______ ____
ROOT
ATOM      1  C   UNL     1       1.639  -6.167  -5.751  0.00  0.00    +0.000 A 
ATOM      2  C   UNL     1       1.357  -5.751  -4.463  0.00  0.00    +0.002 A 
ATOM      3  C   UNL     1       1.737  -4.491  -4.047  0.00  0.00    +0.024 A 
ATOM      4  C   UNL     1       2.408  -3.644  -4.920  0.00  0.00    +0.040 A 
ATOM      5  C   UNL     1       2.689  -4.060  -6.213  0.00  0.00    -0.026 A 
ATOM      6  C   UNL     1       2.303  -5.325  -6.622  0.00  0.00    +0.005 A 
ATOM      7  C   UNL     1       3.414  -3.169  -7.187  0.00  0.00    +0.038 C 
ATOM      8  C   UNL     1       3.303  -1.706  -6.759  0.00  0.00    +0.024 C 
ATOM      9  C   UNL     1       3.728  -1.586  -5.289  0.00  0.00    +0.114 C 
ATOM     10  N   UNL     1       2.779  -2.365  -4.482  0.00  0.00    -0.268 N 
ATOM     11  C   UNL     1       2.277  -1.860  -3.338  0.00  0.00    +0.258 C 
ATOM     12  O   UNL     1       1.546  -2.537  -2.646  0.00  0.00    -0.272 OA
ENDROOT
BRANCH  11  13
ATOM     13  C   UNL     1       2.624  -0.455  -2.918  0.00  0.00    +0.328 C 
BRANCH  13  14
ATOM     14  O   UNL     1       1.874  -0.108  -1.724  0.00  0.00    -0.453 OA
BRANCH  14  15
ATOM     15  C   UNL     1       2.070   1.120  -1.217  0.00  0.00    +0.340 C 
ATOM     16  O   UNL     1       2.843   1.878  -1.753  0.00  0.00    -0.248 OA
BRANCH  15  17
ATOM     17  C   UNL     1       1.326   1.551   0.021  0.00  0.00    +0.162 C 
ATOM     18  C   UNL     1       2.084   1.077   1.262  0.00  0.00    +0.046 C 
ATOM     19  C   UNL     1       1.329   1.515   2.519  0.00  0.00    +0.003 C 
ATOM     20  C   UNL     1       1.218   3.041   2.541  0.00  0.00    +0.000 C 
ATOM     21  C   UNL     1       0.460   3.515   1.299  0.00  0.00    +0.003 C 
ATOM     22  C   UNL     1       1.215   3.077   0.043  0.00  0.00    +0.046 C 
BRANCH  17  23
ATOM     23  O   UNL     1       0.017   0.978   0.013  0.00  0.00    -0.377 OA
ATOM     24  H   UNL     1       0.011   0.011  -0.000  0.00  0.00    +0.211 HD
ENDBRANCH  17  23
ENDBRANCH  15  17
ENDBRANCH  14  15
ENDBRANCH  13  14
ENDBRANCH  11  13
TORSDOF 5
