REMARK  Name = ZINC59794294
REMARK  10 active torsions:
REMARK  status: ('A' for Active; 'I' for Inactive)
REMARK    1  A    between atoms: C_1  and  O_2
REMARK    2  A    between atoms: O_2  and  C_3
REMARK    3  A    between atoms: C_3  and  C_5
REMARK    4  A    between atoms: C_9  and  N_10
REMARK    5  A    between atoms: C_11  and  C_13
REMARK    6  A    between atoms: C_13  and  C_14
REMARK    7  A    between atoms: C_14  and  S_15
REMARK    8  A    between atoms: S_15  and  C_16
REMARK    9  A    between atoms: C_19  and  C_22
REMARK   10  A    between atoms: N_20  and  N_21
REMARK                            x       y       z     vdW  Elec       q    Type
REMARK                         _______ _______ _______ _____ _____    ______ ____
ROOT
ATOM      1  C   UNL     1      -1.320  -2.626  -4.933  0.00  0.00    +0.107 C 
ENDROOT
BRANCH   1   3
ATOM      2  N   UNL     1      -1.283  -2.317  -2.479  0.00  0.00    -0.279 N 
ATOM      3  C   UNL     1      -1.326  -3.165  -3.525  0.00  0.00    +0.218 C 
ATOM      4  O   UNL     1      -1.370  -4.362  -3.334  0.00  0.00    -0.275 OA
ATOM      5  H   UNL     1      -1.248  -1.359  -2.632  0.00  0.00    +0.155 HD
BRANCH   2  10
ATOM      6  C   UNL     1      -1.248  -2.096   0.003  0.00  0.00    +0.091 A 
ATOM      7  C   UNL     1      -1.271  -2.859   1.239  0.00  0.00    -0.021 A 
ATOM      8  C   UNL     1      -1.323  -4.197   1.062  0.00  0.00    -0.004 A 
ATOM      9  S   UNL     1      -1.342  -4.417  -0.693  0.00  0.00    -0.077 S 
ATOM     10  C   UNL     1      -1.288  -2.812  -1.185  0.00  0.00    +0.086 A 
ATOM     11  C   UNL     1      -1.357  -5.245   2.130  0.00  0.00    +0.043 C 
ATOM     12  C   UNL     1      -0.943  -4.594   3.458  0.00  0.00    +0.005 C 
ATOM     13  C   UNL     1      -1.728  -3.292   3.638  0.00  0.00    +0.005 C 
ATOM     14  C   UNL     1      -1.241  -2.246   2.631  0.00  0.00    +0.037 C 
BRANCH   6  15
ATOM     15  C   UNL     1      -1.191  -0.633   0.010  0.00  0.00    +0.342 C 
ATOM     16  O   UNL     1      -2.220   0.016   0.023  0.00  0.00    -0.245 OA
BRANCH  15  18
ATOM     17  C   UNL     1      -0.017   1.425   0.010  0.00  0.00    +0.280 C 
ATOM     18  O   UNL     1       0.002  -0.004   0.002  0.00  0.00    -0.464 OA
ENDBRANCH  15  18
ENDBRANCH   6  15
ENDBRANCH   2  10
ENDBRANCH   1   3
BRANCH   1  19
ATOM     19  C   UNL     1      -1.375  -3.790  -5.925  0.00  0.00    +0.086 C 
BRANCH  19  20
ATOM     20  S   UNL     1      -1.368  -3.142  -7.619  0.00  0.00    -0.084 S 
BRANCH  20  21
ATOM     21  C   UNL     1      -1.434  -4.585  -8.628  0.00  0.00    +0.209 A 
ATOM     22  N   UNL     1      -1.483  -5.829  -8.206  0.00  0.00    -0.121 NA
ATOM     23  N   UNL     1      -1.522  -6.633  -9.208  0.00  0.00    -0.127 NA
ATOM     24  C   UNL     1      -1.501  -5.952 -10.330  0.00  0.00    +0.182 A 
ATOM     25  N   UNL     1      -1.450  -4.619  -9.993  0.00  0.00    -0.224 N 
BRANCH  24  26
ATOM     26  C   UNL     1      -1.532  -6.511 -11.698  0.00  0.00    +0.022 A 
ATOM     27  C   UNL     1      -1.187  -5.713 -12.790  0.00  0.00    +0.012 A 
ATOM     28  C   UNL     1      -1.218  -6.240 -14.065  0.00  0.00    +0.002 A 
ATOM     29  C   UNL     1      -1.591  -7.558 -14.263  0.00  0.00    +0.020 A 
ATOM     30  C   UNL     1      -1.934  -8.356 -13.185  0.00  0.00    +0.042 A 
ATOM     31  C   UNL     1      -1.901  -7.841 -11.903  0.00  0.00    +0.031 A 
ATOM     32 CL   UNL     1      -2.401 -10.008 -13.443  0.00  0.00    -0.084 Cl
ENDBRANCH  24  26
BRANCH  25  33
ATOM     33  N   UNL     1      -1.418  -3.552 -10.845  0.00  0.00    -0.295 N 
ATOM     34  H   UNL     1      -0.468  -3.306 -11.081  0.00  0.00    +0.163 HD
ATOM     35  H   UNL     1      -1.960  -3.737 -11.676  0.00  0.00    +0.163 HD
ENDBRANCH  25  33
ENDBRANCH  20  21
ENDBRANCH  19  20
ENDBRANCH   1  19
TORSDOF 9
