REMARK  Name = ZINC00887483
REMARK  13 active torsions:
REMARK  status: ('A' for Active; 'I' for Inactive)
REMARK    1  A    between atoms: C_1  and  C_2
REMARK    2  A    between atoms: C_5  and  C_7
REMARK    3  A    between atoms: N_10  and  C_12
REMARK    4  A    between atoms: C_12  and  C_13
REMARK    5  A    between atoms: N_15  and  C_16
REMARK    6  A    between atoms: N_15  and  C_22
REMARK    7  A    between atoms: C_16  and  C_17
REMARK    8  A    between atoms: C_22  and  C_24
REMARK    9  A    between atoms: C_22  and  C_33
REMARK   10  A    between atoms: C_27  and  N_30
REMARK   11  A    between atoms: N_30  and  C_31
REMARK   12  A    between atoms: N_30  and  C_32
REMARK   13  A    between atoms: N_35  and  C_36
REMARK                            x       y       z     vdW  Elec       q    Type
REMARK                         _______ _______ _______ _____ _____    ______ ____
ROOT
ATOM      1  C   UNL     1       4.783  -3.183  -1.838  0.00  0.00    +0.240 C 
ATOM      2  O   UNL     1       4.065  -4.157  -1.748  0.00  0.00    -0.273 OA
ATOM      3  N   UNL     1       5.708  -3.116  -2.815  0.00  0.00    -0.279 N 
ENDROOT
BRANCH   1   4
ATOM      4  C   UNL     1       4.640  -2.049  -0.856  0.00  0.00    +0.264 C 
BRANCH   4   8
ATOM      5  C   UNL     1       1.679  -2.503   1.012  0.00  0.00    +0.239 A 
ATOM      6  N   UNL     1       2.591  -3.084   1.806  0.00  0.00    -0.105 NA
ATOM      7  N   UNL     1       3.734  -2.979   1.217  0.00  0.00    -0.045 NA
ATOM      8  N   UNL     1       3.574  -2.361   0.099  0.00  0.00    -0.154 N 
ATOM      9  N   UNL     1       2.328  -2.066  -0.051  0.00  0.00    -0.127 NA
BRANCH   5  14
ATOM     10  C   UNL     1      -3.168  -1.336   0.428  0.00  0.00    +0.086 C 
ATOM     11  C   UNL     1      -1.892  -1.873   1.023  0.00  0.00    +0.103 A 
ATOM     12  C   UNL     1      -1.784  -2.507   2.207  0.00  0.00    +0.045 A 
ATOM     13  C   UNL     1      -0.424  -2.837   2.375  0.00  0.00    +0.053 A 
ATOM     14  C   UNL     1       0.229  -2.381   1.273  0.00  0.00    +0.175 A 
ATOM     15  O   UNL     1      -0.675  -1.803   0.459  0.00  0.00    -0.457 OA
ENDBRANCH   5  14
ENDBRANCH   4   8
ENDBRANCH   1   4
BRANCH   3  16
ATOM     16  C   UNL     1       6.575  -1.940  -2.924  0.00  0.00    +0.151 C 
BRANCH  16  17
ATOM     17  C   UNL     1       7.729  -2.076  -1.964  0.00  0.00    +0.007 A 
ATOM     18  C   UNL     1       9.039  -2.300  -2.231  0.00  0.00    +0.013 A 
ATOM     19  C   UNL     1       9.932  -2.389  -1.180  0.00  0.00    +0.008 A 
ATOM     20  C   UNL     1       9.471  -2.251   0.087  0.00  0.00    +0.045 A 
ATOM     21  S   UNL     1       7.727  -1.978  -0.182  0.00  0.00    -0.100 S 
ENDBRANCH  16  17
ENDBRANCH   3  16
BRANCH   3  22
ATOM     22  C   UNL     1       5.848  -4.219  -3.770  0.00  0.00    +0.193 C 
BRANCH  22  23
ATOM     23  C   UNL     1       6.382  -5.435  -3.058  0.00  0.00    -0.018 A 
ATOM     24  C   UNL     1       7.450  -5.311  -2.188  0.00  0.00    +0.008 A 
ATOM     25  C   UNL     1       7.942  -6.423  -1.534  0.00  0.00    +0.023 A 
ATOM     26  C   UNL     1       7.363  -7.667  -1.750  0.00  0.00    +0.029 A 
ATOM     27  C   UNL     1       6.290  -7.788  -2.624  0.00  0.00    +0.023 A 
ATOM     28  C   UNL     1       5.800  -6.671  -3.271  0.00  0.00    +0.008 A 
BRANCH  26  29
ATOM     29  N   UNL     1       7.859  -8.794  -1.090  0.00  0.00    -0.336 N 
ATOM     30  C   UNL     1       8.908  -8.649  -0.079  0.00  0.00    +0.129 C 
ATOM     31  C   UNL     1       7.329 -10.122  -1.410  0.00  0.00    +0.129 C 
ENDBRANCH  26  29
ENDBRANCH  22  23
BRANCH  22  32
ATOM     32  C   UNL     1       6.802  -3.818  -4.865  0.00  0.00    +0.238 C 
ATOM     33  O   UNL     1       7.873  -3.322  -4.584  0.00  0.00    -0.273 OA
ATOM     34  N   UNL     1       6.466  -4.011  -6.155  0.00  0.00    -0.311 N 
ATOM     35  H   UNL     1       5.610  -4.408  -6.380  0.00  0.00    +0.149 HD
BRANCH  34  36
ATOM     36  C   UNL     1       7.394  -3.621  -7.220  0.00  0.00    +0.073 C 
ATOM     37  C   UNL     1       7.204  -2.139  -7.545  0.00  0.00    +0.022 C 
ATOM     38  C   UNL     1       8.173  -1.732  -8.657  0.00  0.00    +0.002 C 
ATOM     39  C   UNL     1       7.895  -2.567  -9.908  0.00  0.00    +0.000 C 
ATOM     40  C   UNL     1       8.085  -4.050  -9.583  0.00  0.00    +0.002 C 
ATOM     41  C   UNL     1       7.116  -4.457  -8.471  0.00  0.00    +0.022 C 
ENDBRANCH  34  36
ENDBRANCH  22  32
ENDBRANCH   3  22
TORSDOF 10
