REMARK  Name = ZINC45148014
REMARK  7 active torsions:
REMARK  status: ('A' for Active; 'I' for Inactive)
REMARK    1  A    between atoms: C_1  and  C_2
REMARK    2  A    between atoms: C_5  and  C_7
REMARK    3  A    between atoms: C_7  and  C_9
REMARK    4  A    between atoms: C_7  and  N_10
REMARK    5  A    between atoms: N_10  and  S_11
REMARK    6  A    between atoms: S_11  and  C_14
REMARK    7  A    between atoms: C_15  and  N_21
REMARK                            x       y       z     vdW  Elec       q    Type
REMARK                         _______ _______ _______ _____ _____    ______ ____
ROOT
ATOM      1  S   UNL     1       3.597  -4.333   1.905  0.00  0.00    +0.064 S 
ATOM      2  O   UNL     1       4.700  -3.665   2.502  0.00  0.00    -0.153 OA
ATOM      3  O   UNL     1       2.689  -5.126   2.657  0.00  0.00    -0.153 OA
ENDROOT
BRANCH   1   4
ATOM      4  C   UNL     1       4.261  -5.380   0.652  0.00  0.00    +0.161 A 
ATOM      5  C   UNL     1       3.503  -6.429   0.150  0.00  0.00    +0.054 A 
ATOM      6  C   UNL     1       4.030  -7.252  -0.838  0.00  0.00    +0.025 A 
ATOM      7  C   UNL     1       5.305  -7.024  -1.318  0.00  0.00    +0.005 A 
ATOM      8  C   UNL     1       6.058  -5.979  -0.817  0.00  0.00    +0.040 A 
ATOM      9  C   UNL     1       5.535  -5.153   0.164  0.00  0.00    +0.151 A 
ATOM     10  F   UNL     1       6.271  -4.129   0.648  0.00  0.00    -0.203 F 
BRANCH   5  11
ATOM     11  N   UNL     1       2.215  -6.658   0.637  0.00  0.00    -0.356 N 
ATOM     12  H   UNL     1       1.792  -6.006   1.217  0.00  0.00    +0.142 HD
ATOM     13  H   UNL     1       1.742  -7.470   0.396  0.00  0.00    +0.142 HD
ENDBRANCH   5  11
ENDBRANCH   1   4
BRANCH   1  14
ATOM     14  N   UNL     1       2.694  -3.171   1.145  0.00  0.00    -0.180 NA
ATOM     15  H   UNL     1       2.965  -2.241   1.190  0.00  0.00    +0.149 HD
BRANCH  14  16
ATOM     16  C   UNL     1       1.488  -3.549   0.405  0.00  0.00    +0.139 C 
ATOM     17  C   UNL     1       1.833  -3.730  -1.074  0.00  0.00    +0.034 C 
BRANCH  16  22
ATOM     18  C   UNL     1      -0.628   1.019   0.721  0.00  0.00    +0.086 C 
ATOM     19  C   UNL     1      -0.470  -0.479   0.688  0.00  0.00    +0.102 A 
ATOM     20  C   UNL     1      -1.463  -1.378   0.811  0.00  0.00    +0.045 A 
ATOM     21  C   UNL     1      -0.870  -2.659   0.722  0.00  0.00    +0.046 A 
ATOM     22  C   UNL     1       0.450  -2.466   0.550  0.00  0.00    +0.123 A 
ATOM     23  O   UNL     1       0.686  -1.144   0.524  0.00  0.00    -0.463 OA
ENDBRANCH  16  22
ENDBRANCH  14  16
ENDBRANCH   1  14
TORSDOF 5
