REMARK  Name = ZINC12663981
REMARK  7 active torsions:
REMARK  status: ('A' for Active; 'I' for Inactive)
REMARK    1  A    between atoms: C_1  and  N_2
REMARK    2  A    between atoms: N_2  and  C_3
REMARK    3  A    between atoms: N_2  and  C_4
REMARK    4  A    between atoms: C_7  and  N_10
REMARK    5  A    between atoms: C_11  and  C_13
REMARK    6  A    between atoms: C_13  and  C_14
REMARK    7  A    between atoms: N_25  and  C_28
REMARK                            x       y       z     vdW  Elec       q    Type
REMARK                         _______ _______ _______ _____ _____    ______ ____
ROOT
ATOM      1  C   UNL     1      -1.225  -0.776  -0.011  0.00  0.00    +0.112 C 
ATOM      2  C   UNL     1      -1.006  -2.295  -0.071  0.00  0.00    +0.103 C 
ATOM      3  S   UNL     1       0.823  -2.387  -0.073  0.00  0.00    -0.085 S 
ATOM      4  C   UNL     1       1.200  -0.648  -0.003  0.00  0.00    +0.174 A 
ATOM      5  N   UNL     1       0.005   0.013   0.021  0.00  0.00    -0.283 N 
ATOM      6  C   UNL     1       0.045   1.384   0.076  0.00  0.00    +0.266 A 
ATOM      7  O   UNL     1      -0.992   2.025   0.095  0.00  0.00    -0.267 OA
ATOM      8  C   UNL     1       1.288   2.051   0.103  0.00  0.00    +0.103 A 
ATOM      9  C   UNL     1       1.677   3.407   0.159  0.00  0.00    +0.150 A 
ATOM     10  N   UNL     1       2.979   3.464   0.163  0.00  0.00    -0.172 NA
ATOM     11  N   UNL     1       3.506   2.167   0.112  0.00  0.00    -0.214 N 
ATOM     12  C   UNL     1       2.467   1.288   0.075  0.00  0.00    +0.171 A 
ATOM     13  N   UNL     1       2.367  -0.044   0.022  0.00  0.00    -0.203 NA
ENDROOT
BRANCH  11  14
ATOM     14  C   UNL     1       4.866   1.833   0.101  0.00  0.00    +0.068 A 
ATOM     15  C   UNL     1       5.306   0.687   0.752  0.00  0.00    +0.029 A 
ATOM     16  C   UNL     1       6.647   0.357   0.735  0.00  0.00    +0.022 A 
ATOM     17  C   UNL     1       7.554   1.173   0.081  0.00  0.00    +0.041 A 
ATOM     18  C   UNL     1       7.119   2.318  -0.564  0.00  0.00    +0.022 A 
ATOM     19  C   UNL     1       5.778   2.649  -0.555  0.00  0.00    +0.029 A 
ATOM     20 CL   UNL     1       9.239   0.758   0.067  0.00  0.00    -0.084 Cl
ENDBRANCH  11  14
BRANCH   1  21
ATOM     21  C   UNL     1      -2.042  -0.453   1.242  0.00  0.00    +0.122 C 
BRANCH  21  23
ATOM     22  N   UNL     1      -4.311  -0.919   2.110  0.00  0.00    -0.285 N 
ATOM     23  C   UNL     1      -3.384  -1.135   1.156  0.00  0.00    +0.219 C 
ATOM     24  O   UNL     1      -3.628  -1.878   0.230  0.00  0.00    -0.275 OA
ATOM     25  H   UNL     1      -4.142  -0.273   2.814  0.00  0.00    +0.155 HD
BRANCH  22  29
ATOM     26  C   UNL     1      -7.909  -3.028   2.036  0.00  0.00    +0.029 A 
ATOM     27  C   UNL     1      -7.317  -2.706   3.251  0.00  0.00    +0.025 A 
ATOM     28  C   UNL     1      -6.126  -2.008   3.275  0.00  0.00    +0.025 A 
ATOM     29  C   UNL     1      -5.520  -1.628   2.085  0.00  0.00    +0.033 A 
ATOM     30  C   UNL     1      -6.114  -1.945   0.871  0.00  0.00    +0.025 A 
ATOM     31  C   UNL     1      -7.301  -2.648   0.846  0.00  0.00    +0.025 A 
BRANCH  26  33
ATOM     32  C   UNL     1      -9.819  -4.028   3.263  0.00  0.00    +0.129 C 
ATOM     33  N   UNL     1      -9.115  -3.736   2.011  0.00  0.00    -0.336 N 
ATOM     34  C   UNL     1      -9.675  -4.184   0.734  0.00  0.00    +0.129 C 
ENDBRANCH  26  33
ENDBRANCH  22  29
ENDBRANCH  21  23
ENDBRANCH   1  21
TORSDOF 5
