REMARK  Name = ZINC39938703
REMARK  11 active torsions:
REMARK  status: ('A' for Active; 'I' for Inactive)
REMARK    1  A    between atoms: C_1  and  C_2
REMARK    2  A    between atoms: C_2  and  C_4
REMARK    3  A    between atoms: C_2  and  O_35
REMARK    4  A    between atoms: C_4  and  C_6
REMARK    5  A    between atoms: C_4  and  N_21
REMARK    6  A    between atoms: C_6  and  O_8
REMARK    7  A    between atoms: O_8  and  C_9
REMARK    8  A    between atoms: C_9  and  C_10
REMARK    9  A    between atoms: C_10  and  C_12
REMARK   10  A    between atoms: N_21  and  S_22
REMARK   11  A    between atoms: S_22  and  C_25
REMARK                            x       y       z     vdW  Elec       q    Type
REMARK                         _______ _______ _______ _____ _____    ______ ____
ROOT
ATOM      1  C   UNL     1       0.821  -0.449   1.147  0.00  0.00    +0.213 C 
ENDROOT
BRANCH   1   3
ATOM      2  C   UNL     1       0.093   1.592  -0.099  0.00  0.00    +0.040 C 
ATOM      3  C   UNL     1       0.033   0.064  -0.061  0.00  0.00    +0.141 C 
BRANCH   3   4
ATOM      4  O   UNL     1      -1.328  -0.357   0.044  0.00  0.00    -0.390 OA
ATOM      5  H   UNL     1      -1.442  -1.317   0.073  0.00  0.00    +0.210 HD
ENDBRANCH   3   4
ENDBRANCH   1   3
BRANCH   1   6
ATOM      6  C   UNL     1       0.878  -1.954   1.107  0.00  0.00    +0.329 C 
ATOM      7  O   UNL     1       1.946  -2.516   1.052  0.00  0.00    -0.249 OA
BRANCH   6   8
ATOM      8  O   UNL     1      -0.257  -2.670   1.133  0.00  0.00    -0.455 OA
BRANCH   8   9
ATOM      9  C   UNL     1      -0.127  -4.093   1.092  0.00  0.00    +0.311 C 
BRANCH   9  10
ATOM     10  C   UNL     1      -1.496  -4.723   1.129  0.00  0.00    +0.199 C 
ATOM     11  O   UNL     1      -2.486  -4.021   1.184  0.00  0.00    -0.289 OA
BRANCH  10  12
ATOM     12  C   UNL     1      -1.627  -6.127   1.099  0.00  0.00    +0.026 C 
ATOM     13  C   UNL     1      -2.801  -6.859   1.120  0.00  0.00    +0.006 A 
ATOM     14  C   UNL     1      -4.165  -6.487   1.175  0.00  0.00    +0.010 A 
ATOM     15  C   UNL     1      -5.129  -7.435   1.185  0.00  0.00    +0.001 A 
ATOM     16  C   UNL     1      -4.837  -8.807   1.141  0.00  0.00    +0.002 A 
ATOM     17  C   UNL     1      -3.568  -9.267   1.088  0.00  0.00    +0.026 A 
ATOM     18  C   UNL     1      -2.457  -8.301   1.073  0.00  0.00    +0.043 A 
ATOM     19  N   UNL     1      -1.166  -8.462   1.026  0.00  0.00    -0.380 N 
ATOM     20  C   UNL     1      -0.513  -7.149   1.031  0.00  0.00    +0.152 C 
ATOM     21  H   UNL     1      -0.708  -9.316   0.990  0.00  0.00    +0.160 HD
ENDBRANCH  10  12
ENDBRANCH   9  10
ENDBRANCH   8   9
ENDBRANCH   6   8
ENDBRANCH   1   6
BRANCH   1  22
ATOM     22  N   UNL     1       2.181   0.094   1.108  0.00  0.00    -0.174 NA
ATOM     23  H   UNL     1       2.732  -0.035   0.320  0.00  0.00    +0.149 HD
BRANCH  22  24
ATOM     24  S   UNL     1       2.778   0.925   2.409  0.00  0.00    +0.059 S 
ATOM     25  O   UNL     1       4.124   1.257   2.097  0.00  0.00    -0.153 OA
ATOM     26  O   UNL     1       1.809   1.909   2.742  0.00  0.00    -0.153 OA
BRANCH  24  27
ATOM     27  C   UNL     1       2.838  -0.200   3.764  0.00  0.00    +0.106 A 
ATOM     28  C   UNL     1       1.732  -0.325   4.602  0.00  0.00    +0.029 A 
ATOM     29  C   UNL     1       1.746  -1.185   5.657  0.00  0.00    +0.010 A 
ATOM     30  C   UNL     1       2.891  -1.960   5.908  0.00  0.00    -0.018 A 
ATOM     31  C   UNL     1       2.942  -2.858   6.987  0.00  0.00    +0.008 A 
ATOM     32  C   UNL     1       4.068  -3.593   7.198  0.00  0.00    +0.001 A 
ATOM     33  C   UNL     1       5.174  -3.469   6.360  0.00  0.00    +0.001 A 
ATOM     34  C   UNL     1       5.161  -2.609   5.305  0.00  0.00    +0.008 A 
ATOM     35  C   UNL     1       4.016  -1.833   5.055  0.00  0.00    -0.016 A 
ATOM     36  C   UNL     1       3.962  -0.939   3.972  0.00  0.00    +0.037 A 
ENDBRANCH  24  27
ENDBRANCH  22  24
ENDBRANCH   1  22
TORSDOF 10
