REMARK  Name = ZINC37536157
REMARK  15 active torsions:
REMARK  status: ('A' for Active; 'I' for Inactive)
REMARK    1  A    between atoms: C_1  and  C_2
REMARK    2  A    between atoms: C_5  and  O_34
REMARK    3  A    between atoms: C_9  and  C_33
REMARK    4  A    between atoms: C_11  and  O_29
REMARK    5  A    between atoms: C_13  and  C_25
REMARK    6  A    between atoms: C_15  and  C_19
REMARK    7  A    between atoms: C_15  and  C_20
REMARK    8  A    between atoms: C_20  and  C_21
REMARK    9  A    between atoms: C_21  and  C_22
REMARK   10  A    between atoms: C_25  and  C_26
REMARK   11  A    between atoms: C_25  and  C_27
REMARK   12  A    between atoms: C_25  and  O_28
REMARK   13  A    between atoms: O_29  and  C_30
REMARK   14  A    between atoms: C_30  and  C_32
REMARK   15  A    between atoms: O_34  and  C_35
REMARK                            x       y       z     vdW  Elec       q    Type
REMARK                         _______ _______ _______ _____ _____    ______ ____
ROOT
ATOM      1  C   UNL     1       1.890   2.006  -0.062  0.00  0.00    +0.048 C 
ATOM      2  C   UNL     1       1.389   0.585  -0.100  0.00  0.00    -0.001 A 
ATOM      3  C   UNL     1       1.367  -0.097  -1.288  0.00  0.00    +0.014 A 
ATOM      4  C   UNL     1       0.903  -1.418  -1.334  0.00  0.00    +0.108 A 
ATOM      5  C   UNL     1       0.462  -2.033  -0.155  0.00  0.00    +0.141 A 
ATOM      6  C   UNL     1       0.487  -1.334   1.044  0.00  0.00    +0.037 A 
ATOM      7  C   UNL     1       0.956  -0.031   1.077  0.00  0.00    +0.131 A 
ATOM      8  O   UNL     1       1.010   0.678   2.231  0.00  0.00    -0.485 OA
ATOM      9  C   UNL     1       0.235   0.220   3.342  0.00  0.00    +0.115 C 
ATOM     10  C   UNL     1       0.693   0.962   4.603  0.00  0.00    +0.093 C 
ATOM     11  C   UNL     1       2.195   0.745   4.796  0.00  0.00    +0.186 C 
ATOM     12  C   UNL     1       2.485  -0.748   4.954  0.00  0.00    +0.067 C 
ATOM     13  C   UNL     1       2.009  -1.499   3.708  0.00  0.00    -0.016 C 
ATOM     14  C   UNL     1       0.506  -1.279   3.530  0.00  0.00    +0.044 C 
ATOM     15  C   UNL     1      -0.002  -2.023   2.292  0.00  0.00    +0.050 C 
ATOM     16  C   UNL     1       2.751  -0.971   2.478  0.00  0.00    +0.012 C 
ATOM     17  C   UNL     1      -1.253   0.458   3.080  0.00  0.00    +0.056 C 
ATOM     18  C   UNL     1       1.000  -1.876  -2.726  0.00  0.00    +0.343 C 
ATOM     19  O   UNL     1       0.678  -2.980  -3.120  0.00  0.00    -0.245 OA
ATOM     20  O   UNL     1       1.494  -0.896  -3.502  0.00  0.00    -0.456 OA
ATOM     21  C   UNL     1       1.757   0.259  -2.700  0.00  0.00    +0.269 C 
ENDROOT
BRANCH  12  22
ATOM     22  C   UNL     1       3.991  -0.959   5.130  0.00  0.00    +0.067 C 
ATOM     23  C   UNL     1       4.749  -0.070   4.142  0.00  0.00    +0.041 C 
ATOM     24  C   UNL     1       4.393  -0.592   6.559  0.00  0.00    +0.041 C 
BRANCH  22  25
ATOM     25  O   UNL     1       4.312  -2.329   4.881  0.00  0.00    -0.389 OA
ATOM     26  H   UNL     1       4.001  -2.937   5.566  0.00  0.00    +0.210 HD
ENDBRANCH  22  25
ENDBRANCH  12  22
BRANCH   5  27
ATOM     27  O   UNL     1       0.009  -3.312  -0.185  0.00  0.00    -0.494 OA
ATOM     28  C   UNL     1       0.974  -4.346   0.023  0.00  0.00    +0.277 C 
ENDBRANCH   5  27
BRANCH  13  29
ATOM     29  C   UNL     1       2.290  -2.994   3.873  0.00  0.00    +0.019 C 
BRANCH  29  30
ATOM     30  C   UNL     1       1.706  -3.479   5.202  0.00  0.00    +0.126 C 
BRANCH  30  31
ATOM     31  C   UNL     1       1.933  -4.962   5.338  0.00  0.00    +0.356 C 
ATOM     32  O   UNL     1       2.509  -5.575   4.455  0.00  0.00    -0.246 OA
ATOM     33  O   UNL     1       1.542  -5.550   6.332  0.00  0.00    -0.246 OA
ENDBRANCH  30  31
ENDBRANCH  29  30
ENDBRANCH  13  29
BRANCH  11  34
ATOM     34  O   UNL     1       2.629   1.439   5.967  0.00  0.00    -0.461 OA
BRANCH  34  35
ATOM     35  C   UNL     1       3.039   2.708   5.807  0.00  0.00    +0.304 C 
ATOM     36  O   UNL     1       3.029   3.212   4.710  0.00  0.00    -0.251 OA
ATOM     37  C   UNL     1       3.511   3.503   6.998  0.00  0.00    +0.136 C 
ENDBRANCH  34  35
ENDBRANCH  11  34
TORSDOF 8
