REMARK  Name = ZINC00931358
REMARK  11 active torsions:
REMARK  status: ('A' for Active; 'I' for Inactive)
REMARK    1  A    between atoms: C_1  and  C_2
REMARK    2  A    between atoms: C_2  and  O_3
REMARK    3  A    between atoms: O_3  and  C_4
REMARK    4  A    between atoms: C_7  and  N_10
REMARK    5  A    between atoms: N_10  and  C_11
REMARK    6  A    between atoms: C_11  and  C_13
REMARK    7  A    between atoms: C_11  and  C_20
REMARK    8  A    between atoms: N_15  and  C_19
REMARK    9  A    between atoms: C_17  and  C_18
REMARK   10  A    between atoms: N_22  and  C_23
REMARK   11  A    between atoms: C_29  and  C_31
REMARK                            x       y       z     vdW  Elec       q    Type
REMARK                         _______ _______ _______ _____ _____    ______ ____
ROOT
ATOM      1  N   UNL     1      -2.496   8.415   0.462  0.00  0.00    -0.252 N 
ATOM      2  C   UNL     1      -1.975   7.421  -0.284  0.00  0.00    +0.265 C 
ATOM      3  O   UNL     1      -1.250   7.682  -1.222  0.00  0.00    -0.271 OA
ENDROOT
BRANCH   2   4
ATOM      4  C   UNL     1      -2.292   5.985   0.046  0.00  0.00    +0.296 C 
ATOM      5  C   UNL     1      -3.764   5.693  -0.275  0.00  0.00    +0.283 C 
ATOM      6  O   UNL     1      -4.027   4.321   0.037  0.00  0.00    -0.484 OA
ATOM      7  C   UNL     1      -3.117   3.409  -0.403  0.00  0.00    +0.162 A 
ATOM      8  C   UNL     1      -3.472   2.069  -0.466  0.00  0.00    +0.049 A 
ATOM      9  C   UNL     1      -2.557   1.130  -0.902  0.00  0.00    +0.004 A 
ATOM     10  C   UNL     1      -1.288   1.524  -1.286  0.00  0.00    +0.004 A 
ATOM     11  C   UNL     1      -0.930   2.858  -1.231  0.00  0.00    +0.049 A 
ATOM     12  C   UNL     1      -1.843   3.805  -0.790  0.00  0.00    +0.163 A 
ATOM     13  O   UNL     1      -1.478   5.116  -0.749  0.00  0.00    -0.472 OA
ENDBRANCH   2   4
BRANCH   1  17
ATOM     14  C   UNL     1      -4.735   7.516   3.863  0.00  0.00    +0.121 A 
ATOM     15  C   UNL     1      -3.376   7.238   3.834  0.00  0.00    +0.047 A 
ATOM     16  C   UNL     1      -2.634   7.535   2.708  0.00  0.00    +0.027 A 
ATOM     17  C   UNL     1      -3.248   8.113   1.605  0.00  0.00    +0.038 A 
ATOM     18  C   UNL     1      -4.607   8.396   1.636  0.00  0.00    +0.027 A 
ATOM     19  C   UNL     1      -5.349   8.093   2.761  0.00  0.00    +0.047 A 
BRANCH  14  20
ATOM     20  O   UNL     1      -5.465   7.223   4.972  0.00  0.00    -0.492 OA
BRANCH  20  22
ATOM     21  C   UNL     1      -7.508   7.138   6.259  0.00  0.00    +0.048 C 
ATOM     22  C   UNL     1      -6.859   7.536   4.932  0.00  0.00    +0.225 C 
ENDBRANCH  20  22
ENDBRANCH  14  20
ENDBRANCH   1  17
BRANCH   1  23
ATOM     23  C   UNL     1      -2.275   9.812   0.078  0.00  0.00    +0.200 C 
BRANCH  23  24
ATOM     24  C   UNL     1      -0.795  10.079  -0.018  0.00  0.00    +0.022 A 
ATOM     25  C   UNL     1      -0.087  10.239  -1.159  0.00  0.00    +0.114 A 
ATOM     26  N   UNL     1       1.200  10.459  -0.818  0.00  0.00    -0.274 N 
ATOM     27  N   UNL     1       1.286  10.433   0.580  0.00  0.00    -0.176 NA
ATOM     28  C   UNL     1       0.088  10.211   1.059  0.00  0.00    +0.065 A 
ATOM     29  C   UNL     1      -0.275  10.111   2.518  0.00  0.00    +0.068 C 
ATOM     30  C   UNL     1       2.311  10.685  -1.746  0.00  0.00    +0.172 C 
ENDBRANCH  23  24
BRANCH  23  31
ATOM     31  C   UNL     1      -2.920  10.073  -1.259  0.00  0.00    +0.239 C 
ATOM     32  O   UNL     1      -3.351   9.149  -1.915  0.00  0.00    -0.273 OA
ATOM     33  N   UNL     1      -3.019  11.334  -1.724  0.00  0.00    -0.311 N 
ATOM     34  H   UNL     1      -2.621  12.066  -1.228  0.00  0.00    +0.149 HD
BRANCH  33  35
ATOM     35  C   UNL     1      -3.726  11.598  -2.980  0.00  0.00    +0.073 C 
ATOM     36  C   UNL     1      -2.770  11.394  -4.157  0.00  0.00    +0.022 C 
ATOM     37  C   UNL     1      -3.509  11.670  -5.468  0.00  0.00    +0.002 C 
ATOM     38  C   UNL     1      -4.021  13.111  -5.471  0.00  0.00    +0.000 C 
ATOM     39  C   UNL     1      -4.978  13.315  -4.294  0.00  0.00    +0.002 C 
ATOM     40  C   UNL     1      -4.239  13.039  -2.983  0.00  0.00    +0.022 C 
ENDBRANCH  33  35
ENDBRANCH  23  31
ENDBRANCH   1  23
TORSDOF 8
