REMARK  Name = ZINC20905918
REMARK  8 active torsions:
REMARK  status: ('A' for Active; 'I' for Inactive)
REMARK    1  A    between atoms: C_1  and  C_2
REMARK    2  A    between atoms: C_2  and  O_3
REMARK    3  A    between atoms: O_3  and  C_4
REMARK    4  A    between atoms: C_13  and  C_23
REMARK    5  A    between atoms: C_17  and  C_22
REMARK    6  A    between atoms: C_23  and  N_24
REMARK    7  A    between atoms: N_24  and  C_25
REMARK    8  A    between atoms: C_25  and  C_26
REMARK                            x       y       z     vdW  Elec       q    Type
REMARK                         _______ _______ _______ _____ _____    ______ ____
ROOT
ATOM      1  C   UNL     1       1.385   0.270   0.838  0.00  0.00    +0.403 C 
ATOM      2  O   UNL     1       2.569   0.105   0.623  0.00  0.00    -0.226 OA
ATOM      3  N   UNL     1       0.774   1.396   0.420  0.00  0.00    -0.264 N 
ATOM      4  C   UNL     1       1.523   2.438  -0.299  0.00  0.00    +0.130 C 
ATOM      5  C   UNL     1       0.766   2.789  -1.584  0.00  0.00    +0.125 C 
ATOM      6  N   UNL     1      -0.621   3.139  -1.252  0.00  0.00    -0.312 N 
ATOM      7  C   UNL     1      -1.331   1.998  -0.659  0.00  0.00    +0.125 C 
ATOM      8  C   UNL     1      -0.660   1.615   0.665  0.00  0.00    +0.130 C 
ATOM      9  C   UNL     1      -1.293   3.617  -2.367  0.00  0.00    +0.123 A 
ATOM     10  C   UNL     1      -1.761   4.939  -2.369  0.00  0.00    -0.024 A 
ATOM     11  C   UNL     1      -2.419   5.425  -3.458  0.00  0.00    +0.015 A 
ATOM     12  C   UNL     1      -2.617   4.564  -4.558  0.00  0.00    +0.001 A 
ATOM     13  C   UNL     1      -3.290   4.998  -5.710  0.00  0.00    +0.013 A 
ATOM     14  C   UNL     1      -3.462   4.139  -6.753  0.00  0.00    -0.050 A 
ATOM     15  C   UNL     1      -2.979   2.834  -6.691  0.00  0.00    +0.005 A 
ATOM     16  C   UNL     1      -2.323   2.381  -5.588  0.00  0.00    +0.028 A 
ATOM     17  C   UNL     1      -2.125   3.238  -4.492  0.00  0.00    +0.073 A 
ATOM     18  N   UNL     1      -1.482   2.818  -3.396  0.00  0.00    -0.232 NA
ATOM     19  C   UNL     1      -4.185   4.607  -7.990  0.00  0.00    +0.044 C 
ENDROOT
BRANCH   1  20
ATOM     20  O   UNL     1       0.682  -0.673   1.494  0.00  0.00    -0.451 OA
BRANCH  20  22
ATOM     21  C   UNL     1       0.447  -2.809   2.639  0.00  0.00    +0.048 C 
ATOM     22  C   UNL     1       1.404  -1.860   1.915  0.00  0.00    +0.230 C 
ENDBRANCH  20  22
ENDBRANCH   1  20
BRANCH  10  23
ATOM     23  C   UNL     1      -1.532   5.823  -1.169  0.00  0.00    -0.043 C 
BRANCH  23  24
ATOM     24  N   UNL     1      -0.141   6.295  -1.167  0.00  0.00    +0.384 N 
ATOM     25  H   UNL     1       0.539   5.432  -1.122  0.00  0.00    -0.085 HD
ATOM     26  H   UNL     1       0.053   6.867  -2.087  0.00  0.00    -0.085 HD
BRANCH  24  27
ATOM     27  C   UNL     1       0.119   7.161  -0.010  0.00  0.00    -0.046 C 
BRANCH  27  28
ATOM     28  C   UNL     1       1.553   7.625  -0.042  0.00  0.00    -0.064 A 
ATOM     29  C   UNL     1       2.533   6.884   0.591  0.00  0.00    +0.004 A 
ATOM     30  C   UNL     1       3.848   7.306   0.558  0.00  0.00    +0.038 A 
ATOM     31  C   UNL     1       4.183   8.476  -0.100  0.00  0.00    +0.123 A 
ATOM     32  C   UNL     1       3.200   9.221  -0.730  0.00  0.00    +0.038 A 
ATOM     33  C   UNL     1       1.886   8.794  -0.700  0.00  0.00    +0.004 A 
ATOM     34  F   UNL     1       5.468   8.892  -0.129  0.00  0.00    -0.205 F 
ENDBRANCH  27  28
ENDBRANCH  24  27
ENDBRANCH  23  24
ENDBRANCH  10  23
TORSDOF 6
