REMARK  Name = ZINC35495590
REMARK  5 active torsions:
REMARK  status: ('A' for Active; 'I' for Inactive)
REMARK    1  A    between atoms: C_1  and  N_2
REMARK    2  A    between atoms: N_2  and  C_3
REMARK    3  A    between atoms: C_3  and  C_5
REMARK    4  A    between atoms: C_3  and  C_13
REMARK    5  A    between atoms: C_5  and  C_6
REMARK                            x       y       z     vdW  Elec       q    Type
REMARK                         _______ _______ _______ _____ _____    ______ ____
ROOT
ATOM      1  C   UNL     1       0.713  -0.491   1.192  0.00  0.00    -0.037 C 
ENDROOT
BRANCH   1   2
ATOM      2  C   UNL     1      -0.059  -0.109   2.429  0.00  0.00    -0.061 A 
ATOM      3  C   UNL     1      -1.440  -0.198   2.440  0.00  0.00    +0.004 A 
ATOM      4  C   UNL     1      -2.152   0.150   3.568  0.00  0.00    +0.024 A 
ATOM      5  C   UNL     1      -1.484   0.593   4.708  0.00  0.00    +0.037 A 
ATOM      6  C   UNL     1      -0.098   0.677   4.685  0.00  0.00    -0.017 A 
ATOM      7  C   UNL     1       0.611   0.325   3.559  0.00  0.00    +0.008 A 
ATOM      8  C   UNL     1       0.321   1.181   6.048  0.00  0.00    +0.133 C 
ATOM      9  C   UNL     1      -0.986   1.355   6.793  0.00  0.00    +0.222 C 
ATOM     10  O   UNL     1      -1.118   1.745   7.934  0.00  0.00    -0.275 OA
ATOM     11  N   UNL     1      -1.971   0.996   5.952  0.00  0.00    -0.285 N 
ATOM     12  H   UNL     1      -2.913   1.015   6.184  0.00  0.00    +0.155 HD
ENDBRANCH   1   2
BRANCH   1  14
ATOM     13  C   UNL     1      -0.018   1.465   0.010  0.00  0.00    -0.100 C 
ATOM     14  N   UNL     1       0.002  -0.004   0.002  0.00  0.00    +0.382 N 
ATOM     15  H   UNL     1      -0.945  -0.353   0.009  0.00  0.00    -0.085 HD
ATOM     16  H   UNL     1       0.474  -0.330  -0.828  0.00  0.00    -0.085 HD
ENDBRANCH   1  14
BRANCH   1  17
ATOM     17  C   UNL     1       0.842  -2.014   1.121  0.00  0.00    +0.024 C 
BRANCH  17  18
ATOM     18  C   UNL     1       1.717  -2.389  -0.047  0.00  0.00    -0.049 A 
ATOM     19  C   UNL     1       1.154  -2.606  -1.290  0.00  0.00    +0.005 A 
ATOM     20  C   UNL     1       1.956  -2.950  -2.362  0.00  0.00    +0.020 A 
ATOM     21  C   UNL     1       3.322  -3.079  -2.190  0.00  0.00    +0.041 A 
ATOM     22  C   UNL     1       3.886  -2.862  -0.945  0.00  0.00    +0.020 A 
ATOM     23  C   UNL     1       3.083  -2.512   0.125  0.00  0.00    +0.005 A 
ATOM     24 CL   UNL     1       4.330  -3.513  -3.535  0.00  0.00    -0.084 Cl
ENDBRANCH  17  18
ENDBRANCH   1  17
TORSDOF 4
