REMARK  Name = ZINC27531338
REMARK  6 active torsions:
REMARK  status: ('A' for Active; 'I' for Inactive)
REMARK    1  A    between atoms: N_9  and  N_19
REMARK    2  A    between atoms: C_10  and  C_12
REMARK    3  A    between atoms: N_19  and  C_20
REMARK    4  A    between atoms: C_20  and  C_21
REMARK    5  A    between atoms: C_24  and  O_27
REMARK    6  A    between atoms: O_27  and  C_28
REMARK                            x       y       z     vdW  Elec       q    Type
REMARK                         _______ _______ _______ _____ _____    ______ ____
ROOT
ATOM      1  C   UNL     1      -7.723   3.275   1.031  0.00  0.00    +0.001 A 
ATOM      2  C   UNL     1      -7.685   4.524   1.639  0.00  0.00    +0.002 A 
ATOM      3  C   UNL     1      -6.497   5.092   2.003  0.00  0.00    +0.028 A 
ATOM      4  C   UNL     1      -5.299   4.413   1.764  0.00  0.00    +0.079 A 
ATOM      5  C   UNL     1      -5.336   3.142   1.146  0.00  0.00    +0.066 A 
ATOM      6  C   UNL     1      -6.559   2.581   0.783  0.00  0.00    +0.015 A 
ATOM      7  C   UNL     1      -4.062   2.449   0.905  0.00  0.00    +0.279 A 
ATOM      8  O   UNL     1      -4.030   1.353   0.377  0.00  0.00    -0.265 OA
ATOM      9  N   UNL     1      -2.927   3.076   1.293  0.00  0.00    -0.211 N 
ATOM     10  C   UNL     1      -2.985   4.305   1.890  0.00  0.00    +0.164 A 
ATOM     11  N   UNL     1      -4.108   4.941   2.108  0.00  0.00    -0.227 NA
ENDROOT
BRANCH  10  12
ATOM     12  C   UNL     1      -1.720   4.948   2.302  0.00  0.00    +0.054 A 
ATOM     13  C   UNL     1      -1.370   6.199   1.791  0.00  0.00    +0.014 A 
ATOM     14  C   UNL     1      -0.189   6.794   2.180  0.00  0.00    +0.001 A 
ATOM     15  C   UNL     1       0.652   6.154   3.075  0.00  0.00    +0.003 A 
ATOM     16  C   UNL     1       0.314   4.915   3.587  0.00  0.00    +0.039 A 
ATOM     17  C   UNL     1      -0.871   4.309   3.210  0.00  0.00    +0.134 A 
ATOM     18  F   UNL     1      -1.203   3.100   3.714  0.00  0.00    -0.205 F 
ENDBRANCH  10  12
BRANCH   9  19
ATOM     19  N   UNL     1      -1.717   2.475   1.092  0.00  0.00    -0.276 N 
ATOM     20  H   UNL     1      -1.064   1.972   1.821  0.00  0.00    +0.167 HD
BRANCH  19  21
ATOM     21  C   UNL     1      -1.314   2.560  -0.318  0.00  0.00    +0.156 C 
BRANCH  21  22
ATOM     22  C   UNL     1       0.022   1.888  -0.500  0.00  0.00    -0.029 A 
ATOM     23  C   UNL     1       1.187   2.621  -0.368  0.00  0.00    +0.009 A 
ATOM     24  C   UNL     1       2.413   2.009  -0.541  0.00  0.00    +0.046 A 
ATOM     25  C   UNL     1       2.475   0.657  -0.847  0.00  0.00    +0.127 A 
ATOM     26  C   UNL     1       1.305  -0.076  -0.978  0.00  0.00    +0.046 A 
ATOM     27  C   UNL     1       0.081   0.541  -0.805  0.00  0.00    +0.009 A 
BRANCH  25  28
ATOM     28  O   UNL     1       3.680   0.052  -1.016  0.00  0.00    -0.434 OA
BRANCH  28  29
ATOM     29  C   UNL     1       4.843   0.869  -0.865  0.00  0.00    +0.541 C 
ATOM     30  F   UNL     1       4.808   1.907  -1.802  0.00  0.00    -0.166 F 
ATOM     31  F   UNL     1       4.871   1.406   0.426  0.00  0.00    -0.166 F 
ENDBRANCH  28  29
ENDBRANCH  25  28
ENDBRANCH  21  22
ENDBRANCH  19  21
ENDBRANCH   9  19
TORSDOF 6
