REMARK  Name = ZINC00806575
REMARK  12 active torsions:
REMARK  status: ('A' for Active; 'I' for Inactive)
REMARK    1  A    between atoms: C_1  and  C_2
REMARK    2  A    between atoms: C_5  and  C_28
REMARK    3  A    between atoms: C_5  and  C_29
REMARK    4  A    between atoms: C_10  and  O_13
REMARK    5  A    between atoms: O_13  and  C_14
REMARK    6  A    between atoms: C_14  and  C_16
REMARK    7  A    between atoms: C_18  and  O_26
REMARK    8  A    between atoms: C_19  and  O_24
REMARK    9  A    between atoms: C_20  and  O_22
REMARK   10  A    between atoms: O_22  and  C_23
REMARK   11  A    between atoms: O_24  and  C_25
REMARK   12  A    between atoms: O_26  and  C_27
REMARK                            x       y       z     vdW  Elec       q    Type
REMARK                         _______ _______ _______ _____ _____    ______ ____
ROOT
ATOM      1  O   UNL     1      -5.067   0.915  -3.382  0.00  0.00    -0.422 OA
ENDROOT
BRANCH   1  10
ATOM      2  C   UNL     1      -0.171   1.242  -2.524  0.00  0.00    +0.012 C 
ATOM      3  C   UNL     1      -0.787   1.812  -1.245  0.00  0.00    +0.020 C 
ATOM      4  C   UNL     1       0.004   1.312  -0.037  0.00  0.00    +0.033 C 
ATOM      5  C   UNL     1      -0.736   1.715   1.245  0.00  0.00    +0.027 C 
ATOM      6  N   UNL     1      -2.038   1.030   1.242  0.00  0.00    -0.339 N 
ATOM      7  C   UNL     1      -2.794   1.013   0.062  0.00  0.00    +0.031 A 
ATOM      8  C   UNL     1      -2.226   1.377  -1.149  0.00  0.00    -0.020 A 
ATOM      9  C   UNL     1      -2.993   1.342  -2.302  0.00  0.00    +0.052 A 
ATOM     10  C   UNL     1      -4.320   0.948  -2.246  0.00  0.00    +0.132 A 
ATOM     11  C   UNL     1      -4.887   0.587  -1.033  0.00  0.00    +0.048 A 
ATOM     12  C   UNL     1      -4.126   0.619   0.118  0.00  0.00    +0.027 A 
ATOM     13  C   UNL     1       0.077   1.286   2.469  0.00  0.00    +0.031 C 
ATOM     14  C   UNL     1      -0.948   3.230   1.268  0.00  0.00    +0.031 C 
ATOM     15  H   UNL     1      -2.368   0.597   2.045  0.00  0.00    +0.147 HD
ENDBRANCH   1  10
BRANCH   1  16
ATOM     16  C   UNL     1      -4.756  -0.028  -4.292  0.00  0.00    +0.345 C 
ATOM     17  O   UNL     1      -3.914  -0.866  -4.035  0.00  0.00    -0.245 OA
BRANCH  16  18
ATOM     18  C   UNL     1      -5.437  -0.044  -5.600  0.00  0.00    +0.067 A 
ATOM     19  C   UNL     1      -6.409   0.915  -5.895  0.00  0.00    +0.064 A 
ATOM     20  C   UNL     1      -7.042   0.901  -7.124  0.00  0.00    +0.166 A 
ATOM     21  C   UNL     1      -6.720  -0.075  -8.063  0.00  0.00    +0.204 A 
ATOM     22  C   UNL     1      -5.755  -1.036  -7.770  0.00  0.00    +0.166 A 
ATOM     23  C   UNL     1      -5.115  -1.023  -6.545  0.00  0.00    +0.064 A 
BRANCH  22  24
ATOM     24  O   UNL     1      -5.442  -1.988  -8.690  0.00  0.00    -0.491 OA
ATOM     25  C   UNL     1      -4.444  -2.942  -8.322  0.00  0.00    +0.277 C 
ENDBRANCH  22  24
BRANCH  21  26
ATOM     26  O   UNL     1      -7.347  -0.090  -9.268  0.00  0.00    -0.488 OA
ATOM     27  C   UNL     1      -8.549  -0.857  -9.364  0.00  0.00    +0.277 C 
ENDBRANCH  21  26
BRANCH  20  28
ATOM     28  O   UNL     1      -7.986   1.837  -7.413  0.00  0.00    -0.491 OA
ATOM     29  C   UNL     1      -8.267   2.808  -6.403  0.00  0.00    +0.277 C 
ENDBRANCH  20  28
ENDBRANCH  16  18
ENDBRANCH   1  16
TORSDOF 6
