REMARK  Name = ZINC48731213
REMARK  6 active torsions:
REMARK  status: ('A' for Active; 'I' for Inactive)
REMARK    1  A    between atoms: C_5  and  N_7
REMARK    2  A    between atoms: C_8  and  C_10
REMARK    3  A    between atoms: N_12  and  C_13
REMARK    4  A    between atoms: C_13  and  C_14
REMARK    5  A    between atoms: C_14  and  C_16
REMARK    6  A    between atoms: C_14  and  N_21
REMARK                            x       y       z     vdW  Elec       q    Type
REMARK                         _______ _______ _______ _____ _____    ______ ____
ROOT
ATOM      1  C   UNL     1       0.119  -4.253   0.227  0.00  0.00    +0.299 C 
ATOM      2  O   UNL     1       1.181  -4.840   0.210  0.00  0.00    -0.265 OA
ATOM      3  N   UNL     1      -1.032  -4.946   0.321  0.00  0.00    -0.309 N 
ATOM      4  H   UNL     1      -1.881  -4.477   0.335  0.00  0.00    +0.149 HD
ENDROOT
BRANCH   1   6
ATOM      5  N   UNL     1       1.240  -2.069   0.047  0.00  0.00    -0.277 N 
ATOM      6  C   UNL     1       0.089  -2.762   0.142  0.00  0.00    +0.303 C 
ATOM      7  O   UNL     1      -0.974  -2.175   0.158  0.00  0.00    -0.265 OA
ATOM      8  H   UNL     1       2.083  -2.539  -0.052  0.00  0.00    +0.155 HD
BRANCH   5  13
ATOM      9  C   UNL     1       0.158   1.363   0.766  0.00  0.00    +0.002 A 
ATOM     10  C   UNL     1       1.178   2.081   0.175  0.00  0.00    +0.004 A 
ATOM     11  C   UNL     1       2.227   1.430  -0.462  0.00  0.00    -0.042 A 
ATOM     12  C   UNL     1       2.253   0.055  -0.503  0.00  0.00    -0.023 A 
ATOM     13  C   UNL     1       1.221  -0.672   0.091  0.00  0.00    +0.037 A 
ATOM     14  C   UNL     1       0.176  -0.017   0.725  0.00  0.00    +0.023 A 
ATOM     15  C   UNL     1       3.367  -0.716  -1.161  0.00  0.00    +0.037 C 
ATOM     16  C   UNL     1       4.157   0.184  -2.108  0.00  0.00    +0.005 C 
ATOM     17  C   UNL     1       4.559   1.453  -1.347  0.00  0.00    +0.005 C 
ATOM     18  C   UNL     1       3.301   2.280  -1.091  0.00  0.00    +0.035 C 
ENDBRANCH   5  13
ENDBRANCH   1   6
BRANCH   3  19
ATOM     19  C   UNL     1      -1.002  -6.409   0.405  0.00  0.00    +0.097 C 
BRANCH  19  20
ATOM     20  C   UNL     1      -2.433  -6.950   0.379  0.00  0.00    +0.016 C 
BRANCH  20  21
ATOM     21  N   UNL     1      -3.189  -6.392   1.508  0.00  0.00    +0.387 N 
ATOM     22  C   UNL     1      -2.473  -6.670   2.759  0.00  0.00    -0.078 C 
ATOM     23  C   UNL     1      -3.214  -6.021   3.930  0.00  0.00    -0.019 C 
ATOM     24  C   UNL     1      -4.631  -6.596   4.012  0.00  0.00    -0.004 C 
ATOM     25  C   UNL     1      -5.343  -6.366   2.676  0.00  0.00    -0.019 C 
ATOM     26  C   UNL     1      -4.523  -7.002   1.551  0.00  0.00    -0.078 C 
ATOM     27  H   UNL     1      -3.280  -5.394   1.390  0.00  0.00    -0.081 HD
ENDBRANCH  20  21
BRANCH  20  28
ATOM     28  C   UNL     1      -2.403  -8.453   0.488  0.00  0.00    +0.093 A 
ATOM     29  C   UNL     1      -2.436  -9.318  -0.541  0.00  0.00    +0.043 A 
ATOM     30  C   UNL     1      -2.389 -10.617   0.013  0.00  0.00    +0.041 A 
ATOM     31  C   UNL     1      -2.330 -10.469   1.349  0.00  0.00    +0.195 A 
ATOM     32  O   UNL     1      -2.333  -9.156   1.631  0.00  0.00    -0.469 OA
ENDBRANCH  20  28
ENDBRANCH  19  20
ENDBRANCH   3  19
TORSDOF 6
