REMARK  Name = ZINC63503297
REMARK  3 active torsions:
REMARK  status: ('A' for Active; 'I' for Inactive)
REMARK    1  A    between atoms: C_8  and  C_28
REMARK    2  A    between atoms: C_16  and  C_18
REMARK    3  A    between atoms: C_31  and  N_34
REMARK                            x       y       z     vdW  Elec       q    Type
REMARK                         _______ _______ _______ _____ _____    ______ ____
ROOT
ATOM      1  C   UNL     1       0.315   1.548   0.368  0.00  0.00    +0.001 A 
ATOM      2  C   UNL     1       1.528   2.243   0.262  0.00  0.00    +0.002 A 
ATOM      3  C   UNL     1       2.717   1.615   0.138  0.00  0.00    +0.026 A 
ATOM      4  C   UNL     1       2.783   0.196   0.111  0.00  0.00    +0.043 A 
ATOM      5  N   UNL     1       3.798  -0.628  -0.020  0.00  0.00    -0.375 N 
ATOM      6  C   UNL     1       3.302  -1.998   0.096  0.00  0.00    +0.131 C 
ATOM      7  C   UNL     1       3.649  -2.837  -1.139  0.00  0.00    +0.133 C 
ATOM      8  N   UNL     1       2.791  -4.032  -1.127  0.00  0.00    -0.285 N 
ATOM      9  C   UNL     1       1.330  -3.904  -1.157  0.00  0.00    +0.113 C 
ATOM     10  C   UNL     1       0.867  -3.067   0.050  0.00  0.00    +0.052 C 
ATOM     11  C   UNL     1       1.789  -1.874   0.159  0.00  0.00    -0.035 C 
ATOM     12  C   UNL     1       1.513  -0.563   0.215  0.00  0.00    -0.001 A 
ATOM     13  C   UNL     1       0.264   0.198   0.350  0.00  0.00    +0.010 A 
ATOM     14  C   UNL     1       3.352  -5.257  -1.088  0.00  0.00    +0.283 C 
ATOM     15  O   UNL     1       4.553  -5.371  -0.928  0.00  0.00    -0.267 OA
ATOM     16  H   UNL     1       4.722  -0.371  -0.168  0.00  0.00    +0.160 HD
ENDROOT
BRANCH  14  17
ATOM     17  C   UNL     1       2.514  -6.455  -1.238  0.00  0.00    +0.191 A 
ATOM     18  C   UNL     1       2.937  -7.733  -1.055  0.00  0.00    +0.063 A 
ATOM     19  C   UNL     1       1.775  -8.584  -1.310  0.00  0.00    +0.022 A 
ATOM     20  C   UNL     1       1.556  -9.963  -1.289  0.00  0.00    +0.027 A 
ATOM     21  C   UNL     1       0.316 -10.457  -1.585  0.00  0.00    +0.019 A 
ATOM     22  C   UNL     1      -0.726  -9.595  -1.906  0.00  0.00    +0.019 A 
ATOM     23  C   UNL     1      -0.529  -8.232  -1.932  0.00  0.00    +0.048 A 
ATOM     24  C   UNL     1       0.723  -7.707  -1.634  0.00  0.00    +0.136 A 
ATOM     25  O   UNL     1       1.207  -6.451  -1.574  0.00  0.00    -0.450 OA
ATOM     26 BR   UNL     1       0.016 -12.324  -1.558  0.00  0.00    -0.050 Br
ENDBRANCH  14  17
BRANCH   7  27
ATOM     27  C   UNL     1       5.098  -3.248  -1.086  0.00  0.00    -0.025 A 
ATOM     28  C   UNL     1       5.781  -3.523  -2.256  0.00  0.00    +0.008 A 
ATOM     29  C   UNL     1       7.110  -3.899  -2.208  0.00  0.00    +0.033 A 
ATOM     30  C   UNL     1       7.756  -4.000  -0.990  0.00  0.00    +0.126 A 
ATOM     31  C   UNL     1       7.073  -3.725   0.180  0.00  0.00    +0.033 A 
ATOM     32  C   UNL     1       5.745  -3.344   0.132  0.00  0.00    +0.008 A 
BRANCH  30  33
ATOM     33  N   UNL     1       9.179  -4.405  -0.938  0.00  0.00    +0.056 N 
ATOM     34  O   UNL     1       9.777  -4.646  -1.961  0.00  0.00    -0.126 OA
ATOM     35  O   UNL     1       9.744  -4.493   0.127  0.00  0.00    -0.126 OA
ENDBRANCH  30  33
ENDBRANCH   7  27
TORSDOF 3
