REMARK  Name = ZINC53533842
REMARK  10 active torsions:
REMARK  status: ('A' for Active; 'I' for Inactive)
REMARK    1  A    between atoms: C_1  and  C_2
REMARK    2  A    between atoms: C_6  and  N_9
REMARK    3  A    between atoms: C_7  and  C_8
REMARK    4  A    between atoms: C_10  and  C_12
REMARK    5  A    between atoms: C_12  and  N_13
REMARK    6  A    between atoms: N_13  and  C_14
REMARK    7  A    between atoms: N_17  and  C_18
REMARK    8  A    between atoms: C_18  and  C_19
REMARK    9  A    between atoms: C_19  and  C_21
REMARK   10  A    between atoms: C_19  and  N_26
REMARK                            x       y       z     vdW  Elec       q    Type
REMARK                         _______ _______ _______ _____ _____    ______ ____
ROOT
ATOM      1  N   UNL     1      -0.202  -6.329   3.360  0.00  0.00    -0.280 N 
ATOM      2  C   UNL     1       1.024  -7.126   3.257  0.00  0.00    +0.134 C 
ATOM      3  C   UNL     1      -1.404  -6.920   3.208  0.00  0.00    +0.302 C 
ATOM      4  O   UNL     1      -2.421  -6.259   3.293  0.00  0.00    -0.253 OA
ATOM      5  N   UNL     1      -1.478  -8.243   2.961  0.00  0.00    -0.300 N 
ATOM      6  H   UNL     1      -0.667  -8.770   2.893  0.00  0.00    +0.150 HD
ENDROOT
BRANCH   1   7
ATOM      7  C   UNL     1      -0.121  -4.891   3.628  0.00  0.00    +0.205 C 
BRANCH   7   9
ATOM      8  N   UNL     1       0.039  -2.796   2.325  0.00  0.00    -0.284 N 
ATOM      9  C   UNL     1      -0.043  -4.141   2.324  0.00  0.00    +0.235 C 
ATOM     10  O   UNL     1      -0.053  -4.747   1.274  0.00  0.00    -0.274 OA
ATOM     11  H   UNL     1       0.133  -2.316   3.162  0.00  0.00    +0.155 HD
BRANCH   8  17
ATOM     12  C   UNL     1       1.137   1.231  -0.275  0.00  0.00    +0.044 C 
ATOM     13  C   UNL     1       0.513  -0.137  -0.171  0.00  0.00    -0.046 A 
ATOM     14  C   UNL     1      -0.110  -0.698  -1.272  0.00  0.00    +0.004 A 
ATOM     15  C   UNL     1      -0.683  -1.952  -1.181  0.00  0.00    +0.002 A 
ATOM     16  C   UNL     1      -0.635  -2.651   0.010  0.00  0.00    +0.023 A 
ATOM     17  C   UNL     1      -0.010  -2.091   1.117  0.00  0.00    +0.037 A 
ATOM     18  C   UNL     1       0.569  -0.832   1.021  0.00  0.00    -0.026 A 
ATOM     19  C   UNL     1       1.253  -0.224   2.217  0.00  0.00    +0.046 C 
ENDBRANCH   8  17
ENDBRANCH   7   9
ENDBRANCH   1   7
BRANCH   5  20
ATOM     20  C   UNL     1      -2.785  -8.884   2.795  0.00  0.00    +0.098 C 
BRANCH  20  21
ATOM     21  C   UNL     1      -2.596 -10.396   2.652  0.00  0.00    +0.016 C 
BRANCH  21  22
ATOM     22  N   UNL     1      -3.904 -11.037   2.465  0.00  0.00    +0.387 N 
ATOM     23  C   UNL     1      -4.472 -10.667   1.143  0.00  0.00    -0.078 C 
ATOM     24  C   UNL     1      -5.490 -11.801   0.865  0.00  0.00    -0.020 C 
ATOM     25  C   UNL     1      -4.778 -13.052   1.428  0.00  0.00    -0.020 C 
ATOM     26  C   UNL     1      -3.752 -12.508   2.440  0.00  0.00    -0.078 C 
ATOM     27  H   UNL     1      -4.535 -10.765   3.204  0.00  0.00    -0.081 HD
ENDBRANCH  21  22
BRANCH  21  28
ATOM     28  C   UNL     1      -1.942 -10.941   3.895  0.00  0.00    +0.093 A 
ATOM     29  C   UNL     1      -0.637 -11.232   4.035  0.00  0.00    +0.043 A 
ATOM     30  C   UNL     1      -0.463 -11.713   5.353  0.00  0.00    +0.041 A 
ATOM     31  C   UNL     1      -1.673 -11.687   5.940  0.00  0.00    +0.195 A 
ATOM     32  O   UNL     1      -2.564 -11.213   5.054  0.00  0.00    -0.469 OA
ENDBRANCH  21  28
ENDBRANCH  20  21
ENDBRANCH   5  20
TORSDOF 7
