REMARK  Name = ZINC39678231
REMARK  8 active torsions:
REMARK  status: ('A' for Active; 'I' for Inactive)
REMARK    1  A    between atoms: C_1  and  C_2
REMARK    2  A    between atoms: C_2  and  O_4
REMARK    3  A    between atoms: O_4  and  C_5
REMARK    4  A    between atoms: C_10  and  C_11
REMARK    5  A    between atoms: C_15  and  C_24
REMARK    6  A    between atoms: N_26  and  C_27
REMARK    7  A    between atoms: C_27  and  C_28
REMARK    8  A    between atoms: C_33  and  N_34
REMARK                            x       y       z     vdW  Elec       q    Type
REMARK                         _______ _______ _______ _____ _____    ______ ____
ROOT
ATOM      1  C   UNL     1       0.068  -2.313  -3.313  0.00  0.00    +0.250 C 
ATOM      2  O   UNL     1       0.204  -1.121  -3.503  0.00  0.00    -0.270 OA
ATOM      3  N   UNL     1       0.080  -3.168  -4.355  0.00  0.00    -0.296 N 
ATOM      4  C   UNL     1       0.030  -4.649  -4.316  0.00  0.00    +0.121 C 
ATOM      5  C   UNL     1      -0.886  -5.040  -5.496  0.00  0.00    +0.100 C 
ATOM      6  C   UNL     1      -0.806  -3.850  -6.467  0.00  0.00    -0.004 C 
ATOM      7  C   UNL     1       0.138  -2.839  -5.799  0.00  0.00    +0.115 C 
ATOM      8  C   UNL     1      -0.236  -4.300  -7.809  0.00  0.00    -0.010 C 
ATOM      9  C   UNL     1      -0.220  -3.112  -8.775  0.00  0.00    -0.082 C 
ATOM     10  N   UNL     1      -1.585  -2.601  -8.948  0.00  0.00    +0.379 N 
ATOM     11  C   UNL     1      -2.091  -2.085  -7.670  0.00  0.00    -0.082 C 
ATOM     12  C   UNL     1      -2.186  -3.229  -6.657  0.00  0.00    -0.010 C 
ATOM     13  H   UNL     1      -1.581  -1.858  -9.631  0.00  0.00    -0.086 HD
ATOM     14  H   UNL     1      -2.184  -3.346  -9.269  0.00  0.00    -0.086 HD
ENDROOT
BRANCH   1  20
ATOM     15  C   UNL     1      -0.667  -2.006  -0.949  0.00  0.00    +0.144 A 
ATOM     16  C   UNL     1      -0.836  -2.500   0.336  0.00  0.00    +0.047 A 
ATOM     17  C   UNL     1      -0.452  -3.791   0.637  0.00  0.00    +0.004 A 
ATOM     18  C   UNL     1       0.104  -4.603  -0.339  0.00  0.00    +0.001 A 
ATOM     19  C   UNL     1       0.279  -4.128  -1.621  0.00  0.00    +0.017 A 
ATOM     20  C   UNL     1      -0.111  -2.826  -1.940  0.00  0.00    +0.079 A 
BRANCH  15  21
ATOM     21  O   UNL     1      -1.044  -0.737  -1.247  0.00  0.00    -0.425 OA
BRANCH  21  23
ATOM     22  C   UNL     1      -2.780   0.850  -2.000  0.00  0.00    +0.136 C 
ATOM     23  C   UNL     1      -2.271  -0.548  -1.759  0.00  0.00    +0.309 C 
ATOM     24  O   UNL     1      -2.967  -1.498  -2.028  0.00  0.00    -0.251 OA
ENDBRANCH  21  23
ENDBRANCH  15  21
ENDBRANCH   1  20
BRANCH   5  25
ATOM     25  C   UNL     1      -2.302  -5.236  -5.019  0.00  0.00    +0.218 C 
ATOM     26  O   UNL     1      -2.736  -4.555  -4.114  0.00  0.00    -0.275 OA
ATOM     27  N   UNL     1      -3.086  -6.168  -5.597  0.00  0.00    -0.311 N 
ATOM     28  H   UNL     1      -2.718  -6.761  -6.271  0.00  0.00    +0.149 HD
BRANCH  27  29
ATOM     29  C   UNL     1      -4.493  -6.285  -5.209  0.00  0.00    +0.141 C 
BRANCH  29  30
ATOM     30  C   UNL     1      -5.110  -7.469  -5.906  0.00  0.00    -0.009 A 
ATOM     31  C   UNL     1      -5.889  -7.281  -7.031  0.00  0.00    +0.007 A 
ATOM     32  C   UNL     1      -6.456  -8.367  -7.672  0.00  0.00    +0.000 A 
ATOM     33  C   UNL     1      -6.245  -9.646  -7.189  0.00  0.00    +0.002 A 
ATOM     34  C   UNL     1      -5.467  -9.842  -6.065  0.00  0.00    +0.023 A 
ATOM     35  C   UNL     1      -4.892  -8.753  -5.422  0.00  0.00    +0.034 A 
BRANCH  35  36
ATOM     36  N   UNL     1      -4.100  -8.947  -4.288  0.00  0.00    -0.330 N 
ATOM     37  C   UNL     1      -4.712  -9.053  -2.957  0.00  0.00    +0.105 C 
ATOM     38  C   UNL     1      -4.231 -10.347  -2.293  0.00  0.00    +0.019 C 
ATOM     39  C   UNL     1      -2.701 -10.373  -2.285  0.00  0.00    +0.003 C 
ATOM     40  C   UNL     1      -2.181 -10.345  -3.724  0.00  0.00    +0.019 C 
ATOM     41  C   UNL     1      -2.639  -9.057  -4.404  0.00  0.00    +0.105 C 
ENDBRANCH  35  36
ENDBRANCH  29  30
ENDBRANCH  27  29
ENDBRANCH   5  25
TORSDOF 7
