REMARK  Name = ZINC35931308
REMARK  12 active torsions:
REMARK  status: ('A' for Active; 'I' for Inactive)
REMARK    1  A    between atoms: C_1  and  C_2
REMARK    2  A    between atoms: C_2  and  C_3
REMARK    3  A    between atoms: C_2  and  C_4
REMARK    4  A    between atoms: C_4  and  C_6
REMARK    5  A    between atoms: C_4  and  O_34
REMARK    6  A    between atoms: C_6  and  N_7
REMARK    7  A    between atoms: N_7  and  C_8
REMARK    8  A    between atoms: N_7  and  C_9
REMARK    9  A    between atoms: C_9  and  C_10
REMARK   10  A    between atoms: N_13  and  C_15
REMARK   11  A    between atoms: N_24  and  C_26
REMARK   12  A    between atoms: C_26  and  C_27
REMARK                            x       y       z     vdW  Elec       q    Type
REMARK                         _______ _______ _______ _____ _____    ______ ____
ROOT
ATOM      1  C   UNL     1       1.086  -0.352   6.380  0.00  0.00    +0.052 A 
ATOM      2  C   UNL     1       0.710  -1.415   7.196  0.00  0.00    +0.009 A 
ATOM      3  C   UNL     1       1.286  -1.233   8.414  0.00  0.00    +0.051 A 
ATOM      4  N   UNL     1       2.000  -0.097   8.367  0.00  0.00    -0.236 N 
ATOM      5  N   UNL     1       1.865   0.440   7.077  0.00  0.00    -0.173 NA
ATOM      6  C   UNL     1       1.099  -2.188   9.567  0.00  0.00    +0.071 C 
ATOM      7  C   UNL     1      -0.102  -3.088   9.241  0.00  0.00    +0.091 C 
ATOM      8  N   UNL     1       0.042  -3.632   7.884  0.00  0.00    -0.293 NA
ATOM      9  C   UNL     1      -0.169  -2.594   6.861  0.00  0.00    +0.123 C 
ENDROOT
BRANCH   4  10
ATOM     10  C   UNL     1       2.751   0.452   9.416  0.00  0.00    +0.066 A 
ATOM     11  C   UNL     1       3.527  -0.372  10.220  0.00  0.00    +0.029 A 
ATOM     12  C   UNL     1       4.266   0.171  11.254  0.00  0.00    +0.022 A 
ATOM     13  C   UNL     1       4.233   1.534  11.488  0.00  0.00    +0.041 A 
ATOM     14  C   UNL     1       3.460   2.357  10.688  0.00  0.00    +0.022 A 
ATOM     15  C   UNL     1       2.724   1.820   9.650  0.00  0.00    +0.029 A 
ATOM     16 CL   UNL     1       5.162   2.213  12.788  0.00  0.00    -0.084 Cl
ENDBRANCH   4  10
BRANCH   1  17
ATOM     17  C   UNL     1       0.675  -0.150   4.945  0.00  0.00    -0.021 C 
BRANCH  17  18
ATOM     18  N   UNL     1       1.648  -0.804   4.060  0.00  0.00    +0.383 N 
ATOM     19  C   UNL     1       1.607  -2.256   4.275  0.00  0.00    -0.096 C 
ATOM     20  H   UNL     1       2.574  -0.460   4.265  0.00  0.00    -0.082 HD
BRANCH  18  21
ATOM     21  C   UNL     1       1.314  -0.506   2.660  0.00  0.00    -0.047 C 
BRANCH  21  22
ATOM     22  C   UNL     1       1.526   0.985   2.391  0.00  0.00    +0.101 C 
BRANCH  22  24
ATOM     23  C   UNL     1      -0.265   0.925   0.650  0.00  0.00    +0.010 C 
ATOM     24  C   UNL     1       1.194   1.292   0.930  0.00  0.00    +0.010 C 
ATOM     25  C   UNL     1       1.405   2.783   0.661  0.00  0.00    +0.010 C 
ENDBRANCH  22  24
BRANCH  22  26
ATOM     26  O   UNL     1       2.888   1.327   2.652  0.00  0.00    -0.393 OA
ATOM     27  H   UNL     1       3.526   0.846   2.108  0.00  0.00    +0.210 HD
ENDBRANCH  22  26
ENDBRANCH  21  22
ENDBRANCH  18  21
ENDBRANCH  17  18
ENDBRANCH   1  17
BRANCH   8  28
ATOM     28  C   UNL     1      -0.863  -4.770   7.674  0.00  0.00    +0.122 C 
BRANCH  28  29
ATOM     29  C   UNL     1      -0.387  -5.948   8.484  0.00  0.00    +0.002 A 
ATOM     30  C   UNL     1      -1.049  -6.303   9.644  0.00  0.00    +0.008 A 
ATOM     31  C   UNL     1      -0.612  -7.383  10.387  0.00  0.00    +0.000 A 
ATOM     32  C   UNL     1       0.488  -8.110   9.972  0.00  0.00    +0.003 A 
ATOM     33  C   UNL     1       1.152  -7.757   8.813  0.00  0.00    +0.038 A 
ATOM     34  C   UNL     1       0.712  -6.678   8.064  0.00  0.00    +0.128 A 
ATOM     35  F   UNL     1       1.358  -6.335   6.928  0.00  0.00    -0.205 F 
ENDBRANCH  28  29
ENDBRANCH   8  28
TORSDOF 9
