REMARK  Name = ZINC05748509
REMARK  6 active torsions:
REMARK  status: ('A' for Active; 'I' for Inactive)
REMARK    1  A    between atoms: C_1  and  C_2
REMARK    2  A    between atoms: C_8  and  N_10
REMARK    3  A    between atoms: N_10  and  S_11
REMARK    4  A    between atoms: S_11  and  N_14
REMARK    5  A    between atoms: N_14  and  C_15
REMARK    6  A    between atoms: N_14  and  C_16
REMARK                            x       y       z     vdW  Elec       q    Type
REMARK                         _______ _______ _______ _____ _____    ______ ____
ROOT
ATOM      1  N   UNL     1      -0.749   3.044   1.275  0.00  0.00    -0.176 NA
ATOM      2  H   UNL     1      -1.448   3.522   0.802  0.00  0.00    +0.149 HD
ENDROOT
BRANCH   1   9
ATOM      3  C   UNL     1      -2.880   1.543   2.537  0.00  0.00    +0.009 C 
ATOM      4  C   UNL     1      -2.164   1.050   1.278  0.00  0.00    +0.005 C 
ATOM      5  C   UNL     1      -2.904   1.556   0.038  0.00  0.00    +0.005 C 
ATOM      6  C   UNL     1      -2.188   1.063  -1.221  0.00  0.00    +0.000 C 
ATOM      7  C   UNL     1      -0.753   1.593  -1.232  0.00  0.00    +0.002 C 
ATOM      8  C   UNL     1      -0.013   1.086   0.008  0.00  0.00    +0.021 C 
ATOM      9  C   UNL     1      -0.729   1.579   1.267  0.00  0.00    +0.080 C 
ENDBRANCH   1   9
BRANCH   1  10
ATOM     10  S   UNL     1       0.422   3.884   2.091  0.00  0.00    +0.097 S 
ATOM     11  O   UNL     1       0.148   5.263   1.890  0.00  0.00    -0.141 OA
ATOM     12  O   UNL     1       0.509   3.305   3.386  0.00  0.00    -0.141 OA
BRANCH  10  13
ATOM     13  N   UNL     1       1.863   3.573   1.336  0.00  0.00    -0.173 NA
ATOM     14  C   UNL     1       2.316   4.433   0.240  0.00  0.00    +0.132 C 
ATOM     15  C   UNL     1       2.685   2.438   1.764  0.00  0.00    +0.132 C 
ENDBRANCH  10  13
ENDBRANCH   1  10
TORSDOF 3
