REMARK  Name = ZINC37361492
REMARK  8 active torsions:
REMARK  status: ('A' for Active; 'I' for Inactive)
REMARK    1  A    between atoms: C_1  and  O_2
REMARK    2  A    between atoms: O_2  and  C_3
REMARK    3  A    between atoms: C_3  and  C_4
REMARK    4  A    between atoms: C_4  and  N_5
REMARK    5  A    between atoms: C_8  and  C_23
REMARK    6  A    between atoms: C_10  and  N_22
REMARK    7  A    between atoms: N_11  and  C_15
REMARK    8  A    between atoms: C_15  and  C_16
REMARK                            x       y       z     vdW  Elec       q    Type
REMARK                         _______ _______ _______ _____ _____    ______ ____
ROOT
ATOM      1  N   UNL     1      -0.790  -2.609  -0.226  0.00  0.00    -0.311 N 
ATOM      2  C   UNL     1      -1.075  -3.921  -0.556  0.00  0.00    +0.218 A 
ATOM      3  N   UNL     1      -2.351  -4.292  -0.614  0.00  0.00    -0.214 NA
ATOM      4  C   UNL     1      -2.713  -5.530  -0.923  0.00  0.00    +0.091 A 
ATOM      5  C   UNL     1      -1.700  -6.476  -1.198  0.00  0.00    +0.086 A 
ATOM      6  C   UNL     1      -1.659  -7.820  -1.546  0.00  0.00    +0.126 A 
ATOM      7  N   UNL     1      -0.367  -8.167  -1.674  0.00  0.00    -0.244 N 
ATOM      8  N   UNL     1       0.452  -7.063  -1.413  0.00  0.00    -0.149 NA
ATOM      9  C   UNL     1      -0.299  -6.023  -1.122  0.00  0.00    +0.188 A 
ATOM     10  N   UNL     1      -0.069  -4.735  -0.801  0.00  0.00    -0.193 NA
ATOM     11  H   UNL     1      -1.511  -1.988  -0.040  0.00  0.00    +0.149 HD
ENDROOT
BRANCH   4  12
ATOM     12  C   UNL     1      -4.142  -5.912  -0.979  0.00  0.00    +0.039 A 
ATOM     13  C   UNL     1      -4.617  -6.966  -0.197  0.00  0.00    +0.013 A 
ATOM     14  C   UNL     1      -5.949  -7.318  -0.251  0.00  0.00    +0.004 A 
ATOM     15  C   UNL     1      -6.818  -6.629  -1.080  0.00  0.00    +0.041 A 
ATOM     16  C   UNL     1      -6.357  -5.582  -1.860  0.00  0.00    +0.159 A 
ATOM     17  C   UNL     1      -5.022  -5.215  -1.810  0.00  0.00    +0.168 A 
ATOM     18  F   UNL     1      -4.572  -4.190  -2.566  0.00  0.00    -0.202 F 
ATOM     19  F   UNL     1      -7.210  -4.915  -2.667  0.00  0.00    -0.202 F 
ENDBRANCH   4  12
BRANCH   6  20
ATOM     20  N   UNL     1      -2.750  -8.650  -1.727  0.00  0.00    -0.343 N 
ATOM     21  H   UNL     1      -3.647  -8.280  -1.730  0.00  0.00    +0.144 HD
ATOM     22  H   UNL     1      -2.619  -9.603  -1.851  0.00  0.00    +0.144 HD
ENDBRANCH   6  20
BRANCH   1  23
ATOM     23  C   UNL     1       0.602  -2.157  -0.157  0.00  0.00    +0.132 C 
BRANCH  23  24
ATOM     24  C   UNL     1       0.639  -0.676   0.226  0.00  0.00    +0.178 C 
BRANCH  24  26
ATOM     25  C   UNL     1       0.113   0.842   2.005  0.00  0.00    +0.194 C 
ATOM     26  O   UNL     1       0.122  -0.512   1.548  0.00  0.00    -0.381 OA
ENDBRANCH  24  26
ENDBRANCH  23  24
ENDBRANCH   1  23
BRANCH   7  27
ATOM     27  C   UNL     1       0.113  -9.504  -2.032  0.00  0.00    +0.180 C 
BRANCH  27  28
ATOM     28  C   UNL     1       0.237  -9.608  -3.531  0.00  0.00    -0.026 A 
ATOM     29  C   UNL     1      -0.839 -10.039  -4.285  0.00  0.00    +0.005 A 
ATOM     30  C   UNL     1      -0.725 -10.134  -5.659  0.00  0.00    +0.000 A 
ATOM     31  C   UNL     1       0.464  -9.798  -6.280  0.00  0.00    +0.000 A 
ATOM     32  C   UNL     1       1.539  -9.367  -5.526  0.00  0.00    +0.000 A 
ATOM     33  C   UNL     1       1.424  -9.267  -4.152  0.00  0.00    +0.005 A 
ENDBRANCH  27  28
ENDBRANCH   7  27
TORSDOF 7
