REMARK  Name = ZINC29684811
REMARK  13 active torsions:
REMARK  status: ('A' for Active; 'I' for Inactive)
REMARK    1  A    between atoms: C_1  and  C_2
REMARK    2  A    between atoms: C_2  and  C_3
REMARK    3  A    between atoms: C_3  and  C_4
REMARK    4  A    between atoms: C_4  and  N_5
REMARK    5  A    between atoms: C_6  and  N_32
REMARK    6  A    between atoms: C_7  and  N_14
REMARK    7  A    between atoms: N_14  and  C_15
REMARK    8  A    between atoms: N_14  and  C_17
REMARK    9  A    between atoms: C_15  and  C_16
REMARK   10  A    between atoms: C_17  and  C_18
REMARK   11  A    between atoms: N_23  and  C_24
REMARK   12  A    between atoms: C_27  and  C_31
REMARK   13  A    between atoms: C_29  and  C_30
REMARK                            x       y       z     vdW  Elec       q    Type
REMARK                         _______ _______ _______ _____ _____    ______ ____
ROOT
ATOM      1  N   UNL     1      -1.323  -4.978  -2.328  0.00  0.00    -0.315 N 
ENDROOT
BRANCH   1   4
ATOM      2  N   UNL     1      -1.250  -1.901  -0.328  0.00  0.00    -0.280 N 
ATOM      3  C   UNL     1      -1.219  -2.743  -1.417  0.00  0.00    +0.127 A 
ATOM      4  C   UNL     1      -1.356  -4.091  -1.227  0.00  0.00    +0.134 A 
ATOM      5  C   UNL     1      -1.536  -4.581   0.079  0.00  0.00    +0.277 A 
ATOM      6  O   UNL     1      -1.665  -5.778   0.273  0.00  0.00    -0.266 OA
ATOM      7  N   UNL     1      -1.565  -3.719   1.115  0.00  0.00    -0.273 N 
ATOM      8  H   UNL     1      -1.706  -4.095   2.139  0.00  0.00    +0.173 HD
ATOM      9  C   UNL     1      -1.424  -2.397   0.910  0.00  0.00    +0.331 A 
ATOM     10  O   UNL     1      -1.453  -1.639   1.860  0.00  0.00    -0.246 OA
BRANCH   3  11
ATOM     11  N   UNL     1      -1.046  -2.233  -2.684  0.00  0.00    -0.343 N 
ATOM     12  H   UNL     1      -1.022  -2.911  -3.550  0.00  0.00    +0.144 HD
ATOM     13  H   UNL     1      -0.933  -1.149  -2.830  0.00  0.00    +0.144 HD
ENDBRANCH   3  11
BRANCH   2  14
ATOM     14  C   UNL     1      -1.100  -0.456  -0.520  0.00  0.00    +0.128 C 
BRANCH  14  15
ATOM     15  C   UNL     1       0.382  -0.083  -0.438  0.00  0.00    +0.021 C 
BRANCH  15  17
ATOM     16  C   UNL     1       2.021   1.799  -0.556  0.00  0.00    +0.004 C 
ATOM     17  C   UNL     1       0.539   1.426  -0.638  0.00  0.00    -0.002 C 
ENDBRANCH  15  17
ENDBRANCH  14  15
ENDBRANCH   2  14
ENDBRANCH   1   4
BRANCH   1  18
ATOM     18  C   UNL     1      -0.226  -5.946  -2.192  0.00  0.00    +0.102 C 
ATOM     19  C   UNL     1       1.102  -5.261  -2.519  0.00  0.00    +0.024 C 
ENDBRANCH   1  18
BRANCH   1  20
ATOM     20  C   UNL     1      -2.612  -5.662  -2.492  0.00  0.00    +0.201 C 
BRANCH  20  21
ATOM     21  C   UNL     1      -2.687  -6.271  -3.869  0.00  0.00    +0.238 C 
ATOM     22  O   UNL     1      -1.807  -6.057  -4.675  0.00  0.00    -0.274 OA
ATOM     23  N   UNL     1      -3.731  -7.053  -4.204  0.00  0.00    -0.239 N 
ATOM     24  C   UNL     1      -3.798  -7.598  -5.435  0.00  0.00    +0.310 C 
ATOM     25  O   UNL     1      -2.916  -7.383  -6.243  0.00  0.00    -0.252 OA
ATOM     26  N   UNL     1      -4.843  -8.380  -5.770  0.00  0.00    -0.269 N 
ATOM     27  H   UNL     1      -4.530  -7.248  -3.473  0.00  0.00    +0.159 HD
ATOM     28  H   UNL     1      -5.682  -8.506  -5.071  0.00  0.00    +0.156 HD
BRANCH  26  29
ATOM     29  C   UNL     1      -4.860  -9.033  -7.008  0.00  0.00    +0.038 A 
ATOM     30  C   UNL     1      -4.186  -8.485  -8.093  0.00  0.00    +0.024 A 
ATOM     31  C   UNL     1      -4.205  -9.131  -9.313  0.00  0.00    +0.005 A 
ATOM     32  C   UNL     1      -4.893 -10.322  -9.456  0.00  0.00    -0.050 A 
ATOM     33  C   UNL     1      -5.564 -10.870  -8.379  0.00  0.00    +0.008 A 
ATOM     34  C   UNL     1      -5.545 -10.231  -7.154  0.00  0.00    -0.029 A 
ATOM     35  C   UNL     1      -6.272 -10.832  -5.978  0.00  0.00    +0.045 C 
ATOM     36  C   UNL     1      -4.910 -11.025 -10.789  0.00  0.00    +0.044 C 
ENDBRANCH  26  29
ENDBRANCH  20  21
ENDBRANCH   1  20
TORSDOF 9
