REMARK  Name = ZINC00863467
REMARK  13 active torsions:
REMARK  status: ('A' for Active; 'I' for Inactive)
REMARK    1  A    between atoms: C_1  and  C_2
REMARK    2  A    between atoms: C_3  and  C_34
REMARK    3  A    between atoms: C_4  and  C_25
REMARK    4  A    between atoms: C_10  and  C_15
REMARK    5  A    between atoms: C_18  and  O_23
REMARK    6  A    between atoms: C_19  and  O_21
REMARK    7  A    between atoms: O_21  and  C_22
REMARK    8  A    between atoms: O_23  and  C_24
REMARK    9  A    between atoms: C_29  and  N_31
REMARK   10  A    between atoms: C_34  and  O_36
REMARK   11  A    between atoms: O_36  and  C_37
REMARK   12  A    between atoms: C_37  and  C_38
REMARK   13  A    between atoms: C_37  and  C_39
REMARK                            x       y       z     vdW  Elec       q    Type
REMARK                         _______ _______ _______ _____ _____    ______ ____
ROOT
ATOM      1  C   UNL     1      -0.020   1.055   0.016  0.00  0.00    +0.061 C 
ATOM      2  C   UNL     1      -0.722   1.557   1.252  0.00  0.00    +0.016 C 
ATOM      3  C   UNL     1      -0.034   1.701   2.398  0.00  0.00    +0.065 C 
ATOM      4  C   UNL     1      -0.701   2.192   3.649  0.00  0.00    +0.092 C 
ATOM      5  C   UNL     1      -2.010   2.870   3.334  0.00  0.00    +0.024 C 
ATOM      6  C   UNL     1      -2.620   2.673   2.146  0.00  0.00    +0.016 C 
ATOM      7  N   UNL     1      -2.051   1.868   1.198  0.00  0.00    -0.321 N 
ATOM      8  C   UNL     1      -3.936   3.339   1.828  0.00  0.00    +0.059 C 
ATOM      9  C   UNL     1      -4.020   4.684   2.555  0.00  0.00    +0.032 C 
ATOM     10  C   UNL     1      -3.871   4.434   4.059  0.00  0.00    +0.088 C 
ATOM     11  C   UNL     1      -2.574   3.712   4.309  0.00  0.00    +0.162 C 
ATOM     12  O   UNL     1      -2.005   3.859   5.372  0.00  0.00    -0.292 OA
ATOM     13  H   UNL     1      -2.677   1.469   0.386  0.00  0.00    +0.152 HD
ENDROOT
BRANCH   9  14
ATOM     14  C   UNL     1      -5.354   5.330   2.279  0.00  0.00    -0.040 A 
ATOM     15  C   UNL     1      -6.522   4.677   2.626  0.00  0.00    +0.008 A 
ATOM     16  C   UNL     1      -7.747   5.266   2.375  0.00  0.00    +0.049 A 
ATOM     17  C   UNL     1      -7.806   6.513   1.776  0.00  0.00    +0.161 A 
ATOM     18  C   UNL     1      -6.631   7.171   1.427  0.00  0.00    +0.162 A 
ATOM     19  C   UNL     1      -5.406   6.578   1.686  0.00  0.00    +0.053 A 
BRANCH  18  20
ATOM     20  O   UNL     1      -6.684   8.396   0.839  0.00  0.00    -0.491 OA
ATOM     21  C   UNL     1      -5.437   9.012   0.509  0.00  0.00    +0.277 C 
ENDBRANCH  18  20
BRANCH  17  22
ATOM     22  O   UNL     1      -9.011   7.094   1.529  0.00  0.00    -0.491 OA
ATOM     23  C   UNL     1     -10.176   6.361   1.913  0.00  0.00    +0.277 C 
ENDBRANCH  17  22
ENDBRANCH   9  14
BRANCH   4  24
ATOM     24  C   UNL     1      -0.959   1.022   4.563  0.00  0.00    -0.033 A 
ATOM     25  C   UNL     1      -1.764  -0.020   4.142  0.00  0.00    +0.005 A 
ATOM     26  C   UNL     1      -1.998  -1.095   4.979  0.00  0.00    +0.003 A 
ATOM     27  C   UNL     1      -1.433  -1.125   6.240  0.00  0.00    +0.033 A 
ATOM     28  C   UNL     1      -0.632  -0.081   6.663  0.00  0.00    +0.126 A 
ATOM     29  C   UNL     1      -0.395   0.993   5.825  0.00  0.00    +0.037 A 
BRANCH  28  30
ATOM     30  N   UNL     1      -0.028  -0.112   8.014  0.00  0.00    +0.056 N 
ATOM     31  O   UNL     1       0.678   0.808   8.387  0.00  0.00    -0.126 OA
ATOM     32  O   UNL     1      -0.236  -1.058   8.753  0.00  0.00    -0.126 OA
ENDBRANCH  28  30
ENDBRANCH   4  24
BRANCH   3  33
ATOM     33  C   UNL     1       1.345   1.385   2.424  0.00  0.00    +0.338 C 
ATOM     34  O   UNL     1       1.920   1.087   1.395  0.00  0.00    -0.245 OA
BRANCH  33  35
ATOM     35  O   UNL     1       2.021   1.413   3.592  0.00  0.00    -0.459 OA
BRANCH  35  36
ATOM     36  C   UNL     1       3.410   1.083   3.545  0.00  0.00    +0.171 C 
ATOM     37  C   UNL     1       4.229   2.353   3.308  0.00  0.00    +0.052 C 
ATOM     38  C   UNL     1       3.828   0.447   4.872  0.00  0.00    +0.052 C 
ENDBRANCH  35  36
ENDBRANCH  33  35
ENDBRANCH   3  33
TORSDOF 8
