REMARK  Name = ZINC04084842
REMARK  10 active torsions:
REMARK  status: ('A' for Active; 'I' for Inactive)
REMARK    1  A    between atoms: C_1  and  C_2
REMARK    2  A    between atoms: C_2  and  C_3
REMARK    3  A    between atoms: C_3  and  C_4
REMARK    4  A    between atoms: C_4  and  C_6
REMARK    5  A    between atoms: C_4  and  C_7
REMARK    6  A    between atoms: C_7  and  O_8
REMARK    7  A    between atoms: O_8  and  C_9
REMARK    8  A    between atoms: C_9  and  C_11
REMARK    9  A    between atoms: C_12  and  C_28
REMARK   10  A    between atoms: C_17  and  C_19
REMARK                            x       y       z     vdW  Elec       q    Type
REMARK                         _______ _______ _______ _____ _____    ______ ____
ROOT
ATOM      1  C   UNL     1       2.944   0.869   1.419  0.00  0.00    +0.078 C 
ATOM      2  C   UNL     1       4.145   1.380   1.765  0.00  0.00    +0.021 C 
ATOM      3  N   UNL     1       4.923   2.032   0.852  0.00  0.00    -0.273 N 
ATOM      4  C   UNL     1       4.572   2.215  -0.427  0.00  0.00    +0.304 C 
ATOM      5  O   UNL     1       5.332   2.809  -1.166  0.00  0.00    -0.252 OA
ATOM      6  N   UNL     1       3.402   1.763  -0.921  0.00  0.00    -0.288 N 
ATOM      7  C   UNL     1       2.489   1.045  -0.016  0.00  0.00    +0.144 C 
ATOM      8  C   UNL     1       4.635   1.227   3.182  0.00  0.00    +0.061 C 
ATOM      9  H   UNL     1       5.778   2.382   1.147  0.00  0.00    +0.156 HD
ATOM     10  H   UNL     1       3.167   1.908  -1.851  0.00  0.00    +0.151 HD
ENDROOT
BRANCH   7  11
ATOM     11  C   UNL     1       1.175   1.783   0.000  0.00  0.00    -0.019 A 
ATOM     12  C   UNL     1       1.160   3.165   0.008  0.00  0.00    +0.009 A 
ATOM     13  C   UNL     1      -0.043   3.846   0.023  0.00  0.00    +0.050 A 
ATOM     14  C   UNL     1      -1.237   3.144   0.030  0.00  0.00    +0.166 A 
ATOM     15  C   UNL     1      -1.222   1.752   0.017  0.00  0.00    +0.167 A 
ATOM     16  C   UNL     1      -0.013   1.076   0.008  0.00  0.00    +0.055 A 
ATOM     17  O   UNL     1      -2.510   1.302   0.021  0.00  0.00    -0.453 OA
ATOM     18  C   UNL     1      -3.312   2.428  -0.381  0.00  0.00    +0.466 C 
ATOM     19  O   UNL     1      -2.535   3.567   0.044  0.00  0.00    -0.453 OA
ENDBRANCH   7  11
BRANCH   1  20
ATOM     20  C   UNL     1       2.136   0.194   2.364  0.00  0.00    +0.339 C 
ATOM     21  O   UNL     1       2.521   0.064   3.511  0.00  0.00    -0.245 OA
BRANCH  20  22
ATOM     22  O   UNL     1       0.939  -0.307   1.994  0.00  0.00    -0.461 OA
BRANCH  22  23
ATOM     23  C   UNL     1       0.177  -0.977   3.000  0.00  0.00    +0.235 C 
BRANCH  23  24
ATOM     24  C   UNL     1      -1.140  -1.472   2.397  0.00  0.00    +0.024 C 
ATOM     25  C   UNL     1      -0.847  -2.534   1.336  0.00  0.00    +0.011 C 
BRANCH  24  26
ATOM     26  C   UNL     1      -2.010  -2.078   3.500  0.00  0.00    +0.006 C 
BRANCH  26  28
ATOM     27  C   UNL     1      -4.244  -3.066   4.025  0.00  0.00    +0.004 C 
ATOM     28  C   UNL     1      -3.374  -2.459   2.922  0.00  0.00    -0.003 C 
ENDBRANCH  26  28
ENDBRANCH  24  26
ENDBRANCH  23  24
ENDBRANCH  22  23
ENDBRANCH  20  22
ENDBRANCH   1  20
TORSDOF 7
