REMARK  Name = ZINC35509239
REMARK  7 active torsions:
REMARK  status: ('A' for Active; 'I' for Inactive)
REMARK    1  A    between atoms: C_1  and  C_2
REMARK    2  A    between atoms: C_2  and  N_3
REMARK    3  A    between atoms: N_3  and  C_4
REMARK    4  A    between atoms: C_4  and  C_6
REMARK    5  A    between atoms: C_4  and  C_14
REMARK    6  A    between atoms: C_9  and  C_13
REMARK    7  A    between atoms: C_10  and  C_12
REMARK                            x       y       z     vdW  Elec       q    Type
REMARK                         _______ _______ _______ _____ _____    ______ ____
ROOT
ATOM      1  C   UNL     1       0.733  -1.960   1.184  0.00  0.00    -0.003 C 
ENDROOT
BRANCH   1   2
ATOM      2  C   UNL     1       1.543  -2.445   0.010  0.00  0.00    -0.056 A 
ATOM      3  C   UNL     1       2.714  -1.796  -0.337  0.00  0.00    +0.002 A 
ATOM      4  C   UNL     1       3.457  -2.240  -1.414  0.00  0.00    +0.004 A 
ATOM      5  C   UNL     1       3.030  -3.334  -2.144  0.00  0.00    -0.048 A 
ATOM      6  C   UNL     1       1.861  -3.983  -1.797  0.00  0.00    -0.047 A 
ATOM      7  C   UNL     1       1.119  -3.541  -0.717  0.00  0.00    +0.006 A 
ATOM      8  C   UNL     1       1.395  -5.176  -2.593  0.00  0.00    +0.044 C 
ATOM      9  C   UNL     1       3.840  -3.819  -3.319  0.00  0.00    +0.044 C 
ENDBRANCH   1   2
BRANCH   1  10
ATOM     10  C   UNL     1       1.352  -2.461   2.463  0.00  0.00    -0.019 A 
ATOM     11  C   UNL     1       0.990  -3.518   3.230  0.00  0.00    +0.011 A 
ATOM     12  C   UNL     1       1.712  -3.794   4.376  0.00  0.00    +0.023 A 
ATOM     13  C   UNL     1       2.762  -2.998   4.699  0.00  0.00    +0.055 A 
ATOM     14  S   UNL     1       2.758  -1.820   3.358  0.00  0.00    -0.088 S 
ATOM     15 BR   UNL     1       3.931  -3.112   6.181  0.00  0.00    -0.043 Br
ENDBRANCH   1  10
BRANCH   1  16
ATOM     16  N   UNL     1       0.713  -0.491   1.192  0.00  0.00    +0.386 N 
ATOM     17  H   UNL     1       1.659  -0.141   1.185  0.00  0.00    -0.085 HD
ATOM     18  H   UNL     1       0.240  -0.165   2.022  0.00  0.00    -0.085 HD
BRANCH  16  20
ATOM     19  C   UNL     1      -0.019   1.526   0.010  0.00  0.00    -0.017 C 
ATOM     20  C   UNL     1       0.002  -0.004   0.002  0.00  0.00    -0.085 C 
ENDBRANCH  16  20
ENDBRANCH   1  16
TORSDOF 4
