REMARK  Name = ZINC09726298
REMARK  9 active torsions:
REMARK  status: ('A' for Active; 'I' for Inactive)
REMARK    1  A    between atoms: C_1  and  C_2
REMARK    2  A    between atoms: C_2  and  N_3
REMARK    3  A    between atoms: C_5  and  C_25
REMARK    4  A    between atoms: C_12  and  S_14
REMARK    5  A    between atoms: S_14  and  N_17
REMARK    6  A    between atoms: N_17  and  C_18
REMARK    7  A    between atoms: N_17  and  C_19
REMARK    8  A    between atoms: N_27  and  C_28
REMARK    9  A    between atoms: C_28  and  C_29
REMARK                            x       y       z     vdW  Elec       q    Type
REMARK                         _______ _______ _______ _____ _____    ______ ____
ROOT
ATOM      1  N   UNL     1      -0.749   3.044   1.275  0.00  0.00    -0.346 N 
ATOM      2  C   UNL     1       0.212   3.695   1.944  0.00  0.00    +0.103 A 
ATOM      3  C   UNL     1       0.265   5.072   2.001  0.00  0.00    +0.100 A 
ATOM      4  C   UNL     1      -0.768   5.853   1.303  0.00  0.00    +0.202 A 
ATOM      5  O   UNL     1      -0.765   7.071   1.323  0.00  0.00    -0.286 OA
ATOM      6  C   UNL     1      -1.808   5.098   0.579  0.00  0.00    +0.048 A 
ATOM      7  C   UNL     1      -1.752   3.694   0.589  0.00  0.00    +0.053 A 
ATOM      8  C   UNL     1      -2.731   2.970  -0.086  0.00  0.00    +0.028 A 
ATOM      9  C   UNL     1      -3.733   3.632  -0.762  0.00  0.00    +0.030 A 
ATOM     10  C   UNL     1      -3.783   5.018  -0.776  0.00  0.00    +0.106 A 
ATOM     11  C   UNL     1      -2.828   5.755  -0.111  0.00  0.00    +0.042 A 
ENDROOT
BRANCH   3  12
ATOM     12  C   UNL     1       1.338   5.749   2.747  0.00  0.00    +0.249 C 
ATOM     13  O   UNL     1       1.375   6.964   2.790  0.00  0.00    -0.270 OA
ATOM     14  N   UNL     1       2.279   5.023   3.382  0.00  0.00    -0.307 N 
ATOM     15  H   UNL     1       2.249   4.054   3.348  0.00  0.00    +0.149 HD
BRANCH  14  16
ATOM     16  C   UNL     1       3.346   5.697   4.125  0.00  0.00    +0.140 C 
BRANCH  16  17
ATOM     17  C   UNL     1       4.260   4.667   4.737  0.00  0.00    -0.027 A 
ATOM     18  C   UNL     1       4.003   4.185   6.008  0.00  0.00    +0.009 A 
ATOM     19  C   UNL     1       4.835   3.236   6.571  0.00  0.00    +0.050 A 
ATOM     20  C   UNL     1       5.936   2.774   5.868  0.00  0.00    +0.166 A 
ATOM     21  C   UNL     1       6.198   3.263   4.591  0.00  0.00    +0.167 A 
ATOM     22  C   UNL     1       5.356   4.210   4.030  0.00  0.00    +0.054 A 
ATOM     23  O   UNL     1       7.325   2.659   4.114  0.00  0.00    -0.453 OA
ATOM     24  C   UNL     1       7.979   2.100   5.269  0.00  0.00    +0.466 C 
ATOM     25  O   UNL     1       6.900   1.863   6.192  0.00  0.00    -0.453 OA
ENDBRANCH  16  17
ENDBRANCH  14  16
ENDBRANCH   3  12
BRANCH  10  26
ATOM     26  S   UNL     1      -5.073   5.840  -1.649  0.00  0.00    +0.061 S 
ATOM     27  O   UNL     1      -6.154   4.922  -1.736  0.00  0.00    -0.153 OA
ATOM     28  O   UNL     1      -5.210   7.125  -1.057  0.00  0.00    -0.153 OA
BRANCH  26  29
ATOM     29  N   UNL     1      -4.537   6.088  -3.197  0.00  0.00    -0.177 NA
ATOM     30  C   UNL     1      -4.781   5.075  -4.227  0.00  0.00    +0.132 C 
BRANCH  29  31
ATOM     31  C   UNL     1      -3.819   7.319  -3.535  0.00  0.00    +0.080 C 
ATOM     32  C   UNL     1      -4.587   8.075  -4.622  0.00  0.00    +0.020 C 
ATOM     33  C   UNL     1      -3.837   9.361  -4.975  0.00  0.00    +0.002 C 
ATOM     34  C   UNL     1      -2.439   9.011  -5.488  0.00  0.00    +0.000 C 
ATOM     35  C   UNL     1      -1.671   8.256  -4.401  0.00  0.00    +0.002 C 
ATOM     36  C   UNL     1      -2.421   6.970  -4.048  0.00  0.00    +0.020 C 
ENDBRANCH  29  31
ENDBRANCH  26  29
ENDBRANCH  10  26
BRANCH   1  38
ATOM     37  C   UNL     1      -0.013   1.086   0.008  0.00  0.00    +0.027 C 
ATOM     38  C   UNL     1      -0.729   1.579   1.267  0.00  0.00    +0.118 C 
ENDBRANCH   1  38
TORSDOF 7
