REMARK  Name = ZINC35891005
REMARK  14 active torsions:
REMARK  status: ('A' for Active; 'I' for Inactive)
REMARK    1  A    between atoms: C_1  and  C_2
REMARK    2  A    between atoms: C_6  and  C_8
REMARK    3  A    between atoms: C_8  and  N_9
REMARK    4  A    between atoms: N_9  and  C_10
REMARK    5  A    between atoms: N_9  and  C_17
REMARK    6  A    between atoms: C_10  and  C_11
REMARK    7  A    between atoms: C_17  and  C_18
REMARK    8  A    between atoms: C_18  and  C_20
REMARK    9  A    between atoms: C_18  and  O_27
REMARK   10  A    between atoms: N_22  and  C_23
REMARK   11  A    between atoms: C_23  and  C_24
REMARK   12  A    between atoms: C_24  and  C_25
REMARK   13  A    between atoms: C_24  and  C_26
REMARK   14  A    between atoms: O_27  and  C_28
REMARK                            x       y       z     vdW  Elec       q    Type
REMARK                         _______ _______ _______ _____ _____    ______ ____
ROOT
ATOM      1  C   UNL     1       2.962  -4.101   4.367  0.00  0.00    +0.242 C 
ENDROOT
BRANCH   1   2
ATOM      2  C   UNL     1       2.974  -5.022   5.559  0.00  0.00    +0.252 C 
ATOM      3  O   UNL     1       3.281  -6.187   5.422  0.00  0.00    -0.272 OA
ATOM      4  N   UNL     1       2.642  -4.551   6.778  0.00  0.00    -0.312 N 
ATOM      5  H   UNL     1       2.397  -3.619   6.887  0.00  0.00    +0.149 HD
BRANCH   4   6
ATOM      6  C   UNL     1       2.653  -5.447   7.937  0.00  0.00    +0.107 C 
BRANCH   6   7
ATOM      7  C   UNL     1       2.241  -4.667   9.188  0.00  0.00    -0.000 C 
ATOM      8  C   UNL     1       2.131  -5.627  10.374  0.00  0.00    +0.009 C 
ATOM      9  C   UNL     1       3.293  -3.599   9.492  0.00  0.00    +0.009 C 
ENDBRANCH   6   7
ENDBRANCH   4   6
ENDBRANCH   1   2
BRANCH   1  10
ATOM     10  C   UNL     1       1.531  -3.631   4.098  0.00  0.00    -0.023 C 
BRANCH  10  11
ATOM     11  N   UNL     1       1.545  -2.581   3.071  0.00  0.00    +0.387 N 
ATOM     12  H   UNL     1       2.201  -1.861   3.335  0.00  0.00    -0.081 HD
BRANCH  11  13
ATOM     13  C   UNL     1       0.202  -1.998   2.949  0.00  0.00    -0.043 C 
BRANCH  13  19
ATOM     14  C   UNL     1      -2.059  -2.014   7.414  0.00  0.00    +0.044 C 
ATOM     15  C   UNL     1      -1.241  -1.301   6.367  0.00  0.00    -0.050 A 
ATOM     16  C   UNL     1      -0.821  -0.002   6.585  0.00  0.00    +0.003 A 
ATOM     17  C   UNL     1      -0.071   0.651   5.625  0.00  0.00    +0.000 A 
ATOM     18  C   UNL     1       0.260   0.005   4.448  0.00  0.00    +0.002 A 
ATOM     19  C   UNL     1      -0.158  -1.294   4.232  0.00  0.00    -0.064 A 
ATOM     20  C   UNL     1      -0.905  -1.949   5.193  0.00  0.00    +0.005 A 
ENDBRANCH  13  19
ENDBRANCH  11  13
BRANCH  11  21
ATOM     21  C   UNL     1       1.946  -3.161   1.782  0.00  0.00    -0.046 C 
BRANCH  21  22
ATOM     22  C   UNL     1       2.003  -2.059   0.723  0.00  0.00    +0.102 C 
ATOM     23  C   UNL     1       2.376  -2.668  -0.646  0.00  0.00    +0.032 C 
ATOM     24  C   UNL     1       3.328  -1.592  -1.237  0.00  0.00    +0.030 C 
ATOM     25  C   UNL     1       4.032  -1.086   0.047  0.00  0.00    +0.160 C 
ATOM     26  O   UNL     1       3.017  -1.107   1.065  0.00  0.00    -0.378 OA
ENDBRANCH  21  22
ENDBRANCH  11  21
ENDBRANCH  10  11
ENDBRANCH   1  10
BRANCH   1  27
ATOM     27  O   UNL     1       3.458  -4.797   3.222  0.00  0.00    -0.481 OA
BRANCH  27  28
ATOM     28  C   UNL     1       4.807  -4.836   3.059  0.00  0.00    +0.124 A 
ATOM     29  C   UNL     1       5.352  -5.390   1.910  0.00  0.00    +0.048 A 
ATOM     30  C   UNL     1       6.723  -5.430   1.745  0.00  0.00    +0.045 A 
ATOM     31  C   UNL     1       7.555  -4.916   2.725  0.00  0.00    +0.159 A 
ATOM     32  C   UNL     1       7.013  -4.361   3.874  0.00  0.00    +0.162 A 
ATOM     33  C   UNL     1       5.639  -4.315   4.038  0.00  0.00    +0.087 A 
ATOM     34  F   UNL     1       7.825  -3.860   4.831  0.00  0.00    -0.202 F 
ATOM     35  F   UNL     1       8.895  -4.955   2.562  0.00  0.00    -0.202 F 
ENDBRANCH  27  28
ENDBRANCH   1  27
TORSDOF 11
