REMARK  Name = ZINC49458839
REMARK  8 active torsions:
REMARK  status: ('A' for Active; 'I' for Inactive)
REMARK    1  A    between atoms: C_1  and  C_2
REMARK    2  A    between atoms: C_2  and  C_3
REMARK    3  A    between atoms: C_3  and  C_5
REMARK    4  A    between atoms: C_3  and  N_6
REMARK    5  A    between atoms: C_7  and  C_9
REMARK    6  A    between atoms: C_9  and  C_11
REMARK    7  A    between atoms: C_9  and  N_12
REMARK    8  A    between atoms: N_15  and  C_16
REMARK                            x       y       z     vdW  Elec       q    Type
REMARK                         _______ _______ _______ _____ _____    ______ ____
ROOT
ATOM      1  N   UNL     1       4.791   0.565  -3.671  0.00  0.00    -0.288 N 
ATOM      2  C   UNL     1       5.849   1.357  -3.935  0.00  0.00    +0.304 C 
ATOM      3  O   UNL     1       6.360   2.006  -3.042  0.00  0.00    -0.252 OA
ATOM      4  N   UNL     1       6.340   1.431  -5.188  0.00  0.00    -0.268 N 
ATOM      5  H   UNL     1       4.383   0.048  -4.383  0.00  0.00    +0.151 HD
ATOM      6  H   UNL     1       5.985   0.854  -5.882  0.00  0.00    +0.156 HD
ENDROOT
BRANCH   4   7
ATOM      7  C   UNL     1       7.361   2.340  -5.487  0.00  0.00    +0.049 A 
ATOM      8  C   UNL     1       7.524   3.482  -4.714  0.00  0.00    +0.024 A 
ATOM      9  C   UNL     1       8.533   4.377  -5.012  0.00  0.00    +0.002 A 
ATOM     10  C   UNL     1       9.380   4.138  -6.078  0.00  0.00    +0.001 A 
ATOM     11  C   UNL     1       9.221   3.002  -6.850  0.00  0.00    +0.017 A 
ATOM     12  C   UNL     1       8.217   2.099  -6.555  0.00  0.00    +0.039 A 
ATOM     13 BR   UNL     1       8.003   0.543  -7.607  0.00  0.00    -0.048 Br
ENDBRANCH   4   7
BRANCH   1  14
ATOM     14  C   UNL     1       4.257   0.485  -2.309  0.00  0.00    +0.157 C 
ATOM     15  C   UNL     1       5.048  -0.554  -1.511  0.00  0.00    +0.038 C 
BRANCH  14  17
ATOM     16  N   UNL     1       2.104  -0.057  -1.218  0.00  0.00    -0.311 N 
ATOM     17  C   UNL     1       2.807   0.081  -2.360  0.00  0.00    +0.233 C 
ATOM     18  O   UNL     1       2.271  -0.121  -3.430  0.00  0.00    -0.274 OA
ATOM     19  H   UNL     1       2.533   0.104  -0.363  0.00  0.00    +0.149 HD
BRANCH  16  20
ATOM     20  C   UNL     1       0.694  -0.450  -1.269  0.00  0.00    +0.070 C 
ATOM     21  C   UNL     1       0.592  -1.975  -1.343  0.00  0.00    +0.028 C 
BRANCH  20  23
ATOM     22  C   UNL     1      -0.026   1.578   0.000  0.00  0.00    +0.005 C 
ATOM     23  C   UNL     1      -0.020   0.048  -0.010  0.00  0.00    +0.018 C 
ENDBRANCH  20  23
ENDBRANCH  16  20
ENDBRANCH  14  17
ENDBRANCH   1  14
TORSDOF 5
