REMARK  Name = ZINC39781032
REMARK  4 active torsions:
REMARK  status: ('A' for Active; 'I' for Inactive)
REMARK    1  A    between atoms: C_1  and  C_2
REMARK    2  A    between atoms: C_7  and  C_8
REMARK    3  A    between atoms: C_10  and  C_14
REMARK    4  A    between atoms: C_17  and  C_19
REMARK                            x       y       z     vdW  Elec       q    Type
REMARK                         _______ _______ _______ _____ _____    ______ ____
ROOT
ATOM      1  C   UNL     1       1.495   2.576   4.185  0.00  0.00    +0.100 C 
ATOM      2  N   UNL     1       1.954   3.427   3.325  0.00  0.00    -0.153 NA
ATOM      3  N   UNL     1       3.071   4.109   3.796  0.00  0.00    -0.153 NA
ATOM      4  C   UNL     1       3.405   3.736   5.001  0.00  0.00    +0.076 C 
ATOM      5  C   UNL     1       2.393   2.680   5.401  0.00  0.00    +0.115 C 
ENDROOT
BRANCH   4   6
ATOM      6  C   UNL     1       4.527   4.240   5.808  0.00  0.00    -0.001 A 
ATOM      7  C   UNL     1       4.751   3.721   7.098  0.00  0.00    +0.010 A 
ATOM      8  C   UNL     1       5.779   4.170   7.860  0.00  0.00    +0.009 A 
ATOM      9  C   UNL     1       6.639   5.169   7.365  0.00  0.00    -0.018 A 
ATOM     10  C   UNL     1       7.710   5.649   8.136  0.00  0.00    +0.008 A 
ATOM     11  C   UNL     1       8.527   6.614   7.631  0.00  0.00    +0.001 A 
ATOM     12  C   UNL     1       8.317   7.138   6.357  0.00  0.00    +0.001 A 
ATOM     13  C   UNL     1       7.290   6.698   5.580  0.00  0.00    +0.008 A 
ATOM     14  C   UNL     1       6.426   5.701   6.067  0.00  0.00    -0.017 A 
ATOM     15  C   UNL     1       5.362   5.221   5.290  0.00  0.00    +0.018 A 
ENDBRANCH   4   6
BRANCH   1  18
ATOM     16  C   UNL     1       0.242   0.025   2.481  0.00  0.00    +0.156 C 
ATOM     17  N   UNL     1       0.136   1.312   2.600  0.00  0.00    -0.226 NA
ATOM     18  C   UNL     1       0.304   1.669   4.014  0.00  0.00    +0.313 C 
ATOM     19  O   UNL     1       0.520   0.427   4.700  0.00  0.00    -0.240 OA
ATOM     20  N   UNL     1       0.467  -0.574   3.696  0.00  0.00    -0.245 N 
ATOM     21  H   UNL     1       0.575  -1.527   3.843  0.00  0.00    +0.196 HD
BRANCH  16  28
ATOM     22  C   UNL     1      -0.502   1.454   0.079  0.00  0.00    +0.044 C 
ATOM     23  C   UNL     1      -0.230  -0.027   0.035  0.00  0.00    -0.040 A 
ATOM     24  C   UNL     1      -0.329  -0.714  -1.158  0.00  0.00    +0.004 A 
ATOM     25  C   UNL     1      -0.079  -2.073  -1.200  0.00  0.00    +0.000 A 
ATOM     26  C   UNL     1       0.271  -2.754  -0.048  0.00  0.00    +0.001 A 
ATOM     27  C   UNL     1       0.374  -2.079   1.151  0.00  0.00    +0.012 A 
ATOM     28  C   UNL     1       0.128  -0.707   1.199  0.00  0.00    +0.022 A 
ENDBRANCH  16  28
ENDBRANCH   1  18
TORSDOF 3
