REMARK  Name = ZINC66871820
REMARK  8 active torsions:
REMARK  status: ('A' for Active; 'I' for Inactive)
REMARK    1  A    between atoms: C_1  and  C_2
REMARK    2  A    between atoms: C_2  and  C_4
REMARK    3  A    between atoms: C_2  and  O_10
REMARK    4  A    between atoms: O_10  and  C_11
REMARK    5  A    between atoms: C_11  and  C_13
REMARK    6  A    between atoms: C_13  and  N_14
REMARK    7  A    between atoms: C_17  and  C_21
REMARK    8  A    between atoms: C_17  and  C_22
REMARK                            x       y       z     vdW  Elec       q    Type
REMARK                         _______ _______ _______ _____ _____    ______ ____
ROOT
ATOM      1  C   UNL     1       0.618  -1.196   3.521  0.00  0.00    +0.238 C 
ENDROOT
BRANCH   1   2
ATOM      2  N   UNL     1      -0.391  -1.354   4.571  0.00  0.00    -0.213 N 
ATOM      3  C   UNL     1      -0.741  -0.382   5.436  0.00  0.00    +0.247 C 
ATOM      4  O   UNL     1      -0.298   0.745   5.490  0.00  0.00    -0.273 OA
ATOM      5  C   UNL     1      -1.806  -0.991   6.327  0.00  0.00    +0.113 C 
ATOM      6  N   UNL     1      -1.944  -2.365   5.812  0.00  0.00    -0.285 N 
ATOM      7  C   UNL     1      -1.082  -2.479   4.786  0.00  0.00    +0.310 C 
ATOM      8  O   UNL     1      -0.944  -3.493   4.130  0.00  0.00    -0.252 OA
ATOM      9  C   UNL     1      -1.342  -1.007   7.785  0.00  0.00    +0.042 C 
ATOM     10  H   UNL     1      -2.543  -3.051   6.146  0.00  0.00    +0.151 HD
BRANCH   5  11
ATOM     11  C   UNL     1      -3.125  -0.229   6.189  0.00  0.00    +0.021 C 
ATOM     12  C   UNL     1      -3.540   0.681   7.347  0.00  0.00    +0.006 C 
ATOM     13  C   UNL     1      -4.277  -0.638   7.108  0.00  0.00    +0.006 C 
ENDBRANCH   5  11
ENDBRANCH   1   2
BRANCH   1  14
ATOM     14  C   UNL     1      -0.042  -0.697   2.261  0.00  0.00    +0.325 C 
ATOM     15  O   UNL     1      -1.233  -0.493   2.243  0.00  0.00    -0.249 OA
BRANCH  14  16
ATOM     16  O   UNL     1       0.693  -0.477   1.160  0.00  0.00    -0.460 OA
BRANCH  16  18
ATOM     17  C   UNL     1      -0.019   1.526   0.010  0.00  0.00    +0.052 C 
ATOM     18  C   UNL     1       0.002  -0.004   0.002  0.00  0.00    +0.176 C 
BRANCH  18  19
ATOM     19  C   UNL     1       0.718  -0.497  -1.257  0.00  0.00    +0.030 C 
ATOM     20  C   UNL     1      -0.022   0.009  -2.496  0.00  0.00    +0.007 C 
ATOM     21  C   UNL     1       0.694  -0.484  -3.755  0.00  0.00    +0.000 C 
ATOM     22  C   UNL     1       0.715  -2.014  -3.764  0.00  0.00    +0.000 C 
ATOM     23  C   UNL     1       1.455  -2.521  -2.524  0.00  0.00    +0.000 C 
ATOM     24  C   UNL     1       0.739  -2.027  -1.265  0.00  0.00    +0.007 C 
ENDBRANCH  18  19
ENDBRANCH  16  18
ENDBRANCH  14  16
ENDBRANCH   1  14
TORSDOF 6
