REMARK  Name = ZINC13033999
REMARK  17 active torsions:
REMARK  status: ('A' for Active; 'I' for Inactive)
REMARK    1  A    between atoms: C_1  and  C_2
REMARK    2  A    between atoms: C_2  and  C_3
REMARK    3  A    between atoms: C_10  and  C_15
REMARK    4  A    between atoms: C_15  and  N_75
REMARK    5  A    between atoms: C_16  and  C_17
REMARK    6  A    between atoms: C_16  and  N_75
REMARK    7  A    between atoms: C_20  and  O_23
REMARK    8  A    between atoms: O_23  and  C_24
REMARK    9  A    between atoms: C_25  and  C_27
REMARK   10  A    between atoms: C_25  and  C_29
REMARK   11  A    between atoms: C_25  and  N_75
REMARK   12  A    between atoms: C_27  and  C_28
REMARK   13  A    between atoms: N_33  and  C_34
REMARK   14  A    between atoms: C_34  and  C_35
REMARK   15  A    between atoms: C_34  and  C_36
REMARK   16  A    between atoms: C_34  and  C_37
REMARK   17  A    between atoms: C_37  and  C_38
REMARK                            x       y       z     vdW  Elec       q    Type
REMARK                         _______ _______ _______ _____ _____    ______ ____
ROOT
ATOM      1  N   UNL     1       0.765  -1.048   4.114  0.00  0.00    +0.392 N 
ATOM      2  H   UNL     1       0.034  -1.748   3.940  0.00  0.00    -0.080 HD
ENDROOT
BRANCH   1   3
ATOM      3  C   UNL     1       0.414  -0.279   5.327  0.00  0.00    -0.036 C 
BRANCH   3  11
ATOM      4  C   UNL     1      -5.598  -1.675   5.768  0.00  0.00    -0.047 A 
ATOM      5  C   UNL     1      -6.072  -0.384   5.579  0.00  0.00    +0.005 A 
ATOM      6  C   UNL     1      -5.199   0.664   5.382  0.00  0.00    +0.026 A 
ATOM      7  C   UNL     1      -3.828   0.427   5.370  0.00  0.00    +0.049 A 
ATOM      8  C   UNL     1      -3.351  -0.883   5.561  0.00  0.00    -0.001 A 
ATOM      9  C   UNL     1      -4.256  -1.931   5.760  0.00  0.00    +0.013 A 
ATOM     10  C   UNL     1      -1.907  -1.123   5.541  0.00  0.00    +0.017 A 
ATOM     11  C   UNL     1      -1.078  -0.068   5.348  0.00  0.00    +0.001 A 
ATOM     12  C   UNL     1      -1.607   1.227   5.161  0.00  0.00    +0.251 A 
ATOM     13  O   UNL     1      -0.844   2.161   4.985  0.00  0.00    -0.268 OA
ATOM     14  N   UNL     1      -2.932   1.456   5.173  0.00  0.00    -0.322 N 
ATOM     15  H   UNL     1      -3.262   2.359   5.042  0.00  0.00    +0.169 HD
BRANCH   4  17
ATOM     16  C   UNL     1      -6.851  -2.960   7.478  0.00  0.00    +0.009 C 
ATOM     17  C   UNL     1      -6.572  -2.804   5.982  0.00  0.00    +0.032 C 
ENDBRANCH   4  17
ENDBRANCH   3  11
ENDBRANCH   1   3
BRANCH   1  18
ATOM     18  C   UNL     1       2.056  -1.740   4.311  0.00  0.00    -0.042 C 
BRANCH  18  19
ATOM     19  C   UNL     1       2.213  -2.786   3.237  0.00  0.00    -0.064 A 
ATOM     20  C   UNL     1       1.517  -3.978   3.328  0.00  0.00    +0.005 A 
ATOM     21  C   UNL     1       1.655  -4.936   2.342  0.00  0.00    +0.046 A 
ATOM     22  C   UNL     1       2.500  -4.706   1.266  0.00  0.00    +0.120 A 
ATOM     23  C   UNL     1       3.201  -3.512   1.181  0.00  0.00    +0.046 A 
ATOM     24  C   UNL     1       3.056  -2.555   2.166  0.00  0.00    +0.005 A 
BRANCH  22  25
ATOM     25  O   UNL     1       2.641  -5.649   0.298  0.00  0.00    -0.495 OA
ATOM     26  C   UNL     1       1.889  -6.854   0.451  0.00  0.00    +0.277 C 
ENDBRANCH  22  25
ENDBRANCH  18  19
ENDBRANCH   1  18
BRANCH   1  27
ATOM     27  C   UNL     1       0.850  -0.143   2.949  0.00  0.00    +0.003 C 
BRANCH  27  28
ATOM     28  C   UNL     1      -0.539   0.075   2.407  0.00  0.00    +0.139 A 
ATOM     29  N   UNL     1      -1.643   0.193   3.105  0.00  0.00    -0.115 NA
ATOM     30  N   UNL     1      -2.619   0.363   2.282  0.00  0.00    -0.023 NA
ATOM     31  N   UNL     1      -2.166   0.362   1.076  0.00  0.00    -0.043 NA
ATOM     32  N   UNL     1      -0.888   0.190   1.112  0.00  0.00    -0.225 N 
BRANCH  32  33
ATOM     33  C   UNL     1       0.014   0.127  -0.041  0.00  0.00    +0.061 C 
ATOM     34  C   UNL     1       0.615  -1.277  -0.141  0.00  0.00    +0.036 C 
ATOM     35  C   UNL     1       1.137   1.151   0.133  0.00  0.00    +0.036 C 
BRANCH  33  36
ATOM     36  C   UNL     1      -0.769   0.439  -1.318  0.00  0.00    +0.026 C 
ATOM     37  C   UNL     1       0.173   0.372  -2.522  0.00  0.00    +0.006 C 
ENDBRANCH  33  36
ENDBRANCH  32  33
ENDBRANCH  27  28
BRANCH  27  38
ATOM     38  C   UNL     1       1.454   1.202   3.360  0.00  0.00    -0.011 C 
ATOM     39  C   UNL     1       2.857   0.979   3.926  0.00  0.00    +0.002 C 
ENDBRANCH  27  38
ENDBRANCH   1  27
TORSDOF 11
