REMARK  Name = ZINC18273577
REMARK  6 active torsions:
REMARK  status: ('A' for Active; 'I' for Inactive)
REMARK    1  A    between atoms: C_6  and  O_7
REMARK    2  A    between atoms: O_7  and  C_8
REMARK    3  A    between atoms: C_8  and  C_9
REMARK    4  A    between atoms: C_9  and  O_11
REMARK    5  A    between atoms: O_11  and  C_12
REMARK    6  A    between atoms: C_12  and  C_13
REMARK                            x       y       z     vdW  Elec       q    Type
REMARK                         _______ _______ _______ _____ _____    ______ ____
ROOT
ATOM      1  C   UNL     1       2.757   5.755  -1.217  0.00  0.00    +0.170 A 
ATOM      2  N   UNL     1       1.459   5.529  -1.272  0.00  0.00    -0.214 NA
ATOM      3  C   UNL     1       0.876   4.426  -0.807  0.00  0.00    +0.128 A 
ATOM      4  C   UNL     1       1.747   3.462  -0.223  0.00  0.00    +0.051 A 
ATOM      5  C   UNL     1       1.377   2.182   0.357  0.00  0.00    -0.025 A 
ATOM      6  C   UNL     1       2.383   1.428   0.856  0.00  0.00    -0.004 A 
ATOM      7  S   UNL     1       3.859   2.377   0.582  0.00  0.00    -0.073 S 
ATOM      8  C   UNL     1       3.129   3.779  -0.200  0.00  0.00    +0.114 A 
ATOM      9  N   UNL     1       3.623   4.901  -0.686  0.00  0.00    -0.221 NA
ATOM     10  C   UNL     1       2.273   0.080   1.500  0.00  0.00    +0.043 C 
ATOM     11  C   UNL     1       0.800  -0.174   1.850  0.00  0.00    +0.005 C 
ATOM     12  C   UNL     1      -0.060   0.172   0.631  0.00  0.00    +0.005 C 
ATOM     13  C   UNL     1      -0.065   1.685   0.412  0.00  0.00    +0.037 C 
ATOM     14  N   UNL     1      -0.491   4.229  -0.886  0.00  0.00    -0.343 N 
ATOM     15  H   UNL     1      -1.025   4.771  -1.487  0.00  0.00    +0.144 HD
ATOM     16  H   UNL     1      -0.915   3.547  -0.342  0.00  0.00    +0.144 HD
ENDROOT
BRANCH   1  17
ATOM     17  C   UNL     1       3.283   7.049  -1.783  0.00  0.00    +0.308 C 
BRANCH  17  18
ATOM     18  O   UNL     1       3.609   6.865  -3.186  0.00  0.00    -0.454 OA
BRANCH  18  19
ATOM     19  C   UNL     1       4.094   7.931  -3.843  0.00  0.00    +0.346 C 
ATOM     20  O   UNL     1       4.241   8.982  -3.265  0.00  0.00    -0.247 OA
BRANCH  19  21
ATOM     21  C   UNL     1       4.455   7.816  -5.302  0.00  0.00    +0.349 C 
BRANCH  21  22
ATOM     22  O   UNL     1       4.945   9.073  -5.772  0.00  0.00    -0.481 OA
BRANCH  22  28
ATOM     23  C   UNL     1       5.220   8.020  -7.887  0.00  0.00    +0.047 A 
ATOM     24  C   UNL     1       5.593   8.093  -9.215  0.00  0.00    +0.019 A 
ATOM     25  C   UNL     1       6.076   9.281  -9.734  0.00  0.00    +0.018 A 
ATOM     26  C   UNL     1       6.180  10.400  -8.926  0.00  0.00    +0.019 A 
ATOM     27  C   UNL     1       5.802  10.332  -7.599  0.00  0.00    +0.047 A 
ATOM     28  C   UNL     1       5.318   9.142  -7.077  0.00  0.00    +0.121 A 
ATOM     29 BR   UNL     1       6.593   9.377 -11.550  0.00  0.00    -0.050 Br
ENDBRANCH  22  28
ENDBRANCH  21  22
ENDBRANCH  19  21
ENDBRANCH  18  19
ENDBRANCH  17  18
ENDBRANCH   1  17
TORSDOF 6
