REMARK  Name = ZINC19594756
REMARK  5 active torsions:
REMARK  status: ('A' for Active; 'I' for Inactive)
REMARK    1  A    between atoms: C_1  and  N_2
REMARK    2  A    between atoms: N_2  and  C_3
REMARK    3  A    between atoms: N_13  and  C_14
REMARK    4  A    between atoms: C_18  and  C_19
REMARK    5  A    between atoms: C_24  and  C_25
REMARK                            x       y       z     vdW  Elec       q    Type
REMARK                         _______ _______ _______ _____ _____    ______ ____
ROOT
ATOM      1  C   UNL     1       0.591  -0.671  -1.029  0.00  0.00    +0.030 A 
ATOM      2  C   UNL     1       1.184   0.049  -2.080  0.00  0.00    +0.024 A 
ATOM      3  C   UNL     1       1.774  -0.606  -3.114  0.00  0.00    +0.014 A 
ATOM      4  C   UNL     1       1.794  -2.013  -3.134  0.00  0.00    +0.026 A 
ATOM      5  C   UNL     1       1.201  -2.745  -2.081  0.00  0.00    +0.138 A 
ATOM      6  C   UNL     1       0.608  -2.067  -1.032  0.00  0.00    +0.069 A 
ATOM      7  O   UNL     1       1.213  -4.095  -2.091  0.00  0.00    -0.455 OA
ATOM      8  C   UNL     1       1.785  -4.792  -3.096  0.00  0.00    +0.138 A 
ATOM      9  C   UNL     1       1.777  -6.174  -3.071  0.00  0.00    +0.072 A 
ATOM     10  C   UNL     1       2.370  -6.891  -4.112  0.00  0.00    +0.039 A 
ATOM     11  N   UNL     1       2.361  -8.252  -4.087  0.00  0.00    -0.387 N 
ATOM     12  C   UNL     1       2.982  -9.009  -5.178  0.00  0.00    +0.139 C 
ATOM     13  C   UNL     1       2.975  -6.215  -5.186  0.00  0.00    +0.026 A 
ATOM     14  C   UNL     1       2.989  -4.857  -5.222  0.00  0.00    +0.014 A 
ATOM     15  C   UNL     1       2.396  -4.121  -4.180  0.00  0.00    +0.026 A 
ATOM     16  C   UNL     1       2.405  -2.706  -4.206  0.00  0.00    +0.004 A 
ATOM     17  H   UNL     1       1.944  -8.721  -3.348  0.00  0.00    +0.159 HD
ENDROOT
BRANCH  16  18
ATOM     18  C   UNL     1       3.033  -1.973  -5.322  0.00  0.00    -0.002 A 
ATOM     19  C   UNL     1       2.243  -1.354  -6.289  0.00  0.00    +0.009 A 
ATOM     20  C   UNL     1       2.837  -0.669  -7.331  0.00  0.00    +0.001 A 
ATOM     21  C   UNL     1       4.216  -0.592  -7.425  0.00  0.00    +0.001 A 
ATOM     22  C   UNL     1       5.017  -1.199  -6.477  0.00  0.00    +0.016 A 
ATOM     23  C   UNL     1       4.438  -1.889  -5.414  0.00  0.00    +0.071 A 
BRANCH  23  24
ATOM     24  C   UNL     1       5.289  -2.534  -4.395  0.00  0.00    +0.387 C 
ATOM     25  O   UNL     1       6.507  -2.459  -4.479  0.00  0.00    -0.241 OA
ATOM     26  O   UNL     1       4.777  -3.144  -3.467  0.00  0.00    -0.241 OA
ENDBRANCH  23  24
ENDBRANCH  16  18
BRANCH   1  28
ATOM     27  C   UNL     1      -0.018   1.461   0.010  0.00  0.00    +0.125 C 
ATOM     28  N   UNL     1       0.002  -0.004   0.002  0.00  0.00    -0.347 N 
ATOM     29  H   UNL     1      -0.404  -0.499   0.731  0.00  0.00    +0.146 HD
ENDBRANCH   1  28
TORSDOF 3
