REMARK  Name = ZINC65495302
REMARK  11 active torsions:
REMARK  status: ('A' for Active; 'I' for Inactive)
REMARK    1  A    between atoms: C_1  and  C_2
REMARK    2  A    between atoms: C_4  and  S_23
REMARK    3  A    between atoms: C_7  and  N_8
REMARK    4  A    between atoms: N_11  and  C_12
REMARK    5  A    between atoms: C_12  and  C_13
REMARK    6  A    between atoms: C_13  and  C_15
REMARK    7  A    between atoms: C_13  and  N_20
REMARK    8  A    between atoms: N_20  and  C_21
REMARK    9  A    between atoms: N_20  and  C_22
REMARK   10  A    between atoms: S_23  and  C_24
REMARK   11  A    between atoms: C_26  and  C_29
REMARK                            x       y       z     vdW  Elec       q    Type
REMARK                         _______ _______ _______ _____ _____    ______ ____
ROOT
ATOM      1  N   UNL     1       0.011   0.020   2.413  0.00  0.00    -0.269 N 
ATOM      2  C   UNL     1       0.178  -0.654   3.568  0.00  0.00    +0.304 C 
ATOM      3  O   UNL     1       0.400  -1.849   3.547  0.00  0.00    -0.253 OA
ATOM      4  N   UNL     1       0.098  -0.004   4.746  0.00  0.00    -0.300 N 
ATOM      5  H   UNL     1      -0.116   0.982   2.427  0.00  0.00    +0.156 HD
ATOM      6  H   UNL     1      -0.080   0.949   4.762  0.00  0.00    +0.150 HD
ENDROOT
BRANCH   1  13
ATOM      7  C   UNL     1      -1.400   1.158   0.221  0.00  0.00    +0.046 C 
ATOM      8  C   UNL     1      -0.656  -0.147   0.097  0.00  0.00    -0.028 A 
ATOM      9  C   UNL     1      -0.643  -0.822  -1.107  0.00  0.00    +0.020 A 
ATOM     10  C   UNL     1       0.042  -2.024  -1.222  0.00  0.00    +0.015 A 
ATOM     11  C   UNL     1       0.715  -2.548  -0.125  0.00  0.00    +0.017 A 
ATOM     12  C   UNL     1       0.701  -1.873   1.079  0.00  0.00    +0.025 A 
ATOM     13  C   UNL     1       0.020  -0.668   1.192  0.00  0.00    +0.038 A 
BRANCH  10  14
ATOM     14  S   UNL     1       0.059  -2.886  -2.759  0.00  0.00    -0.063 S 
BRANCH  14  15
ATOM     15  C   UNL     1       1.385  -2.143  -3.650  0.00  0.00    +0.139 A 
ATOM     16  N   UNL     1       1.758  -2.361  -4.894  0.00  0.00    -0.238 NA
ATOM     17  C   UNL     1       2.784  -1.716  -5.420  0.00  0.00    +0.047 A 
ATOM     18  C   UNL     1       3.427  -0.828  -4.625  0.00  0.00    +0.070 A 
ATOM     19  S   UNL     1       2.478  -0.978  -3.120  0.00  0.00    -0.069 S 
ATOM     20  C   UNL     1       3.219  -1.958  -6.843  0.00  0.00    +0.066 C 
ENDBRANCH  14  15
ENDBRANCH  10  14
ENDBRANCH   1  13
BRANCH   4  21
ATOM     21  C   UNL     1       0.279  -0.737   6.001  0.00  0.00    +0.095 C 
BRANCH  21  22
ATOM     22  C   UNL     1       0.265   0.246   7.173  0.00  0.00    -0.014 C 
BRANCH  22  23
ATOM     23  C   UNL     1       1.403   1.222   7.023  0.00  0.00    -0.022 A 
ATOM     24  C   UNL     1       1.381   2.495   6.558  0.00  0.00    +0.009 A 
ATOM     25  C   UNL     1       2.562   3.212   6.510  0.00  0.00    +0.008 A 
ATOM     26  C   UNL     1       3.707   2.622   6.930  0.00  0.00    +0.045 A 
ATOM     27  S   UNL     1       3.130   1.004   7.420  0.00  0.00    -0.103 S 
ENDBRANCH  22  23
BRANCH  22  28
ATOM     28  N   UNL     1       0.415  -0.492   8.434  0.00  0.00    +0.382 N 
ATOM     29  C   UNL     1       0.289   0.438   9.564  0.00  0.00    -0.096 C 
ATOM     30  C   UNL     1      -0.629  -1.521   8.527  0.00  0.00    -0.096 C 
ATOM     31  H   UNL     1       1.323  -0.931   8.460  0.00  0.00    -0.082 HD
ENDBRANCH  22  28
ENDBRANCH  21  22
ENDBRANCH   4  21
TORSDOF 7
