REMARK  Name = ZINC12339661
REMARK  12 active torsions:
REMARK  status: ('A' for Active; 'I' for Inactive)
REMARK    1  A    between atoms: C_1  and  C_2
REMARK    2  A    between atoms: C_3  and  C_27
REMARK    3  A    between atoms: C_4  and  C_26
REMARK    4  A    between atoms: C_5  and  C_10
REMARK    5  A    between atoms: C_6  and  C_9
REMARK    6  A    between atoms: C_7  and  C_8
REMARK    7  A    between atoms: C_10  and  S_11
REMARK    8  A    between atoms: S_11  and  C_12
REMARK    9  A    between atoms: C_12  and  C_13
REMARK   10  A    between atoms: N_15  and  N_16
REMARK   11  A    between atoms: C_17  and  C_18
REMARK   12  A    between atoms: C_19  and  C_20
REMARK                            x       y       z     vdW  Elec       q    Type
REMARK                         _______ _______ _______ _____ _____    ______ ____
ROOT
ATOM      1  C   UNL     1       2.383   8.293   0.537  0.00  0.00    +0.166 C 
ENDROOT
BRANCH   1   2
ATOM      2  C   UNL     1       1.089   7.522   0.538  0.00  0.00    +0.242 C 
ATOM      3  O   UNL     1       0.039   8.099   0.729  0.00  0.00    -0.273 OA
ATOM      4  N   UNL     1       1.098   6.190   0.329  0.00  0.00    -0.206 N 
ATOM      5  H   UNL     1       1.937   5.729   0.176  0.00  0.00    +0.177 HD
BRANCH   4   6
ATOM      6  N   UNL     1      -0.106   5.473   0.330  0.00  0.00    -0.188 NA
ATOM      7  C   UNL     1      -0.097   4.187   0.127  0.00  0.00    +0.130 C 
BRANCH   7   8
ATOM      8  C   UNL     1      -1.315   3.461   0.129  0.00  0.00    +0.022 C 
ATOM      9  C   UNL     1      -1.321   2.151  -0.194  0.00  0.00    +0.009 C 
BRANCH   9  10
ATOM     10  C   UNL     1      -0.104   1.522  -0.733  0.00  0.00    -0.025 A 
ATOM     11  C   UNL     1       0.744   2.241  -1.581  0.00  0.00    +0.008 A 
ATOM     12  C   UNL     1       1.879   1.643  -2.085  0.00  0.00    +0.001 A 
ATOM     13  C   UNL     1       2.180   0.333  -1.755  0.00  0.00    +0.000 A 
ATOM     14  C   UNL     1       1.345  -0.386  -0.917  0.00  0.00    +0.001 A 
ATOM     15  C   UNL     1       0.207   0.198  -0.404  0.00  0.00    +0.008 A 
ENDBRANCH   9  10
ENDBRANCH   7   8
ENDBRANCH   4   6
ENDBRANCH   1   2
BRANCH   1  16
ATOM     16  S   UNL     1       2.042  10.048   0.845  0.00  0.00    -0.147 S 
BRANCH  16  17
ATOM     17  C   UNL     1       3.680  10.826   0.811  0.00  0.00    +0.105 C 
BRANCH  17  22
ATOM     18  C   UNL     1       3.136  16.502   1.755  0.00  0.00    +0.044 C 
ATOM     19  C   UNL     1       3.278  15.022   1.509  0.00  0.00    -0.044 A 
ATOM     20  C   UNL     1       3.454  14.158   2.574  0.00  0.00    -0.044 A 
ATOM     21  C   UNL     1       3.585  12.800   2.348  0.00  0.00    -0.043 A 
ATOM     22  C   UNL     1       3.538  12.306   1.058  0.00  0.00    -0.031 A 
ATOM     23  C   UNL     1       3.367  13.171  -0.008  0.00  0.00    -0.043 A 
ATOM     24  C   UNL     1       3.232  14.528   0.218  0.00  0.00    -0.044 A 
ATOM     25  C   UNL     1       3.040  15.470  -0.942  0.00  0.00    +0.044 C 
ATOM     26  C   UNL     1       3.322  12.633  -1.415  0.00  0.00    +0.044 C 
ATOM     27  C   UNL     1       3.777  11.858   3.509  0.00  0.00    +0.044 C 
ATOM     28  C   UNL     1       3.505  14.696   3.980  0.00  0.00    +0.044 C 
ENDBRANCH  17  22
ENDBRANCH  16  17
ENDBRANCH   1  16
TORSDOF 7
