REMARK  Name = ZINC01869638
REMARK  12 active torsions:
REMARK  status: ('A' for Active; 'I' for Inactive)
REMARK    1  A    between atoms: C_1  and  C_2
REMARK    2  A    between atoms: C_2  and  O_3
REMARK    3  A    between atoms: O_3  and  C_4
REMARK    4  A    between atoms: C_4  and  C_6
REMARK    5  A    between atoms: C_10  and  N_11
REMARK    6  A    between atoms: C_12  and  C_14
REMARK    7  A    between atoms: C_18  and  C_27
REMARK    8  A    between atoms: C_20  and  C_23
REMARK    9  A    between atoms: C_33  and  C_37
REMARK   10  A    between atoms: C_37  and  C_38
REMARK   11  A    between atoms: C_37  and  C_39
REMARK   12  A    between atoms: C_37  and  C_40
REMARK                            x       y       z     vdW  Elec       q    Type
REMARK                         _______ _______ _______ _____ _____    ______ ____
ROOT
ATOM      1  N   UNL     1      -2.572  -3.439   0.011  0.00  0.00    -0.274 N 
ATOM      2  C   UNL     1      -1.224  -3.443  -0.003  0.00  0.00    +0.269 C 
ATOM      3  O   UNL     1      -0.620  -4.498  -0.014  0.00  0.00    -0.268 OA
ATOM      4  H   UNL     1      -3.055  -2.598   0.020  0.00  0.00    +0.156 HD
ENDROOT
BRANCH   1   9
ATOM      5  C   UNL     1      -4.643  -4.836   0.025  0.00  0.00    +0.091 A 
ATOM      6  C   UNL     1      -5.121  -6.209   0.022  0.00  0.00    -0.021 A 
ATOM      7  C   UNL     1      -4.157  -7.154   0.008  0.00  0.00    -0.004 A 
ATOM      8  S   UNL     1      -2.635  -6.250  -0.010  0.00  0.00    -0.077 S 
ATOM      9  C   UNL     1      -3.268  -4.637   0.012  0.00  0.00    +0.087 A 
ATOM     10  C   UNL     1      -4.349  -8.640   0.003  0.00  0.00    +0.046 C 
ATOM     11  C   UNL     1      -5.803  -8.941   0.395  0.00  0.00    -0.000 C 
ATOM     12  C   UNL     1      -6.731  -8.044  -0.428  0.00  0.00    +0.009 C 
ATOM     13  C   UNL     1      -6.596  -6.592   0.035  0.00  0.00    +0.037 C 
BRANCH  11  14
ATOM     14  C   UNL     1      -6.118 -10.410   0.104  0.00  0.00    -0.035 C 
ATOM     15  C   UNL     1      -5.177 -11.304   0.914  0.00  0.00    +0.011 C 
ATOM     16  C   UNL     1      -7.567 -10.707   0.496  0.00  0.00    +0.011 C 
ATOM     17  C   UNL     1      -5.926 -10.687  -1.388  0.00  0.00    +0.011 C 
ENDBRANCH  11  14
BRANCH   5  18
ATOM     18  C   UNL     1      -5.574  -3.707   0.040  0.00  0.00    +0.342 C 
ATOM     19  O   UNL     1      -5.971  -3.232  -1.007  0.00  0.00    -0.245 OA
BRANCH  18  20
ATOM     20  O   UNL     1      -5.992  -3.193   1.215  0.00  0.00    -0.461 OA
BRANCH  20  22
ATOM     21  C   UNL     1      -7.273  -1.630   2.574  0.00  0.00    +0.048 C 
ATOM     22  C   UNL     1      -6.915  -2.074   1.155  0.00  0.00    +0.229 C 
ENDBRANCH  20  22
ENDBRANCH  18  20
ENDBRANCH   5  18
ENDBRANCH   1   9
BRANCH   2  23
ATOM     23  C   UNL     1      -0.482  -2.165  -0.004  0.00  0.00    +0.150 A 
ATOM     24  C   UNL     1       0.911  -2.030  -0.017  0.00  0.00    +0.083 A 
ATOM     25  C   UNL     1       1.200  -0.674  -0.013  0.00  0.00    +0.158 A 
ATOM     26  N   UNL     1       2.358  -0.001  -0.021  0.00  0.00    -0.225 NA
ATOM     27  C   UNL     1       2.371   1.322  -0.016  0.00  0.00    +0.110 A 
ATOM     28  C   UNL     1       1.151   2.042   0.002  0.00  0.00    +0.064 A 
ATOM     29  C   UNL     1      -0.017   1.365   0.009  0.00  0.00    +0.149 A 
ATOM     30  N   UNL     1       0.002  -0.004   0.002  0.00  0.00    -0.209 N 
ATOM     31  N   UNL     1      -1.023  -0.957   0.007  0.00  0.00    -0.160 NA
BRANCH  27  32
ATOM     32  C   UNL     1       3.654   2.046  -0.025  0.00  0.00    +0.153 A 
ATOM     33  C   UNL     1       4.893   1.479  -0.034  0.00  0.00    +0.051 A 
ATOM     34  C   UNL     1       5.822   2.536  -0.043  0.00  0.00    +0.042 A 
ATOM     35  C   UNL     1       5.115   3.685  -0.031  0.00  0.00    +0.196 A 
ATOM     36  O   UNL     1       3.807   3.385  -0.019  0.00  0.00    -0.461 OA
ENDBRANCH  27  32
BRANCH  29  37
ATOM     37  C   UNL     1      -1.327   2.109   0.020  0.00  0.00    +0.434 C 
ATOM     38  F   UNL     1      -1.727   2.332   1.342  0.00  0.00    -0.164 F 
ATOM     39  F   UNL     1      -1.173   3.336  -0.634  0.00  0.00    -0.164 F 
ATOM     40  F   UNL     1      -2.300   1.349  -0.639  0.00  0.00    -0.164 F 
ENDBRANCH  29  37
ENDBRANCH   2  23
TORSDOF 8
