REMARK  Name = ZINC06196813
REMARK  11 active torsions:
REMARK  status: ('A' for Active; 'I' for Inactive)
REMARK    1  A    between atoms: C_1  and  C_2
REMARK    2  A    between atoms: C_2  and  O_3
REMARK    3  A    between atoms: O_3  and  C_4
REMARK    4  A    between atoms: C_11  and  C_16
REMARK    5  A    between atoms: C_16  and  C_18
REMARK    6  A    between atoms: C_16  and  N_66
REMARK    7  A    between atoms: N_22  and  C_23
REMARK    8  A    between atoms: C_23  and  C_24
REMARK    9  A    between atoms: C_24  and  O_25
REMARK   10  A    between atoms: O_25  and  C_26
REMARK   11  A    between atoms: C_32  and  C_34
REMARK                            x       y       z     vdW  Elec       q    Type
REMARK                         _______ _______ _______ _____ _____    ______ ____
ROOT
ATOM      1  C   UNL     1      -0.904   1.840  -0.442  0.00  0.00    +0.039 C 
ENDROOT
BRANCH   1   9
ATOM      2  C   UNL     1      -3.926   7.252  -0.407  0.00  0.00    +0.121 A 
ATOM      3  C   UNL     1      -2.799   8.051  -0.228  0.00  0.00    +0.047 A 
ATOM      4  C   UNL     1      -1.547   7.487  -0.129  0.00  0.00    +0.030 A 
ATOM      5  C   UNL     1      -1.399   6.106  -0.206  0.00  0.00    +0.049 A 
ATOM      6  C   UNL     1      -2.535   5.295  -0.387  0.00  0.00    +0.002 A 
ATOM      7  C   UNL     1      -3.802   5.880  -0.487  0.00  0.00    +0.055 A 
ATOM      8  C   UNL     1      -2.365   3.843  -0.467  0.00  0.00    +0.017 A 
ATOM      9  C   UNL     1      -1.114   3.330  -0.364  0.00  0.00    +0.011 A 
ATOM     10  C   UNL     1      -0.008   4.186  -0.178  0.00  0.00    +0.251 A 
ATOM     11  O   UNL     1       1.108   3.704  -0.082  0.00  0.00    -0.268 OA
ATOM     12  N   UNL     1      -0.153   5.521  -0.109  0.00  0.00    -0.322 N 
ATOM     13  H   UNL     1       0.654   6.099   0.015  0.00  0.00    +0.169 HD
BRANCH   2  14
ATOM     14  O   UNL     1      -5.155   7.826  -0.503  0.00  0.00    -0.492 OA
BRANCH  14  16
ATOM     15  C   UNL     1      -6.667   9.711  -0.541  0.00  0.00    +0.048 C 
ATOM     16  C   UNL     1      -5.214   9.251  -0.412  0.00  0.00    +0.225 C 
ENDBRANCH  14  16
ENDBRANCH   2  14
ENDBRANCH   1   9
BRANCH   1  24
ATOM     17  C   UNL     1       0.071  -0.063   0.694  0.00  0.00    -0.058 C 
ATOM     18  C   UNL     1       1.004  -0.466   1.840  0.00  0.00    +0.089 C 
ATOM     19  N   UNL     1       0.440   0.038   3.102  0.00  0.00    -0.299 N 
ATOM     20  C   UNL     1       0.059   1.456   3.176  0.00  0.00    +0.089 C 
ATOM     21  C   UNL     1      -0.837   1.784   1.977  0.00  0.00    -0.058 C 
ATOM     22  C   UNL     1       0.276  -0.779   4.161  0.00  0.00    +0.282 C 
ATOM     23  O   UNL     1      -0.297  -0.377   5.157  0.00  0.00    -0.267 OA
ATOM     24  N   UNL     1      -0.128   1.402   0.737  0.00  0.00    +0.391 N 
ATOM     25  H   UNL     1       0.789   1.863   0.722  0.00  0.00    -0.080 HD
BRANCH  22  26
ATOM     26  C   UNL     1       0.789  -2.152   4.115  0.00  0.00    +0.189 A 
ATOM     27  C   UNL     1       0.577  -3.120   5.054  0.00  0.00    +0.054 A 
ATOM     28  C   UNL     1       1.247  -4.270   4.607  0.00  0.00    +0.042 A 
ATOM     29  C   UNL     1       1.831  -3.958   3.430  0.00  0.00    +0.196 A 
ATOM     30  O   UNL     1       1.548  -2.682   3.134  0.00  0.00    -0.458 OA
ENDBRANCH  22  26
ENDBRANCH   1  24
BRANCH   1  31
ATOM     31  C   UNL     1      -0.126   1.506  -1.689  0.00  0.00    +0.143 A 
ATOM     32  N   UNL     1       1.156   1.698  -1.886  0.00  0.00    -0.115 NA
ATOM     33  N   UNL     1       1.442   1.283  -3.072  0.00  0.00    -0.023 NA
ATOM     34  N   UNL     1       0.375   0.839  -3.639  0.00  0.00    -0.044 NA
ATOM     35  N   UNL     1      -0.613   0.960  -2.819  0.00  0.00    -0.228 N 
BRANCH  35  36
ATOM     36  C   UNL     1      -2.004   0.575  -3.069  0.00  0.00    +0.175 C 
BRANCH  36  37
ATOM     37  C   UNL     1      -2.759   1.759  -3.677  0.00  0.00    +0.183 C 
BRANCH  37  38
ATOM     38  O   UNL     1      -4.116   1.384  -3.922  0.00  0.00    -0.381 OA
ATOM     39  C   UNL     1      -4.913   2.423  -4.492  0.00  0.00    +0.194 C 
ENDBRANCH  37  38
ENDBRANCH  36  37
ENDBRANCH  35  36
ENDBRANCH   1  31
TORSDOF 9
