REMARK  Name = ZINC07049936
REMARK  7 active torsions:
REMARK  status: ('A' for Active; 'I' for Inactive)
REMARK    1  A    between atoms: C_3  and  C_6
REMARK    2  A    between atoms: C_6  and  N_46
REMARK    3  A    between atoms: C_7  and  C_8
REMARK    4  A    between atoms: C_7  and  N_46
REMARK    5  A    between atoms: C_13  and  C_14
REMARK    6  A    between atoms: C_13  and  N_46
REMARK    7  A    between atoms: C_20  and  C_25
REMARK                            x       y       z     vdW  Elec       q    Type
REMARK                         _______ _______ _______ _____ _____    ______ ____
ROOT
ATOM      1  C   UNL     1       0.964   3.354  -0.696  0.00  0.00    +0.094 A 
ATOM      2  N   UNL     1       0.875   2.023  -0.946  0.00  0.00    -0.312 N 
ATOM      3  H   UNL     1       1.710   1.473  -0.976  0.00  0.00    +0.170 HD
ATOM      4  C   UNL     1      -0.314   1.428  -1.155  0.00  0.00    +0.260 A 
ATOM      5  O   UNL     1      -0.376   0.232  -1.379  0.00  0.00    -0.267 OA
ATOM      6  C   UNL     1      -1.503   2.223  -1.115  0.00  0.00    +0.083 A 
ATOM      7  C   UNL     1      -2.892   1.815  -1.299  0.00  0.00    +0.039 A 
ATOM      8  C   UNL     1      -3.865   2.758  -1.208  0.00  0.00    +0.059 A 
ATOM      9  S   UNL     1      -2.959   4.253  -0.861  0.00  0.00    -0.076 S 
ATOM     10  C   UNL     1      -1.314   3.588  -0.844  0.00  0.00    +0.116 A 
ATOM     11  N   UNL     1      -0.104   4.105  -0.649  0.00  0.00    -0.229 NA
ENDROOT
BRANCH   7  12
ATOM     12  C   UNL     1      -3.232   0.407  -1.584  0.00  0.00    +0.136 A 
ATOM     13  C   UNL     1      -4.168  -0.336  -0.933  0.00  0.00    +0.050 A 
ATOM     14  C   UNL     1      -4.160  -1.613  -1.531  0.00  0.00    +0.042 A 
ATOM     15  C   UNL     1      -3.226  -1.590  -2.500  0.00  0.00    +0.196 A 
ATOM     16  O   UNL     1      -2.667  -0.367  -2.529  0.00  0.00    -0.463 OA
ENDBRANCH   7  12
BRANCH   1  17
ATOM     17  C   UNL     1       2.317   3.977  -0.469  0.00  0.00    -0.002 C 
BRANCH  17  18
ATOM     18  N   UNL     1       2.143   5.427  -0.241  0.00  0.00    +0.394 N 
ATOM     19  H   UNL     1       1.576   5.818  -1.002  0.00  0.00    -0.080 HD
BRANCH  18  20
ATOM     20  C   UNL     1       1.448   5.656   1.043  0.00  0.00    -0.002 C 
BRANCH  20  23
ATOM     21  C   UNL     1       3.532   4.587   3.888  0.00  0.00    +0.041 A 
ATOM     22  C   UNL     1       3.092   5.575   2.977  0.00  0.00    +0.042 A 
ATOM     23  C   UNL     1       2.188   4.987   2.172  0.00  0.00    +0.089 A 
ATOM     24  O   UNL     1       2.055   3.705   2.548  0.00  0.00    -0.470 OA
ATOM     25  C   UNL     1       2.871   3.455   3.585  0.00  0.00    +0.195 A 
ENDBRANCH  20  23
ENDBRANCH  18  20
BRANCH  18  26
ATOM     26  C   UNL     1       3.460   6.098  -0.230  0.00  0.00    -0.002 C 
BRANCH  26  27
ATOM     27  C   UNL     1       3.246   7.585  -0.355  0.00  0.00    +0.089 A 
ATOM     28  C   UNL     1       3.204   8.462   0.664  0.00  0.00    +0.042 A 
ATOM     29  C   UNL     1       2.985   9.739   0.096  0.00  0.00    +0.041 A 
ATOM     30  C   UNL     1       2.908   9.565  -1.236  0.00  0.00    +0.195 A 
ATOM     31  O   UNL     1       3.072   8.259  -1.504  0.00  0.00    -0.470 OA
ENDBRANCH  26  27
ENDBRANCH  18  26
ENDBRANCH  17  18
ENDBRANCH   1  17
TORSDOF 7
