REMARK  Name = ZINC59778062
REMARK  5 active torsions:
REMARK  status: ('A' for Active; 'I' for Inactive)
REMARK    1  A    between atoms: C_6  and  C_7
REMARK    2  A    between atoms: C_10  and  S_13
REMARK    3  A    between atoms: S_13  and  C_14
REMARK    4  A    between atoms: C_14  and  C_15
REMARK    5  A    between atoms: C_15  and  C_16
REMARK                            x       y       z     vdW  Elec       q    Type
REMARK                         _______ _______ _______ _____ _____    ______ ____
ROOT
ATOM      1  C   UNL     1      -1.271  -0.766   0.011  0.00  0.00    +0.182 A 
ATOM      2  N   UNL     1      -1.380  -2.102   0.004  0.00  0.00    -0.201 NA
ATOM      3  H   UNL     1      -4.355  -1.246   0.040  0.00  0.00    +0.191 HD
ATOM      4  C   UNL     1      -2.651  -2.442   0.016  0.00  0.00    +0.185 A 
ATOM      5  N   UNL     1      -3.387  -1.309   0.029  0.00  0.00    -0.253 N 
ATOM      6  N   UNL     1      -2.475  -0.241   0.031  0.00  0.00    -0.152 NA
ENDROOT
BRANCH   1  12
ATOM      7  C   UNL     1      -0.017   1.389   0.010  0.00  0.00    +0.013 A 
ATOM      8  C   UNL     1       1.170   2.093   0.002  0.00  0.00    +0.016 A 
ATOM      9  C   UNL     1       2.378   1.417  -0.013  0.00  0.00    +0.018 A 
ATOM     10  C   UNL     1       2.402   0.034  -0.021  0.00  0.00    +0.016 A 
ATOM     11  C   UNL     1       1.221  -0.680  -0.014  0.00  0.00    +0.013 A 
ATOM     12  C   UNL     1       0.002  -0.004   0.002  0.00  0.00    +0.021 A 
ATOM     13 BR   UNL     1       4.001   2.388  -0.025  0.00  0.00    -0.050 Br
ENDBRANCH   1  12
BRANCH   4  14
ATOM     14  S   UNL     1      -3.282  -4.087   0.013  0.00  0.00    -0.086 S 
BRANCH  14  15
ATOM     15  C   UNL     1      -1.796  -5.128  -0.007  0.00  0.00    +0.086 C 
BRANCH  15  16
ATOM     16  C   UNL     1      -2.206  -6.602  -0.011  0.00  0.00    +0.107 C 
BRANCH  16  17
ATOM     17  C   UNL     1      -0.972  -7.466  -0.027  0.00  0.00    +0.219 C 
ATOM     18  O   UNL     1       0.127  -6.954  -0.035  0.00  0.00    -0.275 OA
ATOM     19  N   UNL     1      -1.090  -8.809  -0.033  0.00  0.00    -0.263 N 
ATOM     20  C   UNL     1       0.050  -9.607  -0.049  0.00  0.00    +0.187 A 
ATOM     21  N   UNL     1       1.318  -9.245  -0.053  0.00  0.00    -0.126 NA
ATOM     22  N   UNL     1       2.253 -10.094  -0.068  0.00  0.00    -0.148 NA
ATOM     23  C   UNL     1       1.955 -11.378  -0.079  0.00  0.00    +0.183 A 
ATOM     24  S   UNL     1       0.170 -11.288  -0.059  0.00  0.00    -0.039 S 
ATOM     25  H   UNL     1      -1.969  -9.219  -0.026  0.00  0.00    +0.157 HD
ENDBRANCH  16  17
ENDBRANCH  15  16
ENDBRANCH  14  15
ENDBRANCH   4  14
TORSDOF 5
