REMARK  Name = ZINC63540960
REMARK  14 active torsions:
REMARK  status: ('A' for Active; 'I' for Inactive)
REMARK    1  A    between atoms: C_1  and  C_2
REMARK    2  A    between atoms: C_2  and  C_3
REMARK    3  A    between atoms: C_2  and  C_4
REMARK    4  A    between atoms: C_4  and  O_5
REMARK    5  A    between atoms: O_5  and  C_6
REMARK    6  A    between atoms: C_6  and  C_8
REMARK    7  A    between atoms: C_11  and  O_14
REMARK    8  A    between atoms: O_14  and  C_15
REMARK    9  A    between atoms: C_15  and  C_16
REMARK   10  A    between atoms: C_18  and  C_24
REMARK   11  A    between atoms: C_21  and  O_22
REMARK   12  A    between atoms: O_22  and  C_23
REMARK   13  A    between atoms: C_31  and  O_36
REMARK   14  A    between atoms: O_36  and  C_37
REMARK                            x       y       z     vdW  Elec       q    Type
REMARK                         _______ _______ _______ _____ _____    ______ ____
ROOT
ATOM      1  C   UNL     1      -2.373   0.772  10.744  0.00  0.00    +0.032 A 
ATOM      2  C   UNL     1      -3.549   1.463  10.522  0.00  0.00    +0.015 A 
ATOM      3  C   UNL     1      -4.331   1.860  11.590  0.00  0.00    -0.028 A 
ATOM      4  C   UNL     1      -3.939   1.567  12.884  0.00  0.00    +0.009 A 
ATOM      5  C   UNL     1      -2.764   0.877  13.111  0.00  0.00    +0.046 A 
ATOM      6  C   UNL     1      -1.980   0.473  12.040  0.00  0.00    +0.126 A 
ENDROOT
BRANCH   3   7
ATOM      7  C   UNL     1      -5.613   2.614  11.345  0.00  0.00    +0.111 C 
ATOM      8  C   UNL     1      -5.386   4.109  11.584  0.00  0.00    +0.128 C 
ATOM      9  C   UNL     1      -6.756   4.769  11.484  0.00  0.00    -0.035 C 
ATOM     10  C   UNL     1      -6.642   5.736  10.586  0.00  0.00    +0.003 A 
ATOM     11  C   UNL     1      -7.584   6.766  10.122  0.00  0.00    +0.055 A 
ATOM     12  C   UNL     1      -7.137   7.613   9.154  0.00  0.00    +0.121 A 
ATOM     13  C   UNL     1      -5.853   7.553   8.592  0.00  0.00    +0.047 A 
ATOM     14  C   UNL     1      -4.905   6.650   8.949  0.00  0.00    +0.029 A 
ATOM     15  C   UNL     1      -5.269   5.682   9.993  0.00  0.00    +0.043 A 
ATOM     16  N   UNL     1      -4.556   4.724  10.549  0.00  0.00    -0.376 N 
ATOM     17  C   UNL     1      -7.946   4.243  12.249  0.00  0.00    +0.048 C 
ATOM     18  C   UNL     1      -7.971   2.721  12.012  0.00  0.00    +0.086 C 
ATOM     19  N   UNL     1      -6.649   2.147  12.280  0.00  0.00    -0.307 NA
ATOM     20  H   UNL     1      -6.690   1.139  12.301  0.00  0.00    +0.123 HD
ATOM     21  H   UNL     1      -3.650   4.465  10.319  0.00  0.00    +0.160 HD
BRANCH  12  22
ATOM     22  O   UNL     1      -7.986   8.575   8.705  0.00  0.00    -0.495 OA
ATOM     23  C   UNL     1      -7.494   9.451   7.689  0.00  0.00    +0.277 C 
ENDBRANCH  12  22
ENDBRANCH   3   7
BRANCH   6  24
ATOM     24  O   UNL     1      -0.827  -0.212  12.261  0.00  0.00    -0.495 OA
ATOM     25  C   UNL     1      -0.485  -0.485  13.621  0.00  0.00    +0.277 C 
ENDBRANCH   6  24
BRANCH   1  26
ATOM     26  C   UNL     1      -1.521   0.340   9.579  0.00  0.00    +0.268 C 
BRANCH  26  27
ATOM     27  O   UNL     1      -2.132   0.763   8.358  0.00  0.00    -0.487 OA
BRANCH  27  31
ATOM     28  C   UNL     1      -0.171  -0.185   4.852  0.00  0.00    +0.059 A 
ATOM     29  C   UNL     1      -1.377   0.520   4.812  0.00  0.00    +0.018 A 
ATOM     30  C   UNL     1      -2.029   0.833   5.984  0.00  0.00    +0.046 A 
ATOM     31  C   UNL     1      -1.487   0.451   7.206  0.00  0.00    +0.121 A 
ATOM     32  C   UNL     1      -0.288  -0.249   7.250  0.00  0.00    +0.046 A 
ATOM     33  C   UNL     1       0.367  -0.572   6.083  0.00  0.00    +0.018 A 
BRANCH  28  34
ATOM     34  C   UNL     1       0.530  -0.524   3.600  0.00  0.00    +0.339 C 
ATOM     35  O   UNL     1       1.576  -1.140   3.636  0.00  0.00    -0.245 OA
BRANCH  34  36
ATOM     36  O   UNL     1       0.010  -0.149   2.414  0.00  0.00    -0.461 OA
BRANCH  36  37
ATOM     37  C   UNL     1       0.742  -0.511   1.242  0.00  0.00    +0.235 C 
BRANCH  37  39
ATOM     38  C   UNL     1      -0.019   1.526   0.010  0.00  0.00    +0.010 C 
ATOM     39  C   UNL     1       0.002  -0.004   0.002  0.00  0.00    +0.020 C 
ATOM     40  C   UNL     1       0.718  -0.497  -1.257  0.00  0.00    +0.010 C 
ENDBRANCH  37  39
ENDBRANCH  36  37
ENDBRANCH  34  36
ENDBRANCH  28  34
ENDBRANCH  27  31
ENDBRANCH  26  27
ENDBRANCH   1  26
TORSDOF 10
