REMARK  Name = ZINC60380091
REMARK  8 active torsions:
REMARK  status: ('A' for Active; 'I' for Inactive)
REMARK    1  A    between atoms: C_1  and  C_2
REMARK    2  A    between atoms: C_2  and  C_4
REMARK    3  A    between atoms: C_2  and  C_28
REMARK    4  A    between atoms: C_4  and  N_5
REMARK    5  A    between atoms: C_8  and  C_22
REMARK    6  A    between atoms: C_13  and  C_15
REMARK    7  A    between atoms: C_15  and  N_16
REMARK    8  A    between atoms: C_28  and  N_29
REMARK                            x       y       z     vdW  Elec       q    Type
REMARK                         _______ _______ _______ _____ _____    ______ ____
ROOT
ATOM      1  N   UNL     1       2.245  -0.125   0.954  0.00  0.00    -0.328 N 
ATOM      2  C   UNL     1       3.220  -0.523   1.851  0.00  0.00    +0.131 A 
ATOM      3  C   UNL     1       4.556  -0.058   1.715  0.00  0.00    +0.055 A 
ATOM      4  C   UNL     1       5.132   0.838   0.718  0.00  0.00    +0.002 A 
ATOM      5  C   UNL     1       6.449   1.140   0.797  0.00  0.00    +0.056 A 
ATOM      6  S   UNL     1       6.999   0.230   2.228  0.00  0.00    -0.076 S 
ATOM      7  C   UNL     1       5.463  -0.528   2.686  0.00  0.00    +0.114 A 
ATOM      8  N   UNL     1       5.079  -1.346   3.647  0.00  0.00    -0.223 NA
ATOM      9  C   UNL     1       3.824  -1.745   3.721  0.00  0.00    +0.146 A 
ATOM     10  N   UNL     1       2.919  -1.338   2.849  0.00  0.00    -0.216 NA
ATOM     11  H   UNL     1       2.457   0.523   0.264  0.00  0.00    +0.147 HD
ENDROOT
BRANCH   4  12
ATOM     12  C   UNL     1       4.291   1.407  -0.362  0.00  0.00    -0.017 A 
ATOM     13  C   UNL     1       3.233   2.260  -0.049  0.00  0.00    +0.008 A 
ATOM     14  C   UNL     1       2.454   2.787  -1.059  0.00  0.00    +0.001 A 
ATOM     15  C   UNL     1       2.720   2.470  -2.379  0.00  0.00    +0.000 A 
ATOM     16  C   UNL     1       3.768   1.624  -2.695  0.00  0.00    +0.001 A 
ATOM     17  C   UNL     1       4.558   1.096  -1.695  0.00  0.00    +0.008 A 
ENDBRANCH   4  12
BRANCH   1  18
ATOM     18  C   UNL     1       0.894  -0.683   1.045  0.00  0.00    +0.108 C 
BRANCH  18  20
ATOM     19  C   UNL     1      -0.196   1.493   0.478  0.00  0.00    +0.011 C 
ATOM     20  C   UNL     1      -0.022   0.034   0.051  0.00  0.00    +0.023 C 
BRANCH  20  21
ATOM     21  C   UNL     1      -1.387  -0.656   0.027  0.00  0.00    +0.127 C 
BRANCH  21  22
ATOM     22  N   UNL     1      -2.224  -0.047  -1.009  0.00  0.00    -0.338 N 
ATOM     23  C   UNL     1      -3.064   1.022  -0.850  0.00  0.00    +0.104 A 
ATOM     24  C   UNL     1      -3.635   1.252  -2.048  0.00  0.00    +0.101 A 
ATOM     25  N   UNL     1      -3.156   0.347  -2.916  0.00  0.00    -0.352 N 
ATOM     26  C   UNL     1      -2.307  -0.430  -2.302  0.00  0.00    +0.173 A 
ATOM     27  H   UNL     1      -3.400   0.284  -3.852  0.00  0.00    +0.166 HD
ENDBRANCH  21  22
ENDBRANCH  20  21
ENDBRANCH  18  20
ENDBRANCH   1  18
BRANCH   9  28
ATOM     28  C   UNL     1       3.412  -2.679   4.830  0.00  0.00    +0.160 C 
BRANCH  28  29
ATOM     29  N   UNL     1       2.980  -1.896   5.995  0.00  0.00    -0.291 NA
ATOM     30  C   UNL     1       4.107  -1.150   6.576  0.00  0.00    +0.113 C 
ATOM     31  C   UNL     1       3.602  -0.304   7.747  0.00  0.00    +0.175 C 
ATOM     32  O   UNL     1       2.965  -1.155   8.704  0.00  0.00    -0.377 OA
ATOM     33  C   UNL     1       1.863  -1.895   8.173  0.00  0.00    +0.175 C 
ATOM     34  C   UNL     1       2.350  -2.758   7.006  0.00  0.00    +0.113 C 
ENDBRANCH  28  29
ENDBRANCH   9  28
TORSDOF 7
