REMARK  Name = ZINC35745914
REMARK  19 active torsions:
REMARK  status: ('A' for Active; 'I' for Inactive)
REMARK    1  A    between atoms: C_1  and  C_2
REMARK    2  A    between atoms: C_2  and  C_3
REMARK    3  A    between atoms: C_2  and  C_4
REMARK    4  A    between atoms: C_4  and  O_5
REMARK    5  A    between atoms: O_5  and  C_6
REMARK    6  A    between atoms: C_6  and  C_7
REMARK    7  A    between atoms: C_7  and  C_9
REMARK    8  A    between atoms: C_7  and  O_36
REMARK    9  A    between atoms: C_9  and  N_10
REMARK   10  A    between atoms: N_10  and  C_11
REMARK   11  A    between atoms: N_10  and  C_33
REMARK   12  A    between atoms: C_11  and  C_12
REMARK   13  A    between atoms: C_18  and  C_23
REMARK   14  A    between atoms: C_26  and  O_31
REMARK   15  A    between atoms: C_27  and  O_29
REMARK   16  A    between atoms: O_29  and  C_30
REMARK   17  A    between atoms: O_31  and  C_32
REMARK   18  A    between atoms: C_33  and  C_34
REMARK   19  A    between atoms: C_33  and  C_35
REMARK                            x       y       z     vdW  Elec       q    Type
REMARK                         _______ _______ _______ _____ _____    ______ ____
ROOT
ATOM      1  C   UNL     1      -4.437  -8.573  -0.477  0.00  0.00    +0.094 A 
ATOM      2  N   UNL     1      -5.352  -9.543  -0.732  0.00  0.00    -0.312 N 
ATOM      3  H   UNL     1      -6.291  -9.306  -0.795  0.00  0.00    +0.170 HD
ATOM      4  C   UNL     1      -4.983 -10.826  -0.901  0.00  0.00    +0.260 A 
ATOM      5  O   UNL     1      -5.817 -11.685  -1.130  0.00  0.00    -0.267 OA
ATOM      6  C   UNL     1      -3.596 -11.167  -0.807  0.00  0.00    +0.080 A 
ATOM      7  C   UNL     1      -2.953 -12.468  -0.949  0.00  0.00    +0.004 A 
ATOM      8  C   UNL     1      -1.607 -12.548  -0.818  0.00  0.00    +0.056 A 
ATOM      9  S   UNL     1      -1.124 -10.864  -0.492  0.00  0.00    -0.076 S 
ATOM     10  C   UNL     1      -2.724 -10.099  -0.540  0.00  0.00    +0.116 A 
ATOM     11  N   UNL     1      -3.164  -8.852  -0.390  0.00  0.00    -0.229 NA
ENDROOT
BRANCH   7  12
ATOM     12  C   UNL     1      -3.758 -13.681  -1.232  0.00  0.00    -0.013 A 
ATOM     13  C   UNL     1      -4.884 -13.967  -0.461  0.00  0.00    +0.012 A 
ATOM     14  C   UNL     1      -5.633 -15.096  -0.725  0.00  0.00    +0.050 A 
ATOM     15  C   UNL     1      -5.268 -15.948  -1.756  0.00  0.00    +0.162 A 
ATOM     16  C   UNL     1      -4.145 -15.667  -2.530  0.00  0.00    +0.162 A 
ATOM     17  C   UNL     1      -3.394 -14.533  -2.273  0.00  0.00    +0.058 A 
BRANCH  16  18
ATOM     18  O   UNL     1      -3.788 -16.503  -3.541  0.00  0.00    -0.491 OA
ATOM     19  C   UNL     1      -2.625 -16.153  -4.294  0.00  0.00    +0.277 C 
ENDBRANCH  16  18
BRANCH  15  20
ATOM     20  O   UNL     1      -6.008 -17.060  -2.013  0.00  0.00    -0.491 OA
ATOM     21  C   UNL     1      -7.146 -17.287  -1.180  0.00  0.00    +0.277 C 
ENDBRANCH  15  20
ENDBRANCH   7  12
BRANCH   1  22
ATOM     22  C   UNL     1      -4.897  -7.150  -0.296  0.00  0.00    -0.003 C 
BRANCH  22  23
ATOM     23  N   UNL     1      -3.765  -6.321   0.139  0.00  0.00    +0.388 N 
ATOM     24  H   UNL     1      -2.914  -6.669  -0.276  0.00  0.00    -0.081 HD
BRANCH  23  25
ATOM     25  C   UNL     1      -3.653  -6.373   1.603  0.00  0.00    -0.074 C 
ATOM     26  C   UNL     1      -4.914  -5.776   2.232  0.00  0.00    -0.014 C 
ATOM     27  C   UNL     1      -3.500  -7.828   2.050  0.00  0.00    -0.014 C 
ENDBRANCH  23  25
BRANCH  23  28
ATOM     28  C   UNL     1      -3.984  -4.931  -0.286  0.00  0.00    -0.044 C 
BRANCH  28  29
ATOM     29  C   UNL     1      -2.759  -4.089   0.074  0.00  0.00    +0.124 C 
BRANCH  29  30
ATOM     30  O   UNL     1      -1.610  -4.606  -0.600  0.00  0.00    -0.391 OA
ATOM     31  H   UNL     1      -1.685  -4.603  -1.564  0.00  0.00    +0.210 HD
ENDBRANCH  29  30
BRANCH  29  32
ATOM     32  C   UNL     1      -2.993  -2.639  -0.355  0.00  0.00    +0.189 C 
BRANCH  32  33
ATOM     33  O   UNL     1      -1.900  -1.830   0.084  0.00  0.00    -0.377 OA
BRANCH  33  34
ATOM     34  C   UNL     1      -2.020  -0.450  -0.268  0.00  0.00    +0.163 C 
BRANCH  34  36
ATOM     35  C   UNL     1      -0.868   1.766  -0.232  0.00  0.00    +0.009 C 
ATOM     36  C   UNL     1      -0.801   0.316   0.251  0.00  0.00    +0.009 C 
ATOM     37  C   UNL     1      -0.793   0.288   1.780  0.00  0.00    +0.009 C 
ENDBRANCH  34  36
ENDBRANCH  33  34
ENDBRANCH  32  33
ENDBRANCH  29  32
ENDBRANCH  28  29
ENDBRANCH  23  28
ENDBRANCH  22  23
ENDBRANCH   1  22
TORSDOF 13
