REMARK  Name = ZINC06597942
REMARK  5 active torsions:
REMARK  status: ('A' for Active; 'I' for Inactive)
REMARK    1  A    between atoms: C_1  and  C_2
REMARK    2  A    between atoms: C_3  and  C_17
REMARK    3  A    between atoms: C_4  and  C_10
REMARK    4  A    between atoms: N_19  and  C_20
REMARK    5  A    between atoms: C_25  and  C_26
REMARK                            x       y       z     vdW  Elec       q    Type
REMARK                         _______ _______ _______ _____ _____    ______ ____
ROOT
ATOM      1  C   UNL     1      -0.044   4.904  -0.398  0.00  0.00    +0.061 C 
ATOM      2  C   UNL     1      -0.134   3.445  -0.032  0.00  0.00    +0.017 C 
ATOM      3  C   UNL     1      -1.332   2.914   0.292  0.00  0.00    +0.056 C 
ATOM      4  C   UNL     1      -1.378   1.442   0.648  0.00  0.00    +0.139 C 
ATOM      5  N   UNL     1      -0.101   0.709   0.623  0.00  0.00    -0.315 N 
ATOM      6  C   UNL     1       1.016   1.379   0.279  0.00  0.00    +0.135 C 
ATOM      7  S   UNL     1       2.507   0.538   0.238  0.00  0.00    -0.019 S 
ATOM      8  N   UNL     1       0.998   2.681  -0.033  0.00  0.00    -0.300 N 
ATOM      9  H   UNL     1      -0.066  -0.235   0.845  0.00  0.00    +0.149 HD
ATOM     10  H   UNL     1       1.837   3.106  -0.273  0.00  0.00    +0.154 HD
ENDROOT
BRANCH   4  11
ATOM     11  C   UNL     1      -1.955   1.322   2.035  0.00  0.00    -0.022 A 
ATOM     12  C   UNL     1      -1.149   1.532   3.139  0.00  0.00    +0.008 A 
ATOM     13  C   UNL     1      -1.679   1.427   4.411  0.00  0.00    +0.038 A 
ATOM     14  C   UNL     1      -3.014   1.102   4.581  0.00  0.00    +0.123 A 
ATOM     15  C   UNL     1      -3.818   0.887   3.475  0.00  0.00    +0.038 A 
ATOM     16  C   UNL     1      -3.288   0.998   2.203  0.00  0.00    +0.008 A 
ATOM     17  F   UNL     1      -3.531   0.994   5.824  0.00  0.00    -0.205 F 
ENDBRANCH   4  11
BRANCH   3  18
ATOM     18  C   UNL     1      -2.507   3.705   0.294  0.00  0.00    +0.248 C 
ATOM     19  O   UNL     1      -3.334   3.568  -0.589  0.00  0.00    -0.270 OA
ATOM     20  N   UNL     1      -2.709   4.609   1.273  0.00  0.00    -0.281 N 
ATOM     21  H   UNL     1      -2.014   4.779   1.928  0.00  0.00    +0.155 HD
BRANCH  20  22
ATOM     22  C   UNL     1      -3.921   5.303   1.345  0.00  0.00    +0.045 A 
ATOM     23  C   UNL     1      -4.640   5.571   0.187  0.00  0.00    +0.024 A 
ATOM     24  C   UNL     1      -5.839   6.251   0.262  0.00  0.00    +0.002 A 
ATOM     25  C   UNL     1      -6.319   6.676   1.487  0.00  0.00    +0.001 A 
ATOM     26  C   UNL     1      -5.604   6.415   2.641  0.00  0.00    +0.014 A 
ATOM     27  C   UNL     1      -4.407   5.730   2.574  0.00  0.00    +0.076 A 
BRANCH  27  28
ATOM     28  C   UNL     1      -3.627   5.447   3.833  0.00  0.00    +0.419 C 
ATOM     29  F   UNL     1      -4.351   5.901   4.941  0.00  0.00    -0.166 F 
ATOM     30  F   UNL     1      -3.413   4.070   3.948  0.00  0.00    -0.166 F 
ATOM     31  F   UNL     1      -2.396   6.108   3.777  0.00  0.00    -0.166 F 
ENDBRANCH  27  28
ENDBRANCH  20  22
ENDBRANCH   3  18
TORSDOF 4
