REMARK  Name = ZINC09432021
REMARK  9 active torsions:
REMARK  status: ('A' for Active; 'I' for Inactive)
REMARK    1  A    between atoms: C_1  and  C_2
REMARK    2  A    between atoms: C_2  and  C_3
REMARK    3  A    between atoms: C_3  and  O_4
REMARK    4  A    between atoms: O_4  and  C_5
REMARK    5  A    between atoms: C_8  and  C_11
REMARK    6  A    between atoms: N_18  and  C_25
REMARK    7  A    between atoms: C_21  and  O_24
REMARK    8  A    between atoms: C_30  and  C_32
REMARK    9  A    between atoms: C_30  and  C_33
REMARK                            x       y       z     vdW  Elec       q    Type
REMARK                         _______ _______ _______ _____ _____    ______ ____
ROOT
ATOM      1  C   UNL     1       3.240  -4.426  -5.648  0.00  0.00    +0.116 C 
ATOM      2  C   UNL     1       2.224  -5.251  -6.379  0.00  0.00    +0.079 A 
ATOM      3  C   UNL     1       0.841  -4.956  -6.338  0.00  0.00    +0.271 A 
ATOM      4  O   UNL     1       0.326  -4.036  -5.726  0.00  0.00    -0.266 OA
ATOM      5  N   UNL     1       0.191  -5.860  -7.085  0.00  0.00    -0.261 N 
ATOM      6  H   UNL     1      -0.767  -5.894  -7.233  0.00  0.00    +0.190 HD
ATOM      7  N   UNL     1       1.132  -6.743  -7.614  0.00  0.00    -0.263 N 
ATOM      8  C   UNL     1       2.395  -6.359  -7.167  0.00  0.00    +0.161 A 
ATOM      9  N   UNL     1       3.483  -7.037  -7.516  0.00  0.00    -0.197 NA
ATOM     10  C   UNL     1       4.716  -6.975  -7.283  0.00  0.00    +0.199 C 
ATOM     11  C   UNL     1       5.491  -5.978  -6.514  0.00  0.00    +0.165 C 
ATOM     12  S   UNL     1       4.624  -5.400  -5.047  0.00  0.00    -0.138 S 
ENDROOT
BRANCH   7  13
ATOM     13  C   UNL     1       0.843  -7.880  -8.491  0.00  0.00    +0.112 C 
ATOM     14  C   UNL     1      -0.096  -8.855  -7.773  0.00  0.00    +0.055 C 
ATOM     15  C   UNL     1      -0.456  -9.999  -8.724  0.00  0.00    +0.162 C 
ATOM     16  O   UNL     1      -1.056  -9.464  -9.906  0.00  0.00    -0.374 OA
ATOM     17  C   UNL     1      -0.207  -8.583 -10.644  0.00  0.00    +0.066 C 
ATOM     18  C   UNL     1       0.165  -7.382  -9.771  0.00  0.00    +0.061 C 
ATOM     19  C   UNL     1       1.066  -9.326 -11.054  0.00  0.00    +0.041 C 
ATOM     20  C   UNL     1      -0.940  -8.097 -11.895  0.00  0.00    +0.041 C 
ENDBRANCH   7  13
BRANCH   1  24
ATOM     21  C   UNL     1       1.341  -2.529  -2.322  0.00  0.00    +0.121 A 
ATOM     22  C   UNL     1       1.909  -1.762  -3.329  0.00  0.00    +0.046 A 
ATOM     23  C   UNL     1       2.522  -2.377  -4.403  0.00  0.00    +0.008 A 
ATOM     24  C   UNL     1       2.571  -3.757  -4.475  0.00  0.00    -0.030 A 
ATOM     25  C   UNL     1       2.006  -4.524  -3.473  0.00  0.00    +0.008 A 
ATOM     26  C   UNL     1       1.397  -3.914  -2.394  0.00  0.00    +0.046 A 
BRANCH  21  27
ATOM     27  O   UNL     1       0.738  -1.926  -1.265  0.00  0.00    -0.492 OA
BRANCH  27  28
ATOM     28  C   UNL     1       0.718  -0.497  -1.257  0.00  0.00    +0.229 C 
BRANCH  28  30
ATOM     29  C   UNL     1      -0.019   1.526   0.010  0.00  0.00    +0.007 C 
ATOM     30  C   UNL     1       0.002  -0.004   0.002  0.00  0.00    +0.038 C 
ENDBRANCH  28  30
ENDBRANCH  27  28
ENDBRANCH  21  27
ENDBRANCH   1  24
BRANCH  10  31
ATOM     31  O   UNL     1       5.445  -7.972  -7.815  0.00  0.00    -0.495 OA
ATOM     32  H   UNL     1       4.925  -8.616  -8.315  0.00  0.00    +0.293 HD
ENDBRANCH  10  31
TORSDOF 6
