REMARK  Name = ZINC39653863
REMARK  9 active torsions:
REMARK  status: ('A' for Active; 'I' for Inactive)
REMARK    1  A    between atoms: C_1  and  C_2
REMARK    2  A    between atoms: C_2  and  O_3
REMARK    3  A    between atoms: O_3  and  C_4
REMARK    4  A    between atoms: C_7  and  C_10
REMARK    5  A    between atoms: C_10  and  C_11
REMARK    6  A    between atoms: C_11  and  N_12
REMARK    7  A    between atoms: C_13  and  C_15
REMARK    8  A    between atoms: C_26  and  C_28
REMARK    9  A    between atoms: C_32  and  C_35
REMARK                            x       y       z     vdW  Elec       q    Type
REMARK                         _______ _______ _______ _____ _____    ______ ____
ROOT
ATOM      1  C   UNL     1      -0.834 -10.175  -3.638  0.00  0.00    +0.100 C 
ATOM      2  C   UNL     1       0.338 -10.512  -4.588  0.00  0.00    +0.121 C 
ATOM      3  N   UNL     1      -0.145 -11.664  -5.385  0.00  0.00    -0.296 N 
ATOM      4  C   UNL     1      -1.570 -11.355  -5.654  0.00  0.00    +0.115 C 
ATOM      5  C   UNL     1      -2.084 -10.729  -4.341  0.00  0.00    -0.004 C 
ATOM      6  C   UNL     1      -2.749 -11.794  -3.475  0.00  0.00    -0.010 C 
ATOM      7  C   UNL     1      -4.021 -12.289  -4.169  0.00  0.00    -0.082 C 
ATOM      8  N   UNL     1      -4.935 -11.161  -4.382  0.00  0.00    +0.379 N 
ATOM      9  C   UNL     1      -4.324 -10.185  -5.292  0.00  0.00    -0.082 C 
ATOM     10  C   UNL     1      -3.064  -9.601  -4.644  0.00  0.00    -0.010 C 
ATOM     11  C   UNL     1       0.553 -12.748  -5.776  0.00  0.00    +0.252 C 
ATOM     12  O   UNL     1       0.010 -13.616  -6.432  0.00  0.00    -0.270 OA
ATOM     13  H   UNL     1      -5.797 -11.499  -4.784  0.00  0.00    -0.086 HD
ATOM     14  H   UNL     1      -5.132 -10.717  -3.497  0.00  0.00    -0.086 HD
ENDROOT
BRANCH  11  15
ATOM     15  C   UNL     1       1.976 -12.882  -5.409  0.00  0.00    +0.107 A 
ATOM     16  C   UNL     1       2.338 -13.523  -4.218  0.00  0.00    +0.138 A 
ATOM     17  C   UNL     1       3.673 -13.644  -3.882  0.00  0.00    +0.039 A 
ATOM     18  C   UNL     1       4.650 -13.134  -4.718  0.00  0.00    +0.009 A 
ATOM     19  C   UNL     1       4.301 -12.499  -5.896  0.00  0.00    -0.014 A 
ATOM     20  C   UNL     1       2.970 -12.374  -6.251  0.00  0.00    +0.141 A 
ATOM     21  F   UNL     1       2.632 -11.759  -7.405  0.00  0.00    -0.204 F 
ATOM     22  C   UNL     1       5.374 -11.947  -6.799  0.00  0.00    +0.047 C 
ATOM     23  F   UNL     1       1.385 -14.020  -3.400  0.00  0.00    -0.205 F 
ENDBRANCH  11  15
BRANCH   1  25
ATOM     24  N   UNL     1      -1.457  -8.181  -2.315  0.00  0.00    -0.315 N 
ATOM     25  C   UNL     1      -0.951  -8.684  -3.458  0.00  0.00    +0.218 C 
ATOM     26  O   UNL     1      -0.590  -7.936  -4.342  0.00  0.00    -0.275 OA
ATOM     27  H   UNL     1      -1.746  -8.779  -1.608  0.00  0.00    +0.149 HD
BRANCH  24  28
ATOM     28  C   UNL     1      -1.571  -6.731  -2.140  0.00  0.00    +0.109 C 
BRANCH  28  29
ATOM     29  C   UNL     1      -2.172  -6.428  -0.765  0.00  0.00    +0.054 C 
BRANCH  29  33
ATOM     30  C   UNL     1      -2.505  -2.199  -0.254  0.00  0.00    +0.121 A 
ATOM     31  C   UNL     1      -3.553  -2.916  -0.812  0.00  0.00    +0.046 A 
ATOM     32  C   UNL     1      -3.443  -4.283  -0.977  0.00  0.00    +0.007 A 
ATOM     33  C   UNL     1      -2.289  -4.937  -0.585  0.00  0.00    -0.046 A 
ATOM     34  C   UNL     1      -1.243  -4.225  -0.028  0.00  0.00    +0.007 A 
ATOM     35  C   UNL     1      -1.346  -2.856   0.133  0.00  0.00    +0.046 A 
BRANCH  30  36
ATOM     36  O   UNL     1      -2.611  -0.854  -0.092  0.00  0.00    -0.492 OA
BRANCH  36  38
ATOM     37  C   UNL     1      -3.766   1.263  -0.253  0.00  0.00    +0.048 C 
ATOM     38  C   UNL     1      -3.832  -0.243  -0.512  0.00  0.00    +0.225 C 
ENDBRANCH  36  38
ENDBRANCH  30  36
ENDBRANCH  29  33
ENDBRANCH  28  29
ENDBRANCH  24  28
ENDBRANCH   1  25
TORSDOF 7
