REMARK  Name = ZINC39673867
REMARK  9 active torsions:
REMARK  status: ('A' for Active; 'I' for Inactive)
REMARK    1  A    between atoms: C_1  and  C_2
REMARK    2  A    between atoms: C_2  and  C_3
REMARK    3  A    between atoms: C_3  and  C_4
REMARK    4  A    between atoms: C_4  and  C_6
REMARK    5  A    between atoms: C_4  and  N_7
REMARK    6  A    between atoms: C_8  and  C_10
REMARK    7  A    between atoms: C_21  and  C_23
REMARK    8  A    between atoms: C_24  and  C_34
REMARK    9  A    between atoms: C_27  and  C_28
REMARK                            x       y       z     vdW  Elec       q    Type
REMARK                         _______ _______ _______ _____ _____    ______ ____
ROOT
ATOM      1  C   UNL     1      -2.345  -4.283  -1.025  0.00  0.00    +0.100 C 
ATOM      2  C   UNL     1      -3.290  -3.481  -0.104  0.00  0.00    +0.121 C 
ATOM      3  N   UNL     1      -4.242  -4.487   0.423  0.00  0.00    -0.296 N 
ATOM      4  C   UNL     1      -3.408  -5.687   0.676  0.00  0.00    +0.115 C 
ATOM      5  C   UNL     1      -2.424  -5.730  -0.510  0.00  0.00    -0.004 C 
ATOM      6  C   UNL     1      -1.051  -6.199  -0.038  0.00  0.00    -0.010 C 
ATOM      7  C   UNL     1      -1.143  -7.659   0.415  0.00  0.00    -0.082 C 
ATOM      8  N   UNL     1      -1.610  -8.491  -0.700  0.00  0.00    +0.379 N 
ATOM      9  C   UNL     1      -2.970  -8.094  -1.086  0.00  0.00    -0.082 C 
ATOM     10  C   UNL     1      -2.955  -6.652  -1.603  0.00  0.00    -0.010 C 
ATOM     11  C   UNL     1      -5.566  -4.345   0.626  0.00  0.00    +0.252 C 
ATOM     12  O   UNL     1      -6.217  -5.272   1.069  0.00  0.00    -0.270 OA
ATOM     13  H   UNL     1      -0.991  -8.374  -1.488  0.00  0.00    -0.086 HD
ATOM     14  H   UNL     1      -1.612  -9.460  -0.418  0.00  0.00    -0.086 HD
ENDROOT
BRANCH  11  15
ATOM     15  C   UNL     1      -6.226  -3.066   0.312  0.00  0.00    +0.106 A 
ATOM     16  C   UNL     1      -6.790  -2.713  -0.879  0.00  0.00    +0.147 A 
ATOM     17  O   UNL     1      -7.282  -1.477  -0.759  0.00  0.00    -0.359 OA
ATOM     18  N   UNL     1      -7.037  -0.997   0.548  0.00  0.00    -0.077 NA
ATOM     19  C   UNL     1      -6.410  -1.926   1.223  0.00  0.00    +0.126 A 
ATOM     20  C   UNL     1      -6.848  -3.570  -2.117  0.00  0.00    +0.090 C 
BRANCH  19  21
ATOM     21  C   UNL     1      -5.966  -1.844   2.636  0.00  0.00    +0.004 A 
ATOM     22  C   UNL     1      -5.985  -2.981   3.442  0.00  0.00    +0.010 A 
ATOM     23  C   UNL     1      -5.570  -2.899   4.756  0.00  0.00    +0.001 A 
ATOM     24  C   UNL     1      -5.137  -1.691   5.273  0.00  0.00    +0.000 A 
ATOM     25  C   UNL     1      -5.117  -0.560   4.478  0.00  0.00    +0.001 A 
ATOM     26  C   UNL     1      -5.524  -0.631   3.161  0.00  0.00    +0.010 A 
ENDBRANCH  19  21
ENDBRANCH  11  15
BRANCH   1  28
ATOM     27  N   UNL     1      -0.092  -3.866  -1.959  0.00  0.00    -0.312 N 
ATOM     28  C   UNL     1      -0.935  -3.763  -0.912  0.00  0.00    +0.218 C 
ATOM     29  O   UNL     1      -0.559  -3.250   0.121  0.00  0.00    -0.275 OA
ATOM     30  H   UNL     1      -0.393  -4.276  -2.785  0.00  0.00    +0.149 HD
BRANCH  27  31
ATOM     31  C   UNL     1       1.278  -3.360  -1.849  0.00  0.00    +0.070 C 
ATOM     32  C   UNL     1       2.168  -4.430  -1.215  0.00  0.00    +0.028 C 
BRANCH  31  33
ATOM     33  C   UNL     1       1.808  -3.015  -3.242  0.00  0.00    +0.022 C 
BRANCH  33  35
ATOM     34  C   UNL     1       1.525  -1.514  -5.220  0.00  0.00    +0.004 C 
ATOM     35  C   UNL     1       0.995  -1.859  -3.826  0.00  0.00    -0.002 C 
ENDBRANCH  33  35
ENDBRANCH  31  33
ENDBRANCH  27  31
ENDBRANCH   1  28
TORSDOF 6
