REMARK  Name = ZINC40018970
REMARK  16 active torsions:
REMARK  status: ('A' for Active; 'I' for Inactive)
REMARK    1  A    between atoms: C_1  and  C_2
REMARK    2  A    between atoms: C_2  and  C_3
REMARK    3  A    between atoms: C_3  and  C_4
REMARK    4  A    between atoms: C_4  and  N_5
REMARK    5  A    between atoms: N_5  and  C_6
REMARK    6  A    between atoms: N_5  and  C_10
REMARK    7  A    between atoms: C_6  and  C_7
REMARK    8  A    between atoms: C_7  and  C_8
REMARK    9  A    between atoms: C_8  and  C_9
REMARK   10  A    between atoms: C_10  and  C_11
REMARK   11  A    between atoms: C_11  and  C_12
REMARK   12  A    between atoms: C_12  and  N_13
REMARK   13  A    between atoms: C_14  and  C_29
REMARK   14  A    between atoms: C_16  and  C_21
REMARK   15  A    between atoms: C_21  and  C_23
REMARK   16  A    between atoms: C_26  and  C_28
REMARK                            x       y       z     vdW  Elec       q    Type
REMARK                         _______ _______ _______ _____ _____    ______ ____
ROOT
ATOM      1  N   UNL     1      -5.437  -6.266   0.921  0.00  0.00    -0.284 N 
ATOM      2  C   UNL     1      -6.389  -6.035   2.014  0.00  0.00    +0.145 C 
ATOM      3  C   UNL     1      -7.702  -6.630   1.561  0.00  0.00    +0.079 C 
ATOM      4  C   UNL     1      -7.492  -7.144   0.328  0.00  0.00    +0.249 C 
ATOM      5  C   UNL     1      -6.088  -6.910  -0.065  0.00  0.00    +0.288 C 
ATOM      6  O   UNL     1      -5.594  -7.250  -1.121  0.00  0.00    -0.266 OA
ATOM      7  O   UNL     1      -8.424  -7.771  -0.429  0.00  0.00    -0.282 OA
ENDROOT
BRANCH   2   8
ATOM      8  C   UNL     1      -6.546  -4.557   2.260  0.00  0.00    -0.022 A 
ATOM      9  C   UNL     1      -6.798  -3.703   1.203  0.00  0.00    +0.007 A 
ATOM     10  C   UNL     1      -6.943  -2.347   1.428  0.00  0.00    +0.015 A 
ATOM     11  C   UNL     1      -6.836  -1.844   2.712  0.00  0.00    +0.018 A 
ATOM     12  C   UNL     1      -6.584  -2.699   3.771  0.00  0.00    +0.015 A 
ATOM     13  C   UNL     1      -6.444  -4.056   3.545  0.00  0.00    +0.007 A 
ATOM     14 BR   UNL     1      -7.034   0.011   3.022  0.00  0.00    -0.050 Br
ENDBRANCH   2   8
BRANCH   3  15
ATOM     15  C   UNL     1      -8.961  -6.648   2.315  0.00  0.00    +0.230 C 
ATOM     16  O   UNL     1      -9.955  -6.117   1.853  0.00  0.00    -0.283 OA
BRANCH  15  17
ATOM     17  C   UNL     1      -9.022  -7.305   3.624  0.00  0.00    +0.175 A 
ATOM     18  C   UNL     1     -10.153  -7.480   4.392  0.00  0.00    +0.053 A 
ATOM     19  C   UNL     1      -9.747  -8.153   5.553  0.00  0.00    +0.045 A 
ATOM     20  C   UNL     1      -8.414  -8.358   5.451  0.00  0.00    +0.103 A 
ATOM     21  O   UNL     1      -7.983  -7.852   4.288  0.00  0.00    -0.457 OA
ATOM     22  C   UNL     1      -7.553  -9.049   6.477  0.00  0.00    +0.086 C 
ENDBRANCH  15  17
ENDBRANCH   3  15
BRANCH   1  23
ATOM     23  C   UNL     1      -4.029  -5.862   0.903  0.00  0.00    +0.107 C 
BRANCH  23  24
ATOM     24  C   UNL     1      -3.909  -4.455   0.315  0.00  0.00    +0.000 C 
BRANCH  24  25
ATOM     25  C   UNL     1      -2.439  -4.032   0.297  0.00  0.00    -0.077 C 
BRANCH  25  26
ATOM     26  N   UNL     1      -2.315  -2.717  -0.345  0.00  0.00    +0.380 N 
ATOM     27  H   UNL     1      -2.736  -2.748  -1.261  0.00  0.00    -0.082 HD
BRANCH  26  28
ATOM     28  C   UNL     1      -2.999  -1.706   0.474  0.00  0.00    -0.079 C 
BRANCH  28  29
ATOM     29  C   UNL     1      -2.978  -0.361  -0.254  0.00  0.00    -0.019 C 
BRANCH  29  31
ATOM     30  C   UNL     1      -3.669   2.037  -0.129  0.00  0.00    +0.004 C 
ATOM     31  C   UNL     1      -3.690   0.691   0.599  0.00  0.00    -0.005 C 
ENDBRANCH  29  31
ENDBRANCH  28  29
ENDBRANCH  26  28
BRANCH  26  32
ATOM     32  C   UNL     1      -0.894  -2.365  -0.471  0.00  0.00    -0.079 C 
BRANCH  32  33
ATOM     33  C   UNL     1      -0.216  -3.328  -1.447  0.00  0.00    -0.019 C 
BRANCH  33  34
ATOM     34  C   UNL     1       1.272  -2.986  -1.549  0.00  0.00    -0.005 C 
ATOM     35  C   UNL     1       1.951  -3.949  -2.525  0.00  0.00    +0.004 C 
ENDBRANCH  33  34
ENDBRANCH  32  33
ENDBRANCH  26  32
ENDBRANCH  25  26
ENDBRANCH  24  25
ENDBRANCH  23  24
ENDBRANCH   1  23
TORSDOF 13
