REMARK  Name = ZINC07496163
REMARK  2 active torsions:
REMARK  status: ('A' for Active; 'I' for Inactive)
REMARK    1  A    between atoms: C_4  and  C_7
REMARK    2  A    between atoms: C_12  and  C_24
REMARK                            x       y       z     vdW  Elec       q    Type
REMARK                         _______ _______ _______ _____ _____    ______ ____
ROOT
ATOM      1  C   UNL     1      -0.013   1.086   0.008  0.00  0.00    +0.032 C 
ATOM      2  C   UNL     1      -0.703   1.585   1.279  0.00  0.00    +0.060 C 
ATOM      3  C   UNL     1       0.062   1.110   2.492  0.00  0.00    +0.020 C 
ATOM      4  C   UNL     1       1.401   0.946   2.446  0.00  0.00    +0.039 C 
ATOM      5  C   UNL     1       2.201   0.506   3.651  0.00  0.00    +0.156 C 
ATOM      6  N   UNL     1       1.313  -0.027   4.680  0.00  0.00    -0.300 N 
ATOM      7  C   UNL     1       1.602  -0.756   5.797  0.00  0.00    +0.071 A 
ATOM      8  C   UNL     1       2.792  -1.236   6.331  0.00  0.00    +0.028 A 
ATOM      9  C   UNL     1       2.710  -1.956   7.512  0.00  0.00    +0.002 A 
ATOM     10  C   UNL     1       1.501  -2.196   8.143  0.00  0.00    +0.002 A 
ATOM     11  C   UNL     1       0.303  -1.730   7.632  0.00  0.00    +0.030 A 
ATOM     12  C   UNL     1       0.362  -1.000   6.440  0.00  0.00    +0.091 A 
ATOM     13  N   UNL     1      -0.598  -0.418   5.694  0.00  0.00    -0.214 NA
ATOM     14  C   UNL     1      -0.052   0.155   4.656  0.00  0.00    +0.202 A 
ATOM     15  N   UNL     1      -0.662   0.859   3.633  0.00  0.00    -0.288 N 
ATOM     16  C   UNL     1       2.116   1.188   1.258  0.00  0.00    +0.164 C 
ATOM     17  O   UNL     1       3.323   1.044   1.253  0.00  0.00    -0.292 OA
ATOM     18  C   UNL     1       1.423   1.622  -0.003  0.00  0.00    +0.088 C 
ATOM     19  H   UNL     1      -1.577   1.169   3.719  0.00  0.00    +0.155 HD
ENDROOT
BRANCH   1  23
ATOM     20  C   UNL     1      -2.110   2.516  -3.428  0.00  0.00    +0.000 A 
ATOM     21  C   UNL     1      -1.963   1.156  -3.224  0.00  0.00    +0.000 A 
ATOM     22  C   UNL     1      -1.284   0.694  -2.112  0.00  0.00    +0.004 A 
ATOM     23  C   UNL     1      -0.752   1.590  -1.204  0.00  0.00    -0.044 A 
ATOM     24  C   UNL     1      -0.903   2.950  -1.406  0.00  0.00    +0.004 A 
ATOM     25  C   UNL     1      -1.578   3.412  -2.520  0.00  0.00    +0.000 A 
ENDBRANCH   1  23
BRANCH   5  26
ATOM     26  C   UNL     1       2.954   1.687   4.208  0.00  0.00    -0.017 A 
ATOM     27  C   UNL     1       2.279   2.813   4.652  0.00  0.00    +0.025 A 
ATOM     28  C   UNL     1       3.002   3.875   5.162  0.00  0.00    +0.111 A 
ATOM     29  N   UNL     1       4.319   3.828   5.218  0.00  0.00    -0.263 NA
ATOM     30  C   UNL     1       4.994   2.775   4.801  0.00  0.00    +0.111 A 
ATOM     31  C   UNL     1       4.338   1.674   4.284  0.00  0.00    +0.025 A 
ENDBRANCH   5  26
TORSDOF 2
