REMARK  Name = ZINC06193541
REMARK  7 active torsions:
REMARK  status: ('A' for Active; 'I' for Inactive)
REMARK    1  A    between atoms: C_1  and  C_2
REMARK    2  A    between atoms: C_4  and  C_38
REMARK    3  A    between atoms: C_7  and  C_14
REMARK    4  A    between atoms: C_14  and  C_16
REMARK    5  A    between atoms: C_14  and  N_69
REMARK    6  A    between atoms: N_20  and  C_21
REMARK    7  A    between atoms: N_28  and  C_31
REMARK                            x       y       z     vdW  Elec       q    Type
REMARK                         _______ _______ _______ _____ _____    ______ ____
ROOT
ATOM      1  C   UNL     1       2.591  -0.626  -0.056  0.00  0.00    +0.039 C 
ENDROOT
BRANCH   1   8
ATOM      2  C   UNL     1       5.255  -2.453   7.237  0.00  0.00    +0.044 C 
ATOM      3  C   UNL     1       4.755  -1.886   5.933  0.00  0.00    -0.048 A 
ATOM      4  C   UNL     1       4.575  -0.515   5.803  0.00  0.00    +0.007 A 
ATOM      5  C   UNL     1       4.123   0.019   4.630  0.00  0.00    -0.041 A 
ATOM      6  C   UNL     1       3.838  -0.822   3.550  0.00  0.00    +0.002 A 
ATOM      7  C   UNL     1       3.352  -0.284   2.278  0.00  0.00    +0.018 A 
ATOM      8  C   UNL     1       3.092  -1.147   1.266  0.00  0.00    +0.011 A 
ATOM      9  C   UNL     1       3.285  -2.534   1.447  0.00  0.00    +0.251 A 
ATOM     10  O   UNL     1       3.041  -3.293   0.525  0.00  0.00    -0.268 OA
ATOM     11  N   UNL     1       3.737  -3.037   2.609  0.00  0.00    -0.322 N 
ATOM     12  H   UNL     1       3.862  -3.995   2.698  0.00  0.00    +0.169 HD
ATOM     13  C   UNL     1       4.020  -2.212   3.677  0.00  0.00    +0.050 A 
ATOM     14  C   UNL     1       4.482  -2.733   4.881  0.00  0.00    +0.029 A 
ATOM     15  C   UNL     1       3.932   1.508   4.501  0.00  0.00    +0.044 C 
ENDBRANCH   1   8
BRANCH   1  21
ATOM     16  C   UNL     1       4.888  -0.518  -0.814  0.00  0.00    -0.058 C 
ATOM     17  C   UNL     1       5.853  -0.993  -1.903  0.00  0.00    +0.086 C 
ATOM     18  N   UNL     1       5.401  -0.490  -3.208  0.00  0.00    -0.333 N 
ATOM     19  C   UNL     1       4.046  -0.970  -3.513  0.00  0.00    +0.086 C 
ATOM     20  C   UNL     1       3.081  -0.495  -2.424  0.00  0.00    -0.058 C 
ATOM     21  N   UNL     1       3.534  -1.026  -1.121  0.00  0.00    +0.391 N 
ATOM     22  H   UNL     1       3.566  -2.051  -1.172  0.00  0.00    -0.080 HD
BRANCH  18  23
ATOM     23  C   UNL     1       6.298  -0.844  -4.220  0.00  0.00    +0.030 A 
ATOM     24  C   UNL     1       5.854  -1.563  -5.322  0.00  0.00    +0.026 A 
ATOM     25  C   UNL     1       6.742  -1.908  -6.323  0.00  0.00    +0.040 A 
ATOM     26  C   UNL     1       8.075  -1.546  -6.223  0.00  0.00    +0.124 A 
ATOM     27  C   UNL     1       8.520  -0.834  -5.122  0.00  0.00    +0.040 A 
ATOM     28  C   UNL     1       7.635  -0.483  -4.121  0.00  0.00    +0.026 A 
ATOM     29  F   UNL     1       8.941  -1.889  -7.201  0.00  0.00    -0.205 F 
ENDBRANCH  18  23
ENDBRANCH   1  21
BRANCH   1  30
ATOM     30  C   UNL     1       2.473   0.875   0.008  0.00  0.00    +0.143 A 
ATOM     31  N   UNL     1       3.458   1.740  -0.029  0.00  0.00    -0.115 NA
ATOM     32  N   UNL     1       2.952   2.922   0.052  0.00  0.00    -0.023 NA
ATOM     33  N   UNL     1       1.670   2.835   0.133  0.00  0.00    -0.044 NA
ATOM     34  N   UNL     1       1.337   1.589   0.115  0.00  0.00    -0.227 N 
BRANCH  34  35
ATOM     35  C   UNL     1      -0.024   1.051   0.191  0.00  0.00    +0.111 C 
ATOM     36  C   UNL     1      -0.709   1.527   1.489  0.00  0.00    +0.027 C 
ATOM     37  C   UNL     1      -1.518   2.775   1.056  0.00  0.00    +0.002 C 
ATOM     38  C   UNL     1      -2.040   2.375  -0.347  0.00  0.00    +0.002 C 
ATOM     39  C   UNL     1      -0.870   1.591  -0.976  0.00  0.00    +0.027 C 
ENDBRANCH  34  35
ENDBRANCH   1  30
TORSDOF 5
