REMARK  Name = ZINC39579965
REMARK  8 active torsions:
REMARK  status: ('A' for Active; 'I' for Inactive)
REMARK    1  A    between atoms: C_1  and  O_2
REMARK    2  A    between atoms: O_2  and  C_3
REMARK    3  A    between atoms: C_6  and  N_9
REMARK    4  A    between atoms: N_9  and  C_10
REMARK    5  A    between atoms: C_10  and  N_12
REMARK    6  A    between atoms: N_12  and  N_13
REMARK    7  A    between atoms: C_14  and  C_15
REMARK    8  A    between atoms: C_23  and  C_25
REMARK                            x       y       z     vdW  Elec       q    Type
REMARK                         _______ _______ _______ _____ _____    ______ ____
ROOT
ATOM      1  C   UNL     1      -9.662  -3.646  -0.231  0.00  0.00    +0.008 C 
ATOM      2  C   UNL     1      -9.780  -2.260  -0.137  0.00  0.00    +0.005 A 
ATOM      3  C   UNL     1      -8.824  -1.226  -0.030  0.00  0.00    +0.010 A 
ATOM      4  C   UNL     1      -9.235   0.065   0.047  0.00  0.00    +0.001 A 
ATOM      5  C   UNL     1     -10.590   0.405   0.023  0.00  0.00    +0.002 A 
ATOM      6  C   UNL     1     -11.562  -0.534  -0.079  0.00  0.00    +0.026 A 
ATOM      7  C   UNL     1     -11.210  -1.907  -0.164  0.00  0.00    +0.044 A 
ATOM      8  N   UNL     1     -11.950  -2.991  -0.267  0.00  0.00    -0.373 N 
ATOM      9  C   UNL     1     -11.079  -4.169  -0.325  0.00  0.00    +0.142 C 
ATOM     10  H   UNL     1     -12.919  -3.008  -0.303  0.00  0.00    +0.161 HD
ENDROOT
BRANCH   9  11
ATOM     11  C   UNL     1     -11.372  -5.085   0.835  0.00  0.00    -0.021 A 
ATOM     12  C   UNL     1     -11.701  -4.555   2.068  0.00  0.00    +0.007 A 
ATOM     13  C   UNL     1     -11.970  -5.394   3.132  0.00  0.00    +0.020 A 
ATOM     14  C   UNL     1     -11.910  -6.766   2.963  0.00  0.00    +0.041 A 
ATOM     15  C   UNL     1     -11.580  -7.297   1.729  0.00  0.00    +0.020 A 
ATOM     16  C   UNL     1     -11.317  -6.456   0.664  0.00  0.00    +0.007 A 
ATOM     17 CL   UNL     1     -12.247  -7.822   4.300  0.00  0.00    -0.084 Cl
ENDBRANCH   9  11
BRANCH   1  19
ATOM     18  N   UNL     1      -7.320  -3.793  -0.150  0.00  0.00    -0.189 NA
ATOM     19  C   UNL     1      -8.480  -4.396  -0.241  0.00  0.00    +0.137 C 
BRANCH  18  20
ATOM     20  N   UNL     1      -6.138  -4.544  -0.161  0.00  0.00    -0.218 N 
ATOM     21  H   UNL     1      -6.177  -5.510  -0.235  0.00  0.00    +0.176 HD
BRANCH  20  22
ATOM     22  C   UNL     1      -4.945  -3.924  -0.068  0.00  0.00    +0.154 C 
ATOM     23  S   UNL     1      -3.499  -4.841  -0.080  0.00  0.00    -0.017 S 
BRANCH  22  24
ATOM     24  N   UNL     1      -4.890  -2.581   0.035  0.00  0.00    -0.296 N 
ATOM     25  H   UNL     1      -5.708  -2.067   0.123  0.00  0.00    +0.154 HD
BRANCH  24  29
ATOM     26  C   UNL     1      -1.203  -0.634  -0.025  0.00  0.00    +0.120 A 
ATOM     27  C   UNL     1      -1.448  -1.683  -0.900  0.00  0.00    +0.047 A 
ATOM     28  C   UNL     1      -2.669  -2.328  -0.880  0.00  0.00    +0.027 A 
ATOM     29  C   UNL     1      -3.651  -1.927   0.015  0.00  0.00    +0.033 A 
ATOM     30  C   UNL     1      -3.405  -0.878   0.890  0.00  0.00    +0.027 A 
ATOM     31  C   UNL     1      -2.182  -0.237   0.873  0.00  0.00    +0.047 A 
BRANCH  26  33
ATOM     32  C   UNL     1       0.961  -0.461  -0.996  0.00  0.00    +0.277 C 
ATOM     33  O   UNL     1      -0.001   0.000  -0.045  0.00  0.00    -0.495 OA
ENDBRANCH  26  33
ENDBRANCH  24  29
ENDBRANCH  22  24
ENDBRANCH  20  22
ENDBRANCH  18  20
ENDBRANCH   1  19
TORSDOF 7
