REMARK  Name = ZINC35744170
REMARK  13 active torsions:
REMARK  status: ('A' for Active; 'I' for Inactive)
REMARK    1  A    between atoms: C_1  and  C_2
REMARK    2  A    between atoms: C_7  and  O_8
REMARK    3  A    between atoms: O_8  and  C_9
REMARK    4  A    between atoms: C_9  and  C_10
REMARK    5  A    between atoms: C_10  and  C_12
REMARK    6  A    between atoms: C_10  and  O_38
REMARK    7  A    between atoms: C_12  and  N_13
REMARK    8  A    between atoms: N_13  and  C_14
REMARK    9  A    between atoms: N_13  and  C_21
REMARK   10  A    between atoms: C_14  and  C_15
REMARK   11  A    between atoms: C_21  and  C_22
REMARK   12  A    between atoms: C_23  and  C_32
REMARK   13  A    between atoms: C_26  and  N_27
REMARK                            x       y       z     vdW  Elec       q    Type
REMARK                         _______ _______ _______ _____ _____    ______ ____
ROOT
ATOM      1  N   UNL     1      -0.160  -0.484   9.220  0.00  0.00    +0.387 N 
ATOM      2  H   UNL     1      -1.047  -0.008   9.282  0.00  0.00    -0.081 HD
ENDROOT
BRANCH   1   3
ATOM      3  C   UNL     1      -0.386  -1.930   9.099  0.00  0.00    -0.043 C 
BRANCH   3   4
ATOM      4  C   UNL     1      -1.650  -2.181   8.273  0.00  0.00    +0.135 C 
BRANCH   4   5
ATOM      5  O   UNL     1      -1.498  -1.592   6.980  0.00  0.00    -0.390 OA
ATOM      6  H   UNL     1      -0.853  -2.041   6.417  0.00  0.00    +0.210 HD
ENDBRANCH   4   5
BRANCH   4   7
ATOM      7  C   UNL     1      -1.871  -3.688   8.125  0.00  0.00    +0.258 C 
BRANCH   7   8
ATOM      8  O   UNL     1      -3.112  -3.923   7.455  0.00  0.00    -0.489 OA
BRANCH   8  15
ATOM      9  C   UNL     1      -5.560  -4.410   6.133  0.00  0.00    +0.047 C 
ATOM     10  C   UNL     1      -4.652  -5.520   6.598  0.00  0.00    -0.009 A 
ATOM     11  C   UNL     1      -5.003  -6.838   6.377  0.00  0.00    +0.007 A 
ATOM     12  C   UNL     1      -4.171  -7.856   6.803  0.00  0.00    +0.000 A 
ATOM     13  C   UNL     1      -2.986  -7.559   7.451  0.00  0.00    +0.004 A 
ATOM     14  C   UNL     1      -2.631  -6.243   7.674  0.00  0.00    +0.046 A 
ATOM     15  C   UNL     1      -3.462  -5.219   7.242  0.00  0.00    +0.124 A 
ENDBRANCH   8  15
ENDBRANCH   7   8
ENDBRANCH   4   7
ENDBRANCH   3   4
ENDBRANCH   1   3
BRANCH   1  16
ATOM     16  C   UNL     1       0.573  -0.003   8.041  0.00  0.00    -0.042 C 
BRANCH  16  17
ATOM     17  C   UNL     1       2.001  -0.477   8.109  0.00  0.00    -0.064 A 
ATOM     18  C   UNL     1       2.761  -0.223   9.235  0.00  0.00    +0.002 A 
ATOM     19  C   UNL     1       4.072  -0.659   9.297  0.00  0.00    +0.000 A 
ATOM     20  C   UNL     1       4.622  -1.348   8.233  0.00  0.00    +0.000 A 
ATOM     21  C   UNL     1       3.862  -1.603   7.107  0.00  0.00    +0.000 A 
ATOM     22  C   UNL     1       2.550  -1.171   7.047  0.00  0.00    +0.002 A 
ENDBRANCH  16  17
ENDBRANCH   1  16
BRANCH   1  23
ATOM     23  C   UNL     1       0.627  -0.211  10.430  0.00  0.00    -0.035 C 
BRANCH  23  24
ATOM     24  C   UNL     1       0.747   1.278  10.627  0.00  0.00    +0.025 A 
ATOM     25  C   UNL     1       1.818   2.088  10.195  0.00  0.00    +0.117 A 
ATOM     26  N   UNL     1       1.558   3.325  10.549  0.00  0.00    -0.076 NA
ATOM     27  O   UNL     1       0.310   3.336  11.219  0.00  0.00    -0.339 OA
ATOM     28  C   UNL     1      -0.159   2.077  11.245  0.00  0.00    +0.222 A 
BRANCH  25  29
ATOM     29  C   UNL     1       3.026   1.624   9.467  0.00  0.00    +0.004 A 
ATOM     30  C   UNL     1       2.927   1.208   8.142  0.00  0.00    +0.010 A 
ATOM     31  C   UNL     1       4.053   0.778   7.470  0.00  0.00    +0.001 A 
ATOM     32  C   UNL     1       5.279   0.759   8.111  0.00  0.00    +0.000 A 
ATOM     33  C   UNL     1       5.383   1.171   9.427  0.00  0.00    +0.001 A 
ATOM     34  C   UNL     1       4.264   1.608  10.107  0.00  0.00    +0.010 A 
ENDBRANCH  25  29
BRANCH  28  35
ATOM     35  N   UNL     1      -1.355   1.667  11.805  0.00  0.00    -0.299 N 
ATOM     36  C   UNL     1      -1.857   0.285  11.838  0.00  0.00    +0.108 C 
ATOM     37  C   UNL     1      -3.233   0.314  12.537  0.00  0.00    +0.020 C 
ATOM     38  C   UNL     1      -3.684   1.787  12.354  0.00  0.00    +0.020 C 
ATOM     39  C   UNL     1      -2.334   2.542  12.476  0.00  0.00    +0.108 C 
ENDBRANCH  28  35
ENDBRANCH  23  24
ENDBRANCH   1  23
TORSDOF 12
