REMARK  Name = ZINC35292938
REMARK  8 active torsions:
REMARK  status: ('A' for Active; 'I' for Inactive)
REMARK    1  A    between atoms: C_1  and  C_2
REMARK    2  A    between atoms: C_9  and  C_11
REMARK    3  A    between atoms: C_11  and  C_12
REMARK    4  A    between atoms: C_12  and  C_13
REMARK    5  A    between atoms: C_22  and  S_24
REMARK    6  A    between atoms: S_24  and  C_25
REMARK    7  A    between atoms: C_25  and  C_26
REMARK    8  A    between atoms: N_28  and  C_29
REMARK                            x       y       z     vdW  Elec       q    Type
REMARK                         _______ _______ _______ _____ _____    ______ ____
ROOT
ATOM      1  C   UNL     1      -0.226   1.841  -0.441  0.00  0.00    +0.029 C 
ATOM      2  C   UNL     1      -0.164   0.314  -0.360  0.00  0.00    +0.090 C 
ATOM      3  C   UNL     1       0.481  -0.243  -1.635  0.00  0.00    +0.128 C 
ATOM      4  N   UNL     1       0.768  -1.670  -1.432  0.00  0.00    -0.312 N 
ATOM      5  C   UNL     1       1.586  -2.070  -0.278  0.00  0.00    +0.125 C 
ATOM      6  C   UNL     1       0.941  -1.513   0.997  0.00  0.00    +0.127 C 
ATOM      7  N   UNL     1       0.651  -0.086   0.796  0.00  0.00    -0.296 N 
ATOM      8  C   UNL     1       1.127   0.839   1.653  0.00  0.00    +0.216 C 
ATOM      9  O   UNL     1       0.800   2.001   1.533  0.00  0.00    -0.276 OA
ATOM     10  C   UNL     1       0.276  -2.620  -2.311  0.00  0.00    +0.127 A 
ATOM     11  C   UNL     1      -0.318  -2.233  -3.513  0.00  0.00    +0.083 A 
ATOM     12  C   UNL     1      -0.795  -3.216  -4.361  0.00  0.00    +0.135 A 
ATOM     13  N   UNL     1      -0.674  -4.489  -4.010  0.00  0.00    -0.210 NA
ATOM     14  C   UNL     1      -0.104  -4.827  -2.862  0.00  0.00    +0.192 A 
ATOM     15  N   UNL     1       0.369  -3.915  -2.026  0.00  0.00    -0.207 NA
ATOM     16 CL   UNL     1      -1.543  -2.788  -5.868  0.00  0.00    -0.062 Cl
ENDROOT
BRANCH   8  17
ATOM     17  C   UNL     1       2.065   0.429   2.759  0.00  0.00    +0.096 C 
BRANCH  17  18
ATOM     18  C   UNL     1       2.452   1.660   3.580  0.00  0.00    +0.013 C 
BRANCH  18  19
ATOM     19  C   UNL     1       3.405   1.244   4.704  0.00  0.00    -0.011 C 
ATOM     20  C   UNL     1       2.659   0.370   5.732  0.00  0.00    +0.003 C 
ATOM     21  C   UNL     1       3.253   0.799   7.097  0.00  0.00    +0.000 C 
ATOM     22  C   UNL     1       3.439   2.326   6.924  0.00  0.00    +0.000 C 
ATOM     23  C   UNL     1       3.901   2.488   5.461  0.00  0.00    +0.003 C 
ENDBRANCH  18  19
ENDBRANCH  17  18
ENDBRANCH   8  17
BRANCH  14  24
ATOM     24  S   UNL     1       0.033  -6.533  -2.442  0.00  0.00    -0.077 S 
BRANCH  24  25
ATOM     25  C   UNL     1      -0.722  -7.394  -3.848  0.00  0.00    +0.173 C 
BRANCH  25  26
ATOM     26  C   UNL     1      -0.670  -8.882  -3.613  0.00  0.00    +0.224 C 
ATOM     27  O   UNL     1      -0.172  -9.318  -2.597  0.00  0.00    -0.275 OA
ATOM     28  N   UNL     1      -1.176  -9.727  -4.532  0.00  0.00    -0.303 N 
ATOM     29  H   UNL     1      -1.575  -9.379  -5.345  0.00  0.00    +0.149 HD
BRANCH  28  30
ATOM     30  C   UNL     1      -1.125 -11.174  -4.304  0.00  0.00    +0.159 C 
ATOM     31  C   UNL     1      -1.310 -11.911  -5.633  0.00  0.00    +0.032 C 
ATOM     32  C   UNL     1      -2.270 -11.158  -6.536  0.00  0.00    +0.004 C 
ATOM     33  C   UNL     1      -3.696 -11.121  -6.019  0.00  0.00    +0.019 C 
ATOM     34  C   UNL     1      -3.791 -10.289  -4.739  0.00  0.00    +0.104 C 
ATOM     35  N   UNL     1      -3.491 -11.159  -3.590  0.00  0.00    -0.314 N 
ATOM     36  C   UNL     1      -2.242 -11.580  -3.365  0.00  0.00    +0.233 C 
ATOM     37  O   UNL     1      -2.001 -12.292  -2.413  0.00  0.00    -0.274 OA
ATOM     38  H   UNL     1      -4.204 -11.427  -2.989  0.00  0.00    +0.149 HD
ENDBRANCH  28  30
ENDBRANCH  25  26
ENDBRANCH  24  25
ENDBRANCH  14  24
TORSDOF 7
