REMARK  Name = ZINC07746694
REMARK  7 active torsions:
REMARK  status: ('A' for Active; 'I' for Inactive)
REMARK    1  A    between atoms: C_1  and  C_2
REMARK    2  A    between atoms: C_2  and  C_4
REMARK    3  A    between atoms: C_2  and  N_7
REMARK    4  A    between atoms: C_8  and  C_10
REMARK    5  A    between atoms: C_10  and  S_11
REMARK    6  A    between atoms: S_11  and  C_12
REMARK    7  A    between atoms: N_16  and  C_17
REMARK                            x       y       z     vdW  Elec       q    Type
REMARK                         _______ _______ _______ _____ _____    ______ ____
ROOT
ATOM      1  C   UNL     1       2.061   0.565  -0.015  0.00  0.00    +0.214 A 
ATOM      2  N   UNL     1       1.210  -0.438  -0.012  0.00  0.00    -0.101 NA
ATOM      3  N   UNL     1       0.002  -0.004   0.002  0.00  0.00    -0.022 NA
ATOM      4  N   UNL     1      -0.015   1.285   0.009  0.00  0.00    -0.038 NA
ATOM      5  N   UNL     1       1.324   1.711  -0.001  0.00  0.00    -0.187 N 
ENDROOT
BRANCH   5   6
ATOM      6  C   UNL     1       1.799   3.030   0.001  0.00  0.00    +0.071 A 
ATOM      7  C   UNL     1       2.965   3.349   0.685  0.00  0.00    +0.028 A 
ATOM      8  C   UNL     1       3.433   4.648   0.682  0.00  0.00    +0.003 A 
ATOM      9  C   UNL     1       2.737   5.634   0.007  0.00  0.00    +0.020 A 
ATOM     10  C   UNL     1       1.573   5.321  -0.672  0.00  0.00    +0.043 A 
ATOM     11  C   UNL     1       1.102   4.021  -0.676  0.00  0.00    +0.048 A 
ATOM     12 CL   UNL     1       0.701   6.562  -1.518  0.00  0.00    -0.083 Cl
ENDBRANCH   5   6
BRANCH   1  13
ATOM     13  S   UNL     1       3.820   0.450  -0.032  0.00  0.00    -0.075 S 
BRANCH  13  14
ATOM     14  C   UNL     1       4.016  -1.350  -0.042  0.00  0.00    +0.173 C 
BRANCH  14  16
ATOM     15  N   UNL     1       5.871  -2.985  -0.067  0.00  0.00    -0.312 N 
ATOM     16  C   UNL     1       5.483  -1.695  -0.057  0.00  0.00    +0.224 C 
ATOM     17  O   UNL     1       6.314  -0.811  -0.061  0.00  0.00    -0.275 OA
ATOM     18  H   UNL     1       5.207  -3.692  -0.064  0.00  0.00    +0.149 HD
BRANCH  15  20
ATOM     19  C   UNL     1       7.809  -3.309  -1.523  0.00  0.00    +0.028 C 
ATOM     20  C   UNL     1       7.297  -3.321  -0.082  0.00  0.00    +0.073 C 
BRANCH  20  21
ATOM     21  C   UNL     1       7.500  -4.713   0.520  0.00  0.00    +0.009 C 
ATOM     22  C   UNL     1       8.214  -4.803   1.870  0.00  0.00    +0.005 C 
ATOM     23  C   UNL     1       8.931  -5.249   0.594  0.00  0.00    +0.005 C 
ENDBRANCH  20  21
ENDBRANCH  15  20
ENDBRANCH  14  16
ENDBRANCH  13  14
ENDBRANCH   1  13
TORSDOF 6
