REMARK  Name = ZINC63708235
REMARK  11 active torsions:
REMARK  status: ('A' for Active; 'I' for Inactive)
REMARK    1  A    between atoms: C_1  and  C_2
REMARK    2  A    between atoms: C_2  and  C_3
REMARK    3  A    between atoms: C_3  and  C_5
REMARK    4  A    between atoms: C_3  and  S_14
REMARK    5  A    between atoms: N_7  and  C_8
REMARK    6  A    between atoms: S_14  and  C_15
REMARK    7  A    between atoms: C_27  and  C_29
REMARK    8  A    between atoms: C_29  and  C_30
REMARK    9  A    between atoms: C_30  and  C_31
REMARK   10  A    between atoms: C_32  and  C_38
REMARK   11  A    between atoms: C_35  and  C_37
REMARK                            x       y       z     vdW  Elec       q    Type
REMARK                         _______ _______ _______ _____ _____    ______ ____
ROOT
ATOM      1  C   UNL     1      -2.593   1.572   1.678  0.00  0.00    +0.249 C 
ATOM      2  N   UNL     1      -1.300   2.267   1.701  0.00  0.00    -0.356 N 
ATOM      3  C   UNL     1      -0.990   3.106   0.722  0.00  0.00    +0.048 A 
ATOM      4  C   UNL     1       0.248   3.785   0.724  0.00  0.00    +0.026 A 
ATOM      5  C   UNL     1       0.546   4.640  -0.291  0.00  0.00    +0.002 A 
ATOM      6  C   UNL     1      -0.342   4.867  -1.339  0.00  0.00    +0.001 A 
ATOM      7  C   UNL     1      -1.551   4.243  -1.399  0.00  0.00    +0.013 A 
ATOM      8  C   UNL     1      -1.923   3.346  -0.384  0.00  0.00    +0.038 A 
ATOM      9  C   UNL     1      -3.170   2.690  -0.428  0.00  0.00    +0.128 C 
ATOM     10  N   UNL     1      -3.515   1.819   0.570  0.00  0.00    -0.204 N 
ATOM     11  N   UNL     1      -4.790   1.336   0.249  0.00  0.00    -0.249 N 
ATOM     12  C   UNL     1      -5.145   1.932  -0.911  0.00  0.00    +0.090 C 
ATOM     13  N   UNL     1      -4.183   2.727  -1.302  0.00  0.00    -0.332 N 
ATOM     14  H   UNL     1      -5.315   0.699   0.759  0.00  0.00    +0.171 HD
ATOM     15  H   UNL     1      -0.677   2.115   2.429  0.00  0.00    +0.162 HD
ATOM     16  H   UNL     1      -4.202   3.266  -2.108  0.00  0.00    +0.168 HD
ENDROOT
BRANCH   1  17
ATOM     17  S   UNL     1      -2.255  -0.210   1.718  0.00  0.00    -0.103 S 
BRANCH  17  18
ATOM     18  C   UNL     1      -1.361  -0.522   0.171  0.00  0.00    +0.135 C 
BRANCH  18  19
ATOM     19  C   UNL     1      -2.320  -0.438  -0.989  0.00  0.00    +0.226 C 
ATOM     20  O   UNL     1      -3.512  -0.556  -0.800  0.00  0.00    -0.275 OA
ATOM     21  N   UNL     1      -1.853  -0.231  -2.236  0.00  0.00    -0.312 N 
ATOM     22  H   UNL     1      -0.899  -0.137  -2.387  0.00  0.00    +0.149 HD
BRANCH  21  23
ATOM     23  C   UNL     1      -2.785  -0.150  -3.363  0.00  0.00    +0.073 C 
ATOM     24  C   UNL     1      -3.096  -1.559  -3.871  0.00  0.00    +0.022 C 
ATOM     25  C   UNL     1      -4.069  -1.474  -5.048  0.00  0.00    +0.002 C 
ATOM     26  C   UNL     1      -3.437  -0.654  -6.175  0.00  0.00    +0.000 C 
ATOM     27  C   UNL     1      -3.126   0.755  -5.667  0.00  0.00    +0.002 C 
ATOM     28  C   UNL     1      -2.152   0.670  -4.490  0.00  0.00    +0.022 C 
ENDBRANCH  21  23
ENDBRANCH  18  19
BRANCH  18  30
ATOM     29  C   UNL     1       0.338  -1.960   1.304  0.00  0.00    +0.005 C 
ATOM     30  C   UNL     1      -0.736  -1.917   0.215  0.00  0.00    +0.020 C 
ENDBRANCH  18  30
ENDBRANCH  17  18
ENDBRANCH   1  17
BRANCH  12  31
ATOM     31  C   UNL     1      -6.445   1.712  -1.641  0.00  0.00    +0.075 C 
BRANCH  31  32
ATOM     32  C   UNL     1      -7.483   2.723  -1.149  0.00  0.00    +0.042 C 
BRANCH  32  33
ATOM     33  C   UNL     1      -8.784   2.503  -1.879  0.00  0.00    -0.021 C 
ATOM     34  C   UNL     1      -9.837   1.784  -1.485  0.00  0.00    +0.061 C 
ATOM     35  N   UNL     1     -10.819   1.825  -2.412  0.00  0.00    -0.159 NA
ATOM     36  N   UNL     1     -10.555   2.500  -3.409  0.00  0.00    -0.180 NA
ATOM     37  C   UNL     1      -9.202   3.055  -3.230  0.00  0.00    +0.153 C 
ATOM     38  C   UNL     1      -8.265   2.557  -4.332  0.00  0.00    +0.039 C 
ATOM     39  C   UNL     1      -9.918   1.029  -0.184  0.00  0.00    +0.067 C 
ENDBRANCH  32  33
ENDBRANCH  31  32
ENDBRANCH  12  31
TORSDOF 8
