REMARK  Name = ZINC01110003
REMARK  12 active torsions:
REMARK  status: ('A' for Active; 'I' for Inactive)
REMARK    1  A    between atoms: C_1  and  C_2
REMARK    2  A    between atoms: C_5  and  C_7
REMARK    3  A    between atoms: C_9  and  C_19
REMARK    4  A    between atoms: C_10  and  O_18
REMARK    5  A    between atoms: N_13  and  C_14
REMARK    6  A    between atoms: C_14  and  C_15
REMARK    7  A    between atoms: C_15  and  N_57
REMARK    8  A    between atoms: C_16  and  N_57
REMARK    9  A    between atoms: C_17  and  N_57
REMARK   10  A    between atoms: C_19  and  C_21
REMARK   11  A    between atoms: C_22  and  C_32
REMARK   12  A    between atoms: C_24  and  C_26
REMARK                            x       y       z     vdW  Elec       q    Type
REMARK                         _______ _______ _______ _____ _____    ______ ____
ROOT
ATOM      1  C   UNL     1      -1.238   2.204   0.018  0.00  0.00    +0.180 C 
ATOM      2  C   UNL     1      -1.427   2.875  -1.322  0.00  0.00    +0.075 C 
ATOM      3  C   UNL     1      -1.389   4.208  -1.100  0.00  0.00    +0.188 C 
ATOM      4  C   UNL     1      -1.181   4.456   0.340  0.00  0.00    +0.282 C 
ATOM      5  O   UNL     1      -1.102   5.554   0.855  0.00  0.00    -0.267 OA
ATOM      6  N   UNL     1      -1.092   3.286   0.999  0.00  0.00    -0.282 N 
ENDROOT
BRANCH   1  11
ATOM      7  C   UNL     1       3.619   0.850  -0.104  0.00  0.00    +0.086 C 
ATOM      8  C   UNL     1       2.115   0.761  -0.055  0.00  0.00    +0.102 A 
ATOM      9  C   UNL     1       1.395  -0.374  -0.012  0.00  0.00    +0.045 A 
ATOM     10  C   UNL     1       0.034   0.006   0.024  0.00  0.00    +0.047 A 
ATOM     11  C   UNL     1       0.003   1.350   0.001  0.00  0.00    +0.130 A 
ATOM     12  O   UNL     1       1.267   1.802  -0.047  0.00  0.00    -0.463 OA
ENDBRANCH   1  11
BRANCH   3  13
ATOM     13  O   UNL     1      -1.520   5.165  -2.049  0.00  0.00    -0.502 OA
ATOM     14  H   UNL     1      -1.455   6.068  -1.624  0.00  0.00    +0.292 HD
ENDBRANCH   3  13
BRANCH   2  15
ATOM     15  C   UNL     1      -1.616   2.208  -2.616  0.00  0.00    +0.203 C 
ATOM     16  O   UNL     1      -0.770   2.315  -3.486  0.00  0.00    -0.286 OA
BRANCH  15  17
ATOM     17  C   UNL     1      -2.822   1.412  -2.860  0.00  0.00    +0.082 A 
ATOM     18  C   UNL     1      -3.165   0.632  -3.962  0.00  0.00    +0.057 A 
ATOM     19  N   UNL     1      -4.312   0.011  -3.932  0.00  0.00    -0.244 NA
ATOM     20  C   UNL     1      -5.136   0.122  -2.898  0.00  0.00    +0.109 A 
ATOM     21  S   UNL     1      -4.265   1.180  -1.832  0.00  0.00    -0.064 S 
ATOM     22  C   UNL     1      -2.240   0.504  -5.145  0.00  0.00    +0.067 C 
BRANCH  20  23
ATOM     23  C   UNL     1      -6.462  -0.499  -2.704  0.00  0.00    +0.007 A 
ATOM     24  C   UNL     1      -7.182  -0.262  -1.531  0.00  0.00    +0.010 A 
ATOM     25  C   UNL     1      -8.422  -0.841  -1.357  0.00  0.00    +0.001 A 
ATOM     26  C   UNL     1      -8.948  -1.664  -2.338  0.00  0.00    +0.000 A 
ATOM     27  C   UNL     1      -8.238  -1.907  -3.500  0.00  0.00    +0.001 A 
ATOM     28  C   UNL     1      -6.999  -1.330  -3.689  0.00  0.00    +0.010 A 
ENDBRANCH  20  23
ENDBRANCH  15  17
ENDBRANCH   2  15
BRANCH   6  29
ATOM     29  C   UNL     1      -0.886   3.122   2.440  0.00  0.00    +0.091 C 
BRANCH  29  30
ATOM     30  C   UNL     1       0.614   3.058   2.737  0.00  0.00    -0.060 C 
BRANCH  30  33
ATOM     31  C   UNL     1       2.227   2.592   4.481  0.00  0.00    -0.097 C 
ATOM     32  C   UNL     1       0.370   4.083   4.917  0.00  0.00    -0.097 C 
ATOM     33  N   UNL     1       0.805   2.872   4.190  0.00  0.00    +0.377 N 
ATOM     34  H   UNL     1       0.238   2.074   4.501  0.00  0.00    -0.083 HD
ENDBRANCH  30  33
ENDBRANCH  29  30
ENDBRANCH   6  29
TORSDOF 8
