REMARK  Name = ZINC13064855
REMARK  12 active torsions:
REMARK  status: ('A' for Active; 'I' for Inactive)
REMARK    1  A    between atoms: C_1  and  C_2
REMARK    2  A    between atoms: C_2  and  C_3
REMARK    3  A    between atoms: C_3  and  C_5
REMARK    4  A    between atoms: C_3  and  N_70
REMARK    5  A    between atoms: N_9  and  C_10
REMARK    6  A    between atoms: C_10  and  C_11
REMARK    7  A    between atoms: C_17  and  C_18
REMARK    8  A    between atoms: C_17  and  N_70
REMARK    9  A    between atoms: C_25  and  C_26
REMARK   10  A    between atoms: C_25  and  N_70
REMARK   11  A    between atoms: C_29  and  C_39
REMARK   12  A    between atoms: C_31  and  C_38
REMARK                            x       y       z     vdW  Elec       q    Type
REMARK                         _______ _______ _______ _____ _____    ______ ____
ROOT
ATOM      1  N   UNL     1       1.090   4.118   1.532  0.00  0.00    +0.392 N 
ATOM      2  H   UNL     1       2.006   3.819   1.887  0.00  0.00    -0.080 HD
ENDROOT
BRANCH   1   3
ATOM      3  C   UNL     1       0.030   3.454   2.320  0.00  0.00    +0.003 C 
BRANCH   3   4
ATOM      4  C   UNL     1      -1.323   4.011   1.960  0.00  0.00    +0.138 A 
ATOM      5  N   UNL     1      -1.618   5.268   1.736  0.00  0.00    -0.115 NA
ATOM      6  N   UNL     1      -2.874   5.340   1.458  0.00  0.00    -0.023 NA
ATOM      7  N   UNL     1      -3.388   4.160   1.499  0.00  0.00    -0.044 NA
ATOM      8  N   UNL     1      -2.463   3.313   1.799  0.00  0.00    -0.228 N 
BRANCH   8   9
ATOM      9  C   UNL     1      -2.623   1.864   1.943  0.00  0.00    +0.178 C 
BRANCH   9  10
ATOM     10  C   UNL     1      -3.067   1.539   3.370  0.00  0.00    +0.140 C 
ATOM     11  C   UNL     1      -3.128   0.008   3.564  0.00  0.00    +0.035 C 
ATOM     12  C   UNL     1      -4.402  -0.164   4.436  0.00  0.00    +0.031 C 
ATOM     13  C   UNL     1      -5.290   0.980   3.886  0.00  0.00    +0.160 C 
ATOM     14  O   UNL     1      -4.383   2.056   3.600  0.00  0.00    -0.375 OA
ENDBRANCH   9  10
ENDBRANCH   8   9
ENDBRANCH   3   4
BRANCH   3  16
ATOM     15  C   UNL     1       1.608   3.004   4.204  0.00  0.00    +0.002 C 
ATOM     16  C   UNL     1       0.299   3.689   3.807  0.00  0.00    -0.011 C 
ENDBRANCH   3  16
ENDBRANCH   1   3
BRANCH   1  17
ATOM     17  C   UNL     1       0.978   3.733   0.110  0.00  0.00    -0.042 C 
BRANCH  17  18
ATOM     18  C   UNL     1       1.474   2.319  -0.050  0.00  0.00    -0.064 A 
ATOM     19  C   UNL     1       0.575   1.269  -0.069  0.00  0.00    +0.004 A 
ATOM     20  C   UNL     1       1.029  -0.028  -0.215  0.00  0.00    +0.038 A 
ATOM     21  C   UNL     1       2.385  -0.276  -0.342  0.00  0.00    +0.123 A 
ATOM     22  C   UNL     1       3.285   0.776  -0.323  0.00  0.00    +0.038 A 
ATOM     23  C   UNL     1       2.829   2.073  -0.177  0.00  0.00    +0.004 A 
ATOM     24  F   UNL     1       2.830  -1.543  -0.484  0.00  0.00    -0.205 F 
ENDBRANCH  17  18
ENDBRANCH   1  17
BRANCH   1  25
ATOM     25  C   UNL     1       0.977   5.585   1.669  0.00  0.00    -0.036 C 
BRANCH  25  26
ATOM     26  C   UNL     1       2.293   6.208   1.283  0.00  0.00    +0.001 A 
ATOM     27  C   UNL     1       2.479   6.665   0.020  0.00  0.00    +0.017 A 
ATOM     28  C   UNL     1       3.768   7.270  -0.322  0.00  0.00    +0.002 A 
ATOM     29  C   UNL     1       4.018   7.764  -1.607  0.00  0.00    -0.041 A 
ATOM     30  C   UNL     1       5.232   8.318  -1.895  0.00  0.00    +0.007 A 
ATOM     31  C   UNL     1       6.222   8.395  -0.925  0.00  0.00    -0.048 A 
ATOM     32  C   UNL     1       5.999   7.915   0.347  0.00  0.00    +0.029 A 
ATOM     33  C   UNL     1       4.769   7.346   0.664  0.00  0.00    +0.050 A 
ATOM     34  N   UNL     1       4.519   6.858   1.929  0.00  0.00    -0.322 N 
ATOM     35  H   UNL     1       5.210   6.911   2.608  0.00  0.00    +0.169 HD
ATOM     36  C   UNL     1       3.330   6.309   2.235  0.00  0.00    +0.251 A 
ATOM     37  O   UNL     1       3.143   5.888   3.364  0.00  0.00    -0.268 OA
ATOM     38  C   UNL     1       7.555   9.011  -1.266  0.00  0.00    +0.044 C 
ATOM     39  C   UNL     1       2.951   7.684  -2.668  0.00  0.00    +0.044 C 
ENDBRANCH  25  26
ENDBRANCH   1  25
TORSDOF 9
