REMARK  Name = ZINC49237109
REMARK  2 active torsions:
REMARK  status: ('A' for Active; 'I' for Inactive)
REMARK    1  A    between atoms: C_9  and  C_12
REMARK    2  A    between atoms: C_17  and  C_20
REMARK                            x       y       z     vdW  Elec       q    Type
REMARK                         _______ _______ _______ _____ _____    ______ ____
ROOT
ATOM      1  C   UNL     1       4.963  -2.592   0.044  0.00  0.00    +0.261 C 
ATOM      2  O   UNL     1       5.784  -1.954  -0.582  0.00  0.00    -0.271 OA
ATOM      3  N   UNL     1       5.245  -3.851   0.435  0.00  0.00    -0.262 N 
ATOM      4  C   UNL     1       6.475  -4.417   0.122  0.00  0.00    +0.165 A 
ATOM      5  N   UNL     1       6.919  -5.621   0.412  0.00  0.00    -0.229 NA
ATOM      6  C   UNL     1       8.123  -6.013   0.040  0.00  0.00    +0.054 A 
ATOM      7  C   UNL     1       8.875  -5.121  -0.651  0.00  0.00    +0.072 A 
ATOM      8  S   UNL     1       7.756  -3.732  -0.728  0.00  0.00    -0.060 S 
ATOM      9  H   UNL     1       4.589  -4.362   0.935  0.00  0.00    +0.157 HD
ENDROOT
BRANCH   1  18
ATOM     10  C   UNL     1      -0.017   1.379   0.010  0.00  0.00    +0.002 A 
ATOM     11  C   UNL     1       1.170   2.087   0.002  0.00  0.00    +0.004 A 
ATOM     12  C   UNL     1       2.381   1.420  -0.015  0.00  0.00    +0.047 A 
ATOM     13  C   UNL     1       2.410   0.034  -0.023  0.00  0.00    +0.142 A 
ATOM     14  C   UNL     1       1.213  -0.678  -0.013  0.00  0.00    +0.070 A 
ATOM     15  C   UNL     1       0.002  -0.004   0.002  0.00  0.00    +0.026 A 
ATOM     16  N   UNL     1       1.237  -2.082  -0.014  0.00  0.00    -0.337 N 
ATOM     17  C   UNL     1       2.512  -2.744  -0.339  0.00  0.00    +0.155 C 
ATOM     18  C   UNL     1       3.630  -1.978   0.383  0.00  0.00    +0.276 C 
ATOM     19  O   UNL     1       3.604  -0.614  -0.044  0.00  0.00    -0.476 OA
ATOM     20  H   UNL     1       0.442  -2.597   0.193  0.00  0.00    +0.146 HD
ENDBRANCH   1  18
BRANCH   6  21
ATOM     21  C   UNL     1       8.640  -7.390   0.369  0.00  0.00    +0.038 C 
ATOM     22  C   UNL     1       9.857  -7.892  -0.409  0.00  0.00    +0.010 C 
ATOM     23  C   UNL     1       8.473  -8.479  -0.692  0.00  0.00    +0.010 C 
ENDBRANCH   6  21
TORSDOF 2
