REMARK  Name = ZINC14142372
REMARK  8 active torsions:
REMARK  status: ('A' for Active; 'I' for Inactive)
REMARK    1  A    between atoms: C_4  and  C_7
REMARK    2  A    between atoms: C_8  and  C_9
REMARK    3  A    between atoms: C_9  and  N_10
REMARK    4  A    between atoms: C_16  and  C_18
REMARK    5  A    between atoms: C_18  and  N_19
REMARK    6  A    between atoms: N_19  and  C_20
REMARK    7  A    between atoms: C_20  and  C_22
REMARK    8  A    between atoms: C_20  and  C_28
REMARK                            x       y       z     vdW  Elec       q    Type
REMARK                         _______ _______ _______ _____ _____    ______ ____
ROOT
ATOM      1  N   UNL     1       5.087  -3.681   1.066  0.00  0.00    +0.384 N 
ATOM      2  C   UNL     1       5.066  -2.929   2.326  0.00  0.00    -0.059 C 
ATOM      3  C   UNL     1       5.006  -3.908   3.503  0.00  0.00    +0.089 C 
ATOM      4  N   UNL     1       6.125  -4.855   3.380  0.00  0.00    -0.304 N 
ATOM      5  C   UNL     1       6.319  -5.534   2.090  0.00  0.00    +0.089 C 
ATOM      6  C   UNL     1       6.317  -4.478   0.979  0.00  0.00    -0.059 C 
ATOM      7  C   UNL     1       6.950  -5.092   4.419  0.00  0.00    +0.229 C 
ATOM      8  O   UNL     1       6.774  -4.522   5.475  0.00  0.00    -0.274 OA
ATOM      9  H   UNL     1       4.287  -4.295   1.030  0.00  0.00    -0.081 HD
ENDROOT
BRANCH   1  10
ATOM     10  C   UNL     1       5.033  -2.743  -0.063  0.00  0.00    -0.051 C 
BRANCH  10  12
ATOM     11  C   UNL     1       3.695  -0.685  -0.038  0.00  0.00    +0.002 C 
ATOM     12  C   UNL     1       3.716  -2.010  -0.046  0.00  0.00    -0.045 C 
BRANCH  11  16
ATOM     13  C   UNL     1      -0.017   1.379   0.010  0.00  0.00    +0.000 A 
ATOM     14  C   UNL     1       1.168   2.093   0.002  0.00  0.00    +0.001 A 
ATOM     15  C   UNL     1       2.377   1.429  -0.013  0.00  0.00    +0.008 A 
ATOM     16  C   UNL     1       2.403   0.034  -0.021  0.00  0.00    -0.025 A 
ATOM     17  C   UNL     1       1.204  -0.681  -0.013  0.00  0.00    +0.008 A 
ATOM     18  C   UNL     1       0.002  -0.004   0.002  0.00  0.00    +0.001 A 
ENDBRANCH  11  16
ENDBRANCH  10  12
ENDBRANCH   1  10
BRANCH   7  19
ATOM     19  C   UNL     1       8.090  -6.066   4.269  0.00  0.00    +0.178 C 
BRANCH  19  20
ATOM     20  N   UNL     1       8.834  -6.148   5.533  0.00  0.00    -0.297 NA
ATOM     21  H   UNL     1       9.155  -5.237   5.823  0.00  0.00    +0.123 HD
BRANCH  20  22
ATOM     22  C   UNL     1       9.955  -7.091   5.424  0.00  0.00    +0.122 C 
BRANCH  22  23
ATOM     23  C   UNL     1      10.302  -7.619   6.792  0.00  0.00    -0.026 A 
ATOM     24  C   UNL     1      10.284  -6.773   7.885  0.00  0.00    +0.005 A 
ATOM     25  C   UNL     1      10.603  -7.258   9.139  0.00  0.00    +0.000 A 
ATOM     26  C   UNL     1      10.938  -8.589   9.302  0.00  0.00    +0.000 A 
ATOM     27  C   UNL     1      10.955  -9.436   8.209  0.00  0.00    +0.000 A 
ATOM     28  C   UNL     1      10.632  -8.952   6.955  0.00  0.00    +0.005 A 
ENDBRANCH  22  23
BRANCH  22  29
ATOM     29  C   UNL     1      11.151  -6.383   4.840  0.00  0.00    +0.011 A 
ATOM     30  C   UNL     1      12.049  -6.833   3.930  0.00  0.00    +0.013 A 
ATOM     31  C   UNL     1      13.078  -6.000   3.535  0.00  0.00    +0.008 A 
ATOM     32  C   UNL     1      13.160  -4.757   4.070  0.00  0.00    +0.045 A 
ATOM     33  S   UNL     1      11.749  -4.732   5.163  0.00  0.00    -0.100 S 
ENDBRANCH  22  29
ENDBRANCH  20  22
ENDBRANCH  19  20
ENDBRANCH   7  19
TORSDOF 8
