REMARK  Name = ZINC35619793
REMARK  16 active torsions:
REMARK  status: ('A' for Active; 'I' for Inactive)
REMARK    1  A    between atoms: C_1  and  C_2
REMARK    2  A    between atoms: C_2  and  C_3
REMARK    3  A    between atoms: C_3  and  S_4
REMARK    4  A    between atoms: S_4  and  N_7
REMARK    5  A    between atoms: N_7  and  C_8
REMARK    6  A    between atoms: C_11  and  N_29
REMARK    7  A    between atoms: C_12  and  C_14
REMARK    8  A    between atoms: C_14  and  N_15
REMARK    9  A    between atoms: N_15  and  C_16
REMARK   10  A    between atoms: C_16  and  C_17
REMARK   11  A    between atoms: C_17  and  C_18
REMARK   12  A    between atoms: C_17  and  C_19
REMARK   13  A    between atoms: C_20  and  C_22
REMARK   14  A    between atoms: N_29  and  C_30
REMARK   15  A    between atoms: N_29  and  C_31
REMARK   16  A    between atoms: N_34  and  C_37
REMARK                            x       y       z     vdW  Elec       q    Type
REMARK                         _______ _______ _______ _____ _____    ______ ____
ROOT
ATOM      1  C   UNL     1       3.084  -2.204  -1.512  0.00  0.00    +0.048 A 
ATOM      2  C   UNL     1       3.830  -1.138  -1.026  0.00  0.00    +0.026 A 
ATOM      3  C   UNL     1       5.095  -0.897  -1.524  0.00  0.00    +0.025 A 
ATOM      4  C   UNL     1       5.622  -1.721  -2.511  0.00  0.00    +0.035 A 
ATOM      5  C   UNL     1       4.876  -2.787  -2.996  0.00  0.00    -0.007 A 
ATOM      6  C   UNL     1       3.612  -3.031  -2.494  0.00  0.00    +0.031 A 
ENDROOT
BRANCH   1   7
ATOM      7  N   UNL     1       1.801  -2.448  -1.007  0.00  0.00    -0.221 N 
ATOM      8  H   UNL     1       1.071  -2.647  -1.613  0.00  0.00    +0.173 HD
BRANCH   7   9
ATOM      9  S   UNL     1       1.531  -2.397   0.626  0.00  0.00    +0.043 S 
ATOM     10  O   UNL     1       0.162  -2.748   0.778  0.00  0.00    -0.155 OA
ATOM     11  O   UNL     1       2.000  -1.118   1.032  0.00  0.00    -0.155 OA
BRANCH   9  12
ATOM     12  C   UNL     1       2.590  -3.698   1.315  0.00  0.00    +0.188 C 
BRANCH  12  14
ATOM     13  C   UNL     1       3.407  -4.760   3.424  0.00  0.00    +0.005 C 
ATOM     14  C   UNL     1       2.514  -3.663   2.843  0.00  0.00    +0.021 C 
ENDBRANCH  12  14
ENDBRANCH   9  12
ENDBRANCH   7   9
ENDBRANCH   1   7
BRANCH   4  15
ATOM     15  N   UNL     1       6.904  -1.476  -3.016  0.00  0.00    -0.330 N 
ATOM     16  C   UNL     1       8.073  -2.079  -2.371  0.00  0.00    +0.129 C 
BRANCH  15  17
ATOM     17  C   UNL     1       7.077  -0.617  -4.190  0.00  0.00    +0.070 C 
ATOM     18  C   UNL     1       7.793  -1.399  -5.296  0.00  0.00    +0.004 C 
ATOM     19  C   UNL     1       8.041  -0.473  -6.489  0.00  0.00    -0.077 C 
ATOM     20  N   UNL     1       8.876   0.659  -6.069  0.00  0.00    +0.378 N 
ATOM     21  C   UNL     1       8.165   1.454  -5.060  0.00  0.00    -0.077 C 
ATOM     22  C   UNL     1       7.922   0.603  -3.812  0.00  0.00    +0.004 C 
ATOM     23  C   UNL     1       9.176   1.502  -7.233  0.00  0.00    -0.096 C 
ATOM     24  H   UNL     1       9.738   0.312  -5.676  0.00  0.00    -0.082 HD
ENDBRANCH  15  17
ENDBRANCH   4  15
BRANCH   5  25
ATOM     25  C   UNL     1       5.446  -3.680  -4.067  0.00  0.00    +0.145 C 
BRANCH  25  26
ATOM     26  N   UNL     1       4.460  -4.701  -4.429  0.00  0.00    -0.293 N 
ATOM     27  C   UNL     1       4.361  -5.830  -3.700  0.00  0.00    +0.247 C 
ATOM     28  O   UNL     1       5.087  -6.000  -2.740  0.00  0.00    -0.270 OA
BRANCH  27  29
ATOM     29  C   UNL     1       3.369  -6.862  -4.067  0.00  0.00    +0.037 A 
ATOM     30  C   UNL     1       2.909  -6.954  -5.382  0.00  0.00    +0.016 A 
ATOM     31  C   UNL     1       1.983  -7.919  -5.720  0.00  0.00    +0.039 A 
ATOM     32  C   UNL     1       1.509  -8.795  -4.756  0.00  0.00    +0.123 A 
ATOM     33  C   UNL     1       1.962  -8.707  -3.448  0.00  0.00    +0.039 A 
ATOM     34  C   UNL     1       2.892  -7.751  -3.102  0.00  0.00    +0.016 A 
ATOM     35  F   UNL     1       0.601  -9.738  -5.091  0.00  0.00    -0.205 F 
ENDBRANCH  27  29
BRANCH  26  36
ATOM     36  C   UNL     1       3.581  -4.494  -5.582  0.00  0.00    +0.111 C 
BRANCH  36  37
ATOM     37  C   UNL     1       4.330  -4.856  -6.866  0.00  0.00    +0.000 C 
ATOM     38  C   UNL     1       3.376  -4.760  -8.058  0.00  0.00    +0.009 C 
ATOM     39  C   UNL     1       5.497  -3.887  -7.067  0.00  0.00    +0.009 C 
ENDBRANCH  36  37
ENDBRANCH  26  36
ENDBRANCH  25  26
ENDBRANCH   5  25
TORSDOF 11
