REMARK  Name = ZINC46114249
REMARK  9 active torsions:
REMARK  status: ('A' for Active; 'I' for Inactive)
REMARK    1  A    between atoms: C_1  and  C_2
REMARK    2  A    between atoms: C_5  and  C_8
REMARK    3  A    between atoms: C_10  and  C_13
REMARK    4  A    between atoms: C_13  and  S_14
REMARK    5  A    between atoms: S_14  and  C_17
REMARK    6  A    between atoms: C_17  and  C_19
REMARK    7  A    between atoms: C_17  and  C_20
REMARK    8  A    between atoms: N_22  and  C_23
REMARK    9  A    between atoms: C_29  and  C_31
REMARK                            x       y       z     vdW  Elec       q    Type
REMARK                         _______ _______ _______ _____ _____    ______ ____
ROOT
ATOM      1  S   UNL     1      -1.602  -7.979   2.018  0.00  0.00    -0.011 S 
ATOM      2  O   UNL     1      -2.226  -6.929   2.744  0.00  0.00    -0.173 OA
ATOM      3  O   UNL     1      -2.208  -8.446   0.821  0.00  0.00    -0.173 OA
ENDROOT
BRANCH   1   4
ATOM      4  C   UNL     1      -1.371  -9.390   3.134  0.00  0.00    +0.213 C 
ATOM      5  C   UNL     1      -0.600  -8.938   4.375  0.00  0.00    +0.042 C 
BRANCH   4   6
ATOM      6  C   UNL     1      -2.716  -9.930   3.547  0.00  0.00    +0.237 C 
ATOM      7  O   UNL     1      -3.705  -9.234   3.447  0.00  0.00    -0.274 OA
ATOM      8  N   UNL     1      -2.820 -11.184   4.027  0.00  0.00    -0.311 N 
ATOM      9  H   UNL     1      -2.030 -11.740   4.107  0.00  0.00    +0.149 HD
BRANCH   8  10
ATOM     10  C   UNL     1      -4.128 -11.709   4.429  0.00  0.00    +0.076 C 
ATOM     11  C   UNL     1      -4.849 -12.275   3.203  0.00  0.00    +0.022 C 
ATOM     12  C   UNL     1      -6.214 -12.823   3.623  0.00  0.00    +0.002 C 
ATOM     13  C   UNL     1      -6.023 -13.931   4.659  0.00  0.00    +0.000 C 
ATOM     14  C   UNL     1      -5.302 -13.365   5.885  0.00  0.00    +0.005 C 
ATOM     15  C   UNL     1      -3.936 -12.818   5.465  0.00  0.00    +0.006 C 
ATOM     16  C   UNL     1      -3.216 -12.252   6.690  0.00  0.00    +0.009 C 
ENDBRANCH   8  10
ENDBRANCH   4   6
ENDBRANCH   1   4
BRANCH   1  17
ATOM     17  C   UNL     1       0.102  -7.482   1.642  0.00  0.00    +0.265 C 
BRANCH  17  20
ATOM     18  C   UNL     1       0.059  -4.256  -0.021  0.00  0.00    +0.202 A 
ATOM     19  N   UNL     1       0.070  -5.047   1.067  0.00  0.00    -0.190 NA
ATOM     20  C   UNL     1       0.086  -6.299   0.708  0.00  0.00    +0.249 A 
ATOM     21  O   UNL     1       0.086  -6.357  -0.630  0.00  0.00    -0.336 OA
ATOM     22  N   UNL     1       0.064  -5.015  -1.090  0.00  0.00    -0.056 NA
BRANCH  18  27
ATOM     23  C   UNL     1      -0.018   1.503   0.010  0.00  0.00    +0.044 C 
ATOM     24  C   UNL     1       0.002  -0.004   0.002  0.00  0.00    -0.050 A 
ATOM     25  C   UNL     1       0.006  -0.686  -1.201  0.00  0.00    +0.004 A 
ATOM     26  C   UNL     1       0.024  -2.067  -1.214  0.00  0.00    +0.012 A 
ATOM     27  C   UNL     1       0.040  -2.772  -0.013  0.00  0.00    +0.022 A 
ATOM     28  C   UNL     1       0.036  -2.080   1.196  0.00  0.00    +0.012 A 
ATOM     29  C   UNL     1       0.023  -0.700   1.198  0.00  0.00    +0.004 A 
ENDBRANCH  18  27
ENDBRANCH  17  20
ENDBRANCH   1  17
TORSDOF 6
