REMARK  Name = ZINC39538734
REMARK  10 active torsions:
REMARK  status: ('A' for Active; 'I' for Inactive)
REMARK    1  A    between atoms: C_1  and  C_2
REMARK    2  A    between atoms: C_2  and  N_3
REMARK    3  A    between atoms: C_8  and  C_17
REMARK    4  A    between atoms: C_10  and  C_12
REMARK    5  A    between atoms: N_19  and  C_20
REMARK    6  A    between atoms: C_20  and  C_22
REMARK    7  A    between atoms: C_20  and  C_26
REMARK    8  A    between atoms: C_22  and  C_23
REMARK    9  A    between atoms: C_23  and  S_24
REMARK   10  A    between atoms: S_24  and  C_25
REMARK                            x       y       z     vdW  Elec       q    Type
REMARK                         _______ _______ _______ _____ _____    ______ ____
ROOT
ATOM      1  C   UNL     1       3.904  -1.991   4.352  0.00  0.00    +0.245 C 
ATOM      2  O   UNL     1       3.006  -2.098   5.163  0.00  0.00    -0.270 OA
ATOM      3  N   UNL     1       5.168  -2.303   4.701  0.00  0.00    -0.302 N 
ATOM      4  H   UNL     1       5.885  -2.217   4.054  0.00  0.00    +0.150 HD
ENDROOT
BRANCH   1  10
ATOM      5  N   UNL     1       0.711  -0.489   1.189  0.00  0.00    -0.247 N 
ATOM      6  C   UNL     1       2.057  -0.735   1.278  0.00  0.00    +0.160 A 
ATOM      7  C   UNL     1       2.292  -1.183   2.594  0.00  0.00    +0.051 A 
ATOM      8  C   UNL     1       1.049  -1.189   3.259  0.00  0.00    +0.145 A 
ATOM      9  N   UNL     1       0.132  -0.777   2.430  0.00  0.00    -0.177 NA
ATOM     10  C   UNL     1       3.611  -1.517   2.982  0.00  0.00    +0.051 A 
ATOM     11  C   UNL     1       4.622  -1.385   2.039  0.00  0.00    +0.042 A 
ATOM     12  C   UNL     1       4.303  -0.933   0.752  0.00  0.00    +0.081 A 
ATOM     13  N   UNL     1       3.058  -0.628   0.417  0.00  0.00    -0.227 NA
BRANCH  12  14
ATOM     14  C   UNL     1       5.376  -0.793  -0.251  0.00  0.00    +0.038 A 
ATOM     15  C   UNL     1       5.293  -0.368  -1.552  0.00  0.00    +0.017 A 
ATOM     16  C   UNL     1       6.442  -0.318  -2.307  0.00  0.00    +0.008 A 
ATOM     17  C   UNL     1       7.621  -0.691  -1.743  0.00  0.00    +0.046 A 
ATOM     18  S   UNL     1       7.123  -1.125  -0.085  0.00  0.00    -0.095 S 
ENDBRANCH  12  14
BRANCH   5  20
ATOM     19  C   UNL     1      -0.019   1.526   0.010  0.00  0.00    +0.029 C 
ATOM     20  C   UNL     1       0.002  -0.004   0.002  0.00  0.00    +0.142 C 
ENDBRANCH   5  20
ENDBRANCH   1  10
BRANCH   3  21
ATOM     21  C   UNL     1       5.459  -2.773   6.058  0.00  0.00    +0.140 C 
BRANCH  21  22
ATOM     22  C   UNL     1       6.714  -3.607   6.043  0.00  0.00    +0.129 A 
ATOM     23  N   UNL     1       6.769  -4.936   6.327  0.00  0.00    -0.340 N 
ATOM     24  H   UNL     1       6.021  -5.504   6.569  0.00  0.00    +0.167 HD
ATOM     25  C   UNL     1       8.088  -5.327   6.204  0.00  0.00    +0.066 A 
ATOM     26  C   UNL     1       8.757  -6.533   6.363  0.00  0.00    +0.028 A 
ATOM     27  C   UNL     1      10.120  -6.589   6.161  0.00  0.00    +0.002 A 
ATOM     28  C   UNL     1      10.825  -5.450   5.800  0.00  0.00    +0.002 A 
ATOM     29  C   UNL     1      10.182  -4.255   5.638  0.00  0.00    +0.030 A 
ATOM     30  C   UNL     1       8.802  -4.174   5.838  0.00  0.00    +0.089 A 
ATOM     31  N   UNL     1       7.901  -3.162   5.752  0.00  0.00    -0.231 NA
ENDBRANCH  21  22
BRANCH  21  32
ATOM     32  C   UNL     1       5.657  -1.570   6.983  0.00  0.00    +0.041 C 
BRANCH  32  33
ATOM     33  C   UNL     1       4.344  -0.792   7.096  0.00  0.00    +0.071 C 
BRANCH  33  34
ATOM     34  S   UNL     1       4.579   0.634   8.192  0.00  0.00    -0.164 S 
ATOM     35  C   UNL     1       2.954   1.439   8.219  0.00  0.00    +0.084 C 
ENDBRANCH  33  34
ENDBRANCH  32  33
ENDBRANCH  21  32
ENDBRANCH   3  21
TORSDOF 8
