REMARK  Name = ZINC09353139
REMARK  6 active torsions:
REMARK  status: ('A' for Active; 'I' for Inactive)
REMARK    1  A    between atoms: C_1  and  C_2
REMARK    2  A    between atoms: C_2  and  C_3
REMARK    3  A    between atoms: C_2  and  C_4
REMARK    4  A    between atoms: C_2  and  N_5
REMARK    5  A    between atoms: C_22  and  C_23
REMARK    6  A    between atoms: C_22  and  N_63
REMARK                            x       y       z     vdW  Elec       q    Type
REMARK                         _______ _______ _______ _____ _____    ______ ____
ROOT
ATOM      1  N   UNL     1       1.148   1.874   0.002  0.00  0.00    -0.219 N 
ATOM      2  C   UNL     1      -0.015   1.206  -0.016  0.00  0.00    +0.241 C 
ATOM      3  O   UNL     1       0.003  -0.006  -0.045  0.00  0.00    -0.274 OA
ATOM      4  C   UNL     1      -1.338   1.916  -0.007  0.00  0.00    +0.144 C 
ATOM      5  C   UNL     1      -2.149   1.476   1.215  0.00  0.00    +0.064 C 
ATOM      6  C   UNL     1      -2.638   0.063   1.022  0.00  0.00    -0.025 A 
ATOM      7  C   UNL     1      -3.103  -0.625   2.132  0.00  0.00    +0.005 A 
ATOM      8  C   UNL     1      -3.568  -1.919   2.010  0.00  0.00    +0.000 A 
ATOM      9  C   UNL     1      -3.573  -2.536   0.773  0.00  0.00    +0.002 A 
ATOM     10  C   UNL     1      -3.111  -1.859  -0.335  0.00  0.00    +0.023 A 
ATOM     11  C   UNL     1      -2.635  -0.553  -0.218  0.00  0.00    +0.033 A 
ATOM     12  N   UNL     1      -2.164   0.073  -1.368  0.00  0.00    -0.329 N 
ATOM     13  C   UNL     1      -2.132   1.533  -1.261  0.00  0.00    +0.081 C 
ATOM     14  C   UNL     1      -1.450   2.120  -2.499  0.00  0.00    -0.054 C 
ATOM     15  C   UNL     1      -2.223   0.232  -3.807  0.00  0.00    -0.059 C 
ATOM     16  C   UNL     1      -2.901  -0.353  -2.565  0.00  0.00    +0.087 C 
ATOM     17  C   UNL     1      -1.142   3.405   0.032  0.00  0.00    +0.238 C 
ATOM     18  O   UNL     1      -2.116   4.127   0.044  0.00  0.00    -0.274 OA
ATOM     19  N   UNL     1       0.079   3.958   0.049  0.00  0.00    -0.239 N 
ATOM     20  C   UNL     1       1.195   3.214   0.035  0.00  0.00    +0.315 C 
ATOM     21  O   UNL     1       2.276   3.768   0.053  0.00  0.00    -0.252 OA
ATOM     22  H   UNL     1       0.157   4.925   0.071  0.00  0.00    +0.159 HD
ATOM     23  N   UNL     1      -2.212   1.706  -3.698  0.00  0.00    +0.385 N 
ATOM     24  H   UNL     1      -3.179   2.041  -3.611  0.00  0.00    -0.081 HD
ENDROOT
BRANCH   1  26
ATOM     25  C   UNL     1       2.100  -0.377   0.102  0.00  0.00    +0.032 C 
ATOM     26  C   UNL     1       2.402   1.118  -0.017  0.00  0.00    +0.038 C 
ATOM     27  C   UNL     1       3.140   1.386  -1.331  0.00  0.00    +0.032 C 
ATOM     28  C   UNL     1       3.279   1.556   1.158  0.00  0.00    +0.032 C 
ENDBRANCH   1  26
BRANCH  23  29
ATOM     29  C   UNL     1      -1.607   2.297  -4.910  0.00  0.00    -0.043 C 
BRANCH  29  30
ATOM     30  C   UNL     1      -0.155   1.908  -5.020  0.00  0.00    -0.064 A 
ATOM     31  C   UNL     1       0.819   2.703  -4.446  0.00  0.00    +0.002 A 
ATOM     32  C   UNL     1       2.151   2.343  -4.542  0.00  0.00    +0.000 A 
ATOM     33  C   UNL     1       2.508   1.193  -5.221  0.00  0.00    +0.000 A 
ATOM     34  C   UNL     1       1.534   0.401  -5.800  0.00  0.00    +0.000 A 
ATOM     35  C   UNL     1       0.203   0.758  -5.699  0.00  0.00    +0.002 A 
ENDBRANCH  29  30
ENDBRANCH  23  29
TORSDOF 3
