REMARK  Name = ZINC41023392
REMARK  4 active torsions:
REMARK  status: ('A' for Active; 'I' for Inactive)
REMARK    1  A    between atoms: C_2  and  N_17
REMARK    2  A    between atoms: C_4  and  S_8
REMARK    3  A    between atoms: S_8  and  C_9
REMARK    4  A    between atoms: C_13  and  N_15
REMARK                            x       y       z     vdW  Elec       q    Type
REMARK                         _______ _______ _______ _____ _____    ______ ____
ROOT
ATOM      1  C   UNL     1       3.478  -2.531   0.104  0.00  0.00    +0.196 A 
ATOM      2  N   UNL     1       2.193  -2.854   0.088  0.00  0.00    -0.207 NA
ATOM      3  C   UNL     1       1.808  -4.123   0.195  0.00  0.00    +0.122 A 
ATOM      4  C   UNL     1       2.774  -5.116   0.324  0.00  0.00    +0.086 A 
ATOM      5  C   UNL     1       4.114  -4.739   0.337  0.00  0.00    +0.122 A 
ATOM      6  N   UNL     1       4.426  -3.451   0.220  0.00  0.00    -0.207 NA
ATOM      7  N   UNL     1       0.461  -4.452   0.177  0.00  0.00    -0.343 N 
ATOM      8  H   UNL     1      -0.207  -3.755   0.087  0.00  0.00    +0.144 HD
ATOM      9  H   UNL     1       0.187  -5.379   0.256  0.00  0.00    +0.144 HD
ENDROOT
BRANCH   5  10
ATOM     10  N   UNL     1       5.111  -5.694   0.464  0.00  0.00    -0.343 N 
ATOM     11  H   UNL     1       4.877  -6.632   0.545  0.00  0.00    +0.144 HD
ATOM     12  H   UNL     1       6.043  -5.424   0.472  0.00  0.00    +0.144 HD
ENDBRANCH   5  10
BRANCH   1  13
ATOM     13  S   UNL     1       3.940  -0.837  -0.041  0.00  0.00    -0.050 S 
BRANCH  13  17
ATOM     14  C   UNL     1      -0.013   1.387   0.012  0.00  0.00    +0.061 A 
ATOM     15  C   UNL     1       0.605   1.042   1.209  0.00  0.00    +0.028 A 
ATOM     16  C   UNL     1       1.814   0.361   1.194  0.00  0.00    +0.038 A 
ATOM     17  C   UNL     1       2.404   0.026  -0.018  0.00  0.00    +0.020 A 
ATOM     18  C   UNL     1       1.784   0.373  -1.211  0.00  0.00    +0.053 A 
ATOM     19  C   UNL     1       0.578   1.052  -1.194  0.00  0.00    +0.126 A 
ATOM     20  F   UNL     1      -0.025   1.388  -2.355  0.00  0.00    -0.205 F 
BRANCH  15  21
ATOM     21  N   UNL     1       0.008   1.380   2.426  0.00  0.00    -0.358 N 
ATOM     22  H   UNL     1      -0.837   1.856   2.436  0.00  0.00    +0.142 HD
ATOM     23  H   UNL     1       0.440   1.140   3.260  0.00  0.00    +0.142 HD
ENDBRANCH  15  21
ENDBRANCH  13  17
ENDBRANCH   1  13
TORSDOF 4
