REMARK  Name = ZINC20895463
REMARK  9 active torsions:
REMARK  status: ('A' for Active; 'I' for Inactive)
REMARK    1  A    between atoms: C_1  and  C_2
REMARK    2  A    between atoms: C_4  and  C_34
REMARK    3  A    between atoms: C_5  and  C_9
REMARK    4  A    between atoms: C_7  and  C_8
REMARK    5  A    between atoms: C_15  and  C_17
REMARK    6  A    between atoms: C_17  and  N_18
REMARK    7  A    between atoms: C_23  and  C_30
REMARK    8  A    between atoms: C_26  and  C_28
REMARK    9  A    between atoms: C_26  and  C_29
REMARK                            x       y       z     vdW  Elec       q    Type
REMARK                         _______ _______ _______ _____ _____    ______ ____
ROOT
ATOM      1  C   UNL     1       7.380   1.570  -4.639  0.00  0.00    +0.080 A 
ATOM      2  C   UNL     1       6.263   1.329  -5.390  0.00  0.00    +0.076 A 
ATOM      3  S   UNL     1       5.066   0.994  -4.104  0.00  0.00    -0.060 S 
ATOM      4  C   UNL     1       6.167   1.209  -2.713  0.00  0.00    +0.165 A 
ATOM      5  N   UNL     1       7.300   1.509  -3.318  0.00  0.00    -0.225 NA
ATOM      6  N   UNL     1       5.899   1.095  -1.354  0.00  0.00    -0.263 N 
ATOM      7  C   UNL     1       4.657   0.781  -0.936  0.00  0.00    +0.237 C 
ATOM      8  O   UNL     1       3.773   0.597  -1.746  0.00  0.00    -0.274 OA
ATOM      9  H   UNL     1       6.701   1.262  -0.620  0.00  0.00    +0.157 HD
ENDROOT
BRANCH   1  14
ATOM     10  C   UNL     1      12.376   2.862  -7.194  0.00  0.00    +0.044 C 
ATOM     11  C   UNL     1      11.069   2.524  -6.526  0.00  0.00    -0.047 A 
ATOM     12  C   UNL     1      10.618   3.290  -5.466  0.00  0.00    +0.007 A 
ATOM     13  C   UNL     1       9.419   2.989  -4.853  0.00  0.00    -0.041 A 
ATOM     14  C   UNL     1       8.666   1.903  -5.298  0.00  0.00    +0.004 A 
ATOM     15  C   UNL     1       9.125   1.135  -6.366  0.00  0.00    +0.014 A 
ATOM     16  C   UNL     1      10.323   1.449  -6.975  0.00  0.00    -0.047 A 
ATOM     17  C   UNL     1      10.820   0.620  -8.131  0.00  0.00    +0.044 C 
ATOM     18  C   UNL     1       8.927   3.829  -3.703  0.00  0.00    +0.044 C 
ENDBRANCH   1  14
BRANCH   7  19
ATOM     19  C   UNL     1       4.366   0.658   0.537  0.00  0.00    +0.214 C 
BRANCH  19  20
ATOM     20  N   UNL     1       2.957   0.311   0.730  0.00  0.00    -0.215 N 
ATOM     21  C   UNL     1       2.487  -0.954   0.790  0.00  0.00    +0.247 C 
ATOM     22  O   UNL     1       3.125  -1.963   0.579  0.00  0.00    -0.273 OA
ATOM     23  C   UNL     1       1.024  -0.832   1.141  0.00  0.00    +0.113 C 
ATOM     24  C   UNL     1       0.161  -1.563   0.123  0.00  0.00    +0.038 C 
ATOM     25  C   UNL     1       0.280  -3.074   0.324  0.00  0.00    -0.011 C 
ATOM     26  C   UNL     1      -0.238  -3.424   1.718  0.00  0.00    +0.009 C 
ATOM     27  C   UNL     1       0.599  -2.746   2.797  0.00  0.00    -0.032 C 
ATOM     28  C   UNL     1       0.742  -1.251   2.569  0.00  0.00    +0.041 C 
ATOM     29  C   UNL     1      -0.117  -2.957   4.149  0.00  0.00    +0.011 C 
ATOM     30  C   UNL     1       1.972  -3.414   2.896  0.00  0.00    +0.011 C 
ATOM     31  C   UNL     1      -0.571  -3.793  -0.728  0.00  0.00    +0.007 C 
ATOM     32  N   UNL     1       0.770   0.623   1.020  0.00  0.00    -0.285 N 
ATOM     33  C   UNL     1       1.968   1.205   0.845  0.00  0.00    +0.310 C 
ATOM     34  O   UNL     1       2.137   2.409   0.797  0.00  0.00    -0.252 OA
ATOM     35  H   UNL     1      -0.258   1.008   1.081  0.00  0.00    +0.151 HD
ENDBRANCH  19  20
ENDBRANCH   7  19
TORSDOF 3
