REMARK  Name = ZINC40945881
REMARK  13 active torsions:
REMARK  status: ('A' for Active; 'I' for Inactive)
REMARK    1  A    between atoms: C_1  and  C_2
REMARK    2  A    between atoms: C_2  and  O_3
REMARK    3  A    between atoms: O_3  and  C_4
REMARK    4  A    between atoms: C_4  and  C_6
REMARK    5  A    between atoms: C_7  and  C_24
REMARK    6  A    between atoms: C_10  and  N_11
REMARK    7  A    between atoms: N_11  and  S_12
REMARK    8  A    between atoms: S_12  and  C_15
REMARK    9  A    between atoms: C_19  and  N_21
REMARK   10  A    between atoms: C_27  and  O_32
REMARK   11  A    between atoms: C_28  and  O_30
REMARK   12  A    between atoms: O_30  and  C_31
REMARK   13  A    between atoms: O_32  and  C_33
REMARK                            x       y       z     vdW  Elec       q    Type
REMARK                         _______ _______ _______ _____ _____    ______ ____
ROOT
ATOM      1  C   UNL     1      -2.800  -2.398   0.016  0.00  0.00    +0.098 A 
ATOM      2  C   UNL     1      -3.513  -2.699  -1.215  0.00  0.00    +0.005 A 
ATOM      3  C   UNL     1      -4.750  -3.232  -1.056  0.00  0.00    +0.056 A 
ATOM      4  S   UNL     1      -4.936  -3.320   0.711  0.00  0.00    -0.077 S 
ATOM      5  C   UNL     1      -3.460  -2.694   1.201  0.00  0.00    +0.126 A 
ENDROOT
BRANCH   2   6
ATOM      6  C   UNL     1      -2.927  -2.440  -2.552  0.00  0.00    -0.013 A 
ATOM      7  C   UNL     1      -2.368  -1.196  -2.841  0.00  0.00    +0.012 A 
ATOM      8  C   UNL     1      -1.823  -0.956  -4.086  0.00  0.00    +0.050 A 
ATOM      9  C   UNL     1      -1.831  -1.950  -5.052  0.00  0.00    +0.162 A 
ATOM     10  C   UNL     1      -2.387  -3.195  -4.769  0.00  0.00    +0.162 A 
ATOM     11  C   UNL     1      -2.929  -3.443  -3.521  0.00  0.00    +0.058 A 
BRANCH  10  12
ATOM     12  O   UNL     1      -2.393  -4.169  -5.719  0.00  0.00    -0.491 OA
ATOM     13  C   UNL     1      -2.981  -5.421  -5.360  0.00  0.00    +0.277 C 
ENDBRANCH  10  12
BRANCH   9  14
ATOM     14  O   UNL     1      -1.294  -1.710  -6.278  0.00  0.00    -0.491 OA
ATOM     15  C   UNL     1      -0.740  -0.411  -6.500  0.00  0.00    +0.277 C 
ENDBRANCH   9  14
ENDBRANCH   2   6
BRANCH   1  16
ATOM     16  C   UNL     1      -1.497  -1.839   0.006  0.00  0.00    +0.342 C 
ATOM     17  O   UNL     1      -0.522  -2.567  -0.007  0.00  0.00    -0.245 OA
BRANCH  16  18
ATOM     18  O   UNL     1      -1.339  -0.499   0.012  0.00  0.00    -0.461 OA
BRANCH  18  20
ATOM     19  C   UNL     1      -0.019   1.526   0.010  0.00  0.00    +0.048 C 
ATOM     20  C   UNL     1       0.002  -0.004   0.002  0.00  0.00    +0.229 C 
ENDBRANCH  18  20
ENDBRANCH  16  18
ENDBRANCH   1  16
BRANCH   5  21
ATOM     21  N   UNL     1      -3.004  -2.510   2.491  0.00  0.00    -0.090 NA
BRANCH  21  22
ATOM     22  S   UNL     1      -3.961  -2.934   3.775  0.00  0.00    +0.092 S 
ATOM     23  O   UNL     1      -5.081  -2.060   3.753  0.00  0.00    -0.148 OA
ATOM     24  O   UNL     1      -4.097  -4.348   3.731  0.00  0.00    -0.148 OA
BRANCH  22  25
ATOM     25  C   UNL     1      -3.060  -2.561   5.242  0.00  0.00    +0.113 A 
ATOM     26  C   UNL     1      -2.229  -3.512   5.804  0.00  0.00    +0.029 A 
ATOM     27  C   UNL     1      -1.522  -3.219   6.955  0.00  0.00    +0.004 A 
ATOM     28  C   UNL     1      -1.645  -1.975   7.544  0.00  0.00    +0.033 A 
ATOM     29  C   UNL     1      -2.475  -1.023   6.982  0.00  0.00    +0.128 A 
ATOM     30  C   UNL     1      -3.179  -1.315   5.828  0.00  0.00    +0.061 A 
BRANCH  29  31
ATOM     31  N   UNL     1      -2.607   0.309   7.613  0.00  0.00    +0.056 N 
ATOM     32  O   UNL     1      -1.989   0.565   8.620  0.00  0.00    -0.126 OA
ATOM     33  O   UNL     1      -3.333   1.142   7.121  0.00  0.00    -0.126 OA
ENDBRANCH  29  31
ENDBRANCH  22  25
ENDBRANCH  21  22
ENDBRANCH   5  21
TORSDOF 10
