REMARK  Name = ZINC44783236
REMARK  6 active torsions:
REMARK  status: ('A' for Active; 'I' for Inactive)
REMARK    1  A    between atoms: C_1  and  C_2
REMARK    2  A    between atoms: C_2  and  C_3
REMARK    3  A    between atoms: C_3  and  N_4
REMARK    4  A    between atoms: C_5  and  C_7
REMARK    5  A    between atoms: C_7  and  C_13
REMARK    6  A    between atoms: N_14  and  O_15
REMARK                            x       y       z     vdW  Elec       q    Type
REMARK                         _______ _______ _______ _____ _____    ______ ____
ROOT
ATOM      1  C   UNL     1       1.337  -4.126  -2.407  0.00  0.00    +0.105 C 
ATOM      2  C   UNL     1      -0.098  -4.650  -2.498  0.00  0.00    +0.024 C 
ATOM      3  C   UNL     1      -0.784  -4.048  -3.726  0.00  0.00    +0.001 C 
ATOM      4  C   UNL     1      -0.014  -4.447  -4.987  0.00  0.00    +0.000 C 
ATOM      5  C   UNL     1       1.420  -3.923  -4.896  0.00  0.00    +0.001 C 
ATOM      6  C   UNL     1       2.106  -4.525  -3.668  0.00  0.00    +0.024 C 
ENDROOT
BRANCH   1   7
ATOM      7  C   UNL     1       2.013  -4.719  -1.198  0.00  0.00    +0.147 C 
ATOM      8  N   UNL     1       3.128  -5.358  -1.329  0.00  0.00    -0.076 NA
ATOM      9  N   UNL     1       1.441  -4.580   0.048  0.00  0.00    -0.343 N 
ATOM     10  H   UNL     1       0.644  -4.039   0.158  0.00  0.00    +0.144 HD
ATOM     11  H   UNL     1       1.836  -5.024   0.815  0.00  0.00    +0.144 HD
BRANCH   8  12
ATOM     12  O   UNL     1       3.763  -5.915  -0.193  0.00  0.00    -0.408 OA
ATOM     13  H   UNL     1       4.591  -6.374  -0.390  0.00  0.00    +0.328 HD
ENDBRANCH   8  12
ENDBRANCH   1   7
BRANCH   1  15
ATOM     14  N   UNL     1       2.469  -1.928  -2.334  0.00  0.00    -0.315 N 
ATOM     15  C   UNL     1       1.316  -2.624  -2.285  0.00  0.00    +0.226 C 
ATOM     16  O   UNL     1       0.262  -2.042  -2.143  0.00  0.00    -0.275 OA
ATOM     17  H   UNL     1       3.317  -2.397  -2.374  0.00  0.00    +0.149 HD
BRANCH  14  18
ATOM     18  C   UNL     1       2.442  -0.464  -2.326  0.00  0.00    +0.104 C 
BRANCH  18  20
ATOM     19  C   UNL     1       3.844   1.603  -2.380  0.00  0.00    +0.005 C 
ATOM     20  C   UNL     1       3.873   0.074  -2.388  0.00  0.00    +0.015 C 
ENDBRANCH  18  20
ENDBRANCH  14  18
ENDBRANCH   1  15
TORSDOF 5
