REMARK  Name = ZINC05860646
REMARK  9 active torsions:
REMARK  status: ('A' for Active; 'I' for Inactive)
REMARK    1  A    between atoms: C_1  and  C_2
REMARK    2  A    between atoms: C_2  and  C_4
REMARK    3  A    between atoms: C_2  and  O_16
REMARK    4  A    between atoms: N_6  and  C_7
REMARK    5  A    between atoms: C_10  and  N_13
REMARK    6  A    between atoms: N_13  and  C_14
REMARK    7  A    between atoms: N_13  and  C_15
REMARK    8  A    between atoms: O_16  and  C_17
REMARK    9  A    between atoms: C_17  and  C_19
REMARK                            x       y       z     vdW  Elec       q    Type
REMARK                         _______ _______ _______ _____ _____    ______ ____
ROOT
ATOM      1  O   UNL     1      -0.341   2.925  -4.370  0.00  0.00    -0.449 OA
ENDROOT
BRANCH   1   3
ATOM      2  C   UNL     1      -0.925   3.195  -6.718  0.00  0.00    +0.062 C 
ATOM      3  C   UNL     1      -0.521   2.209  -5.620  0.00  0.00    +0.259 C 
BRANCH   3   4
ATOM      4  C   UNL     1       0.770   1.533  -6.002  0.00  0.00    +0.258 C 
ATOM      5  O   UNL     1       1.746   1.643  -5.290  0.00  0.00    -0.271 OA
ATOM      6  N   UNL     1       0.840   0.805  -7.135  0.00  0.00    -0.282 N 
ATOM      7  H   UNL     1       0.043   0.661  -7.669  0.00  0.00    +0.155 HD
BRANCH   6   8
ATOM      8  C   UNL     1       2.064   0.257  -7.540  0.00  0.00    +0.034 A 
ATOM      9  C   UNL     1       2.369   0.163  -8.892  0.00  0.00    +0.025 A 
ATOM     10  C   UNL     1       3.578  -0.373  -9.291  0.00  0.00    +0.025 A 
ATOM     11  C   UNL     1       4.484  -0.827  -8.342  0.00  0.00    +0.029 A 
ATOM     12  C   UNL     1       4.176  -0.738  -6.990  0.00  0.00    +0.025 A 
ATOM     13  C   UNL     1       2.970  -0.198  -6.591  0.00  0.00    +0.025 A 
BRANCH  11  14
ATOM     14  N   UNL     1       5.706  -1.374  -8.747  0.00  0.00    -0.336 N 
ATOM     15  C   UNL     1       6.614  -1.953  -7.754  0.00  0.00    +0.129 C 
ATOM     16  C   UNL     1       6.078  -1.367 -10.164  0.00  0.00    +0.129 C 
ENDBRANCH  11  14
ENDBRANCH   6   8
ENDBRANCH   3   4
ENDBRANCH   1   3
BRANCH   1  17
ATOM     17  C   UNL     1      -1.422   3.051  -3.576  0.00  0.00    +0.341 C 
ATOM     18  O   UNL     1      -2.486   2.575  -3.918  0.00  0.00    -0.245 OA
BRANCH  17  19
ATOM     19  C   UNL     1      -1.314   3.767  -2.287  0.00  0.00    +0.073 A 
ATOM     20  C   UNL     1      -1.548   5.161  -2.210  0.00  0.00    +0.015 A 
ATOM     21  C   UNL     1      -1.888   5.913  -3.341  0.00  0.00    +0.011 A 
ATOM     22  C   UNL     1      -2.107   7.253  -3.218  0.00  0.00    +0.001 A 
ATOM     23  C   UNL     1      -1.996   7.884  -1.981  0.00  0.00    +0.002 A 
ATOM     24  C   UNL     1      -1.665   7.184  -0.863  0.00  0.00    +0.028 A 
ATOM     25  C   UNL     1      -1.431   5.798  -0.950  0.00  0.00    +0.072 A 
ATOM     26  N   UNL     1      -1.105   5.085   0.126  0.00  0.00    -0.251 NA
ATOM     27  C   UNL     1      -0.880   3.786   0.079  0.00  0.00    +0.046 A 
ATOM     28  C   UNL     1      -0.979   3.087  -1.117  0.00  0.00    -0.012 A 
ATOM     29  C   UNL     1      -0.739   1.603  -1.215  0.00  0.00    +0.038 C 
ATOM     30  C   UNL     1       0.019   1.099   0.011  0.00  0.00    +0.005 C 
ATOM     31  C   UNL     1      -0.707   1.598   1.267  0.00  0.00    +0.006 C 
ATOM     32  C   UNL     1      -0.506   3.107   1.374  0.00  0.00    +0.056 C 
ENDBRANCH  17  19
ENDBRANCH   1  17
TORSDOF 6
