REMARK  Name = ZINC47383560
REMARK  7 active torsions:
REMARK  status: ('A' for Active; 'I' for Inactive)
REMARK    1  A    between atoms: C_1  and  C_2
REMARK    2  A    between atoms: C_2  and  C_3
REMARK    3  A    between atoms: C_2  and  N_4
REMARK    4  A    between atoms: N_7  and  C_8
REMARK    5  A    between atoms: C_13  and  N_14
REMARK    6  A    between atoms: N_14  and  S_15
REMARK    7  A    between atoms: S_15  and  C_18
REMARK                            x       y       z     vdW  Elec       q    Type
REMARK                         _______ _______ _______ _____ _____    ______ ____
ROOT
ATOM      1  C   UNL     1       4.076  -0.972  -2.449  0.00  0.00    +0.057 A 
ATOM      2  C   UNL     1       4.863  -0.657  -1.351  0.00  0.00    +0.025 A 
ATOM      3  C   UNL     1       6.237  -0.785  -1.427  0.00  0.00    +0.002 A 
ATOM      4  C   UNL     1       6.832  -1.227  -2.594  0.00  0.00    +0.002 A 
ATOM      5  C   UNL     1       6.055  -1.543  -3.693  0.00  0.00    +0.026 A 
ATOM      6  C   UNL     1       4.675  -1.424  -3.624  0.00  0.00    +0.069 A 
ENDROOT
BRANCH   1  10
ATOM      7  N   UNL     1       0.799   0.326  -1.641  0.00  0.00    -0.297 N 
ATOM      8  C   UNL     1       2.135   0.147  -1.642  0.00  0.00    +0.304 C 
ATOM      9  O   UNL     1       2.846   0.879  -0.981  0.00  0.00    -0.253 OA
ATOM     10  N   UNL     1       2.682  -0.843  -2.375  0.00  0.00    -0.268 N 
ATOM     11  H   UNL     1       0.231  -0.258  -2.168  0.00  0.00    +0.151 HD
ATOM     12  H   UNL     1       2.111  -1.466  -2.851  0.00  0.00    +0.156 HD
BRANCH   7  14
ATOM     13  C   UNL     1       0.231   2.704  -1.647  0.00  0.00    +0.027 C 
ATOM     14  C   UNL     1       0.204   1.402  -0.845  0.00  0.00    +0.068 C 
ATOM     15  C   UNL     1      -1.243   1.043  -0.502  0.00  0.00    +0.027 C 
ENDBRANCH   7  14
ENDBRANCH   1  10
BRANCH   6  16
ATOM     16  N   UNL     1       3.886  -1.750  -4.733  0.00  0.00    -0.214 N 
ATOM     17  H   UNL     1       3.082  -1.242  -4.923  0.00  0.00    +0.174 HD
BRANCH  16  18
ATOM     18  S   UNL     1       4.326  -3.003  -5.722  0.00  0.00    +0.072 S 
ATOM     19  O   UNL     1       3.274  -3.167  -6.663  0.00  0.00    -0.150 OA
ATOM     20  O   UNL     1       5.669  -2.757  -6.117  0.00  0.00    -0.150 OA
BRANCH  18  21
ATOM     21  C   UNL     1       4.351  -4.462  -4.735  0.00  0.00    +0.109 A 
ATOM     22  C   UNL     1       5.511  -4.834  -4.081  0.00  0.00    +0.031 A 
ATOM     23  C   UNL     1       5.531  -5.978  -3.306  0.00  0.00    +0.040 A 
ATOM     24  C   UNL     1       4.389  -6.752  -3.184  0.00  0.00    +0.124 A 
ATOM     25  C   UNL     1       3.228  -6.378  -3.840  0.00  0.00    +0.040 A 
ATOM     26  C   UNL     1       3.209  -5.231  -4.610  0.00  0.00    +0.031 A 
ATOM     27  F   UNL     1       4.408  -7.871  -2.427  0.00  0.00    -0.205 F 
ENDBRANCH  18  21
ENDBRANCH  16  18
ENDBRANCH   6  16
TORSDOF 5
