REMARK  Name = ZINC31105431
REMARK  6 active torsions:
REMARK  status: ('A' for Active; 'I' for Inactive)
REMARK    1  A    between atoms: C_1  and  C_2
REMARK    2  A    between atoms: C_2  and  C_4
REMARK    3  A    between atoms: C_2  and  N_13
REMARK    4  A    between atoms: N_16  and  C_17
REMARK    5  A    between atoms: C_17  and  C_19
REMARK    6  A    between atoms: C_17  and  C_20
REMARK                            x       y       z     vdW  Elec       q    Type
REMARK                         _______ _______ _______ _____ _____    ______ ____
ROOT
ATOM      1  C   UNL     1       4.634   1.468  -2.838  0.00  0.00    +0.033 C 
ATOM      2  C   UNL     1       3.990   2.800  -2.448  0.00  0.00    +0.102 C 
ENDROOT
BRANCH   2   3
ATOM      3  C   UNL     1       5.060   3.850  -2.297  0.00  0.00    -0.024 A 
ATOM      4  C   UNL     1       5.804   3.914  -1.133  0.00  0.00    +0.009 A 
ATOM      5  C   UNL     1       6.790   4.873  -0.992  0.00  0.00    +0.050 A 
ATOM      6  C   UNL     1       7.027   5.779  -2.013  0.00  0.00    +0.166 A 
ATOM      7  C   UNL     1       6.274   5.718  -3.182  0.00  0.00    +0.167 A 
ATOM      8  C   UNL     1       5.291   4.752  -3.319  0.00  0.00    +0.055 A 
ATOM      9  O   UNL     1       6.694   6.707  -4.024  0.00  0.00    -0.453 OA
ATOM     10  C   UNL     1       7.983   7.114  -3.527  0.00  0.00    +0.466 C 
ATOM     11  O   UNL     1       7.920   6.807  -2.122  0.00  0.00    -0.453 OA
ENDBRANCH   2   3
BRANCH   2  12
ATOM     12  N   UNL     1       3.276   2.643  -1.178  0.00  0.00    -0.293 N 
ATOM     13  C   UNL     1       2.012   2.177  -1.168  0.00  0.00    +0.300 C 
ATOM     14  O   UNL     1       1.463   1.886  -2.214  0.00  0.00    -0.253 OA
ATOM     15  N   UNL     1       1.356   2.033   0.000  0.00  0.00    -0.297 N 
ATOM     16  H   UNL     1       3.773   2.906  -0.232  0.00  0.00    +0.151 HD
ATOM     17  H   UNL     1       1.852   2.296   0.946  0.00  0.00    +0.151 HD
BRANCH  15  18
ATOM     18  C   UNL     1      -0.019   1.526   0.010  0.00  0.00    +0.074 C 
ATOM     19  C   UNL     1       0.002  -0.004   0.002  0.00  0.00    +0.028 C 
BRANCH  18  20
ATOM     20  C   UNL     1      -0.735   2.019   1.269  0.00  0.00    +0.009 C 
ATOM     21  C   UNL     1      -1.091   0.979   2.333  0.00  0.00    +0.005 C 
ATOM     22  C   UNL     1      -2.191   1.594   1.466  0.00  0.00    +0.005 C 
ENDBRANCH  18  20
ENDBRANCH  15  18
ENDBRANCH   2  12
TORSDOF 4
