REMARK  Name = ZINC02322739
REMARK  10 active torsions:
REMARK  status: ('A' for Active; 'I' for Inactive)
REMARK    1  A    between atoms: C_1  and  C_2
REMARK    2  A    between atoms: C_2  and  C_3
REMARK    3  A    between atoms: C_3  and  S_4
REMARK    4  A    between atoms: S_4  and  C_5
REMARK    5  A    between atoms: N_9  and  C_10
REMARK    6  A    between atoms: C_10  and  C_11
REMARK    7  A    between atoms: C_11  and  O_13
REMARK    8  A    between atoms: C_11  and  O_14
REMARK    9  A    between atoms: O_14  and  C_15
REMARK   10  A    between atoms: N_31  and  C_32
REMARK                            x       y       z     vdW  Elec       q    Type
REMARK                         _______ _______ _______ _____ _____    ______ ____
ROOT
ATOM      1  C   UNL     1      -1.120   2.258   0.019  0.00  0.00    +0.172 A 
ATOM      2  N   UNL     1      -0.746   3.522   0.028  0.00  0.00    -0.204 NA
ATOM      3  C   UNL     1       0.585   3.603   0.016  0.00  0.00    +0.169 A 
ATOM      4  C   UNL     1       1.085   2.305   0.004  0.00  0.00    +0.152 A 
ATOM      5  N   UNL     1      -0.018   1.461   0.010  0.00  0.00    -0.307 N 
ATOM      6  C   UNL     1       2.477   2.105  -0.011  0.00  0.00    +0.280 A 
ATOM      7  O   UNL     1       2.937   0.977  -0.021  0.00  0.00    -0.265 OA
ATOM      8  N   UNL     1       3.297   3.176  -0.013  0.00  0.00    -0.273 N 
ATOM      9  H   UNL     1       4.287   3.037  -0.022  0.00  0.00    +0.173 HD
ATOM     10  C   UNL     1       2.804   4.426  -0.002  0.00  0.00    +0.331 A 
ATOM     11  O   UNL     1       3.574   5.367  -0.004  0.00  0.00    -0.246 OA
ATOM     12  N   UNL     1       1.479   4.662   0.013  0.00  0.00    -0.280 N 
ATOM     13  C   UNL     1       0.981   6.040   0.024  0.00  0.00    +0.155 C 
ENDROOT
BRANCH   1  14
ATOM     14  S   UNL     1      -2.788   1.690   0.022  0.00  0.00    -0.088 S 
BRANCH  14  15
ATOM     15  C   UNL     1      -3.660   3.275   0.034  0.00  0.00    +0.077 C 
BRANCH  15  17
ATOM     16  C   UNL     1      -5.908   4.367   0.049  0.00  0.00    +0.004 C 
ATOM     17  C   UNL     1      -5.170   3.027   0.038  0.00  0.00    +0.008 C 
ENDBRANCH  15  17
ENDBRANCH  14  15
ENDBRANCH   1  14
BRANCH   5  18
ATOM     18  C   UNL     1       0.002  -0.004   0.002  0.00  0.00    +0.199 C 
BRANCH  18  19
ATOM     19  C   UNL     1       0.023  -0.522   1.442  0.00  0.00    +0.325 C 
BRANCH  19  20
ATOM     20  O   UNL     1      -1.197  -0.164   2.094  0.00  0.00    -0.356 OA
ATOM     21  H   UNL     1      -1.989  -0.524   1.673  0.00  0.00    +0.214 HD
ENDBRANCH  19  20
BRANCH  19  22
ATOM     22  O   UNL     1       0.160  -1.944   1.434  0.00  0.00    -0.461 OA
BRANCH  22  23
ATOM     23  C   UNL     1       0.300  -2.556   2.639  0.00  0.00    +0.132 A 
ATOM     24  C   UNL     1       0.312  -1.818   3.788  0.00  0.00    +0.046 A 
ATOM     25  C   UNL     1       0.451  -2.430   5.031  0.00  0.00    +0.004 A 
ATOM     26  C   UNL     1       0.588  -3.781   5.136  0.00  0.00    +0.009 A 
ATOM     27  C   UNL     1       0.586  -4.575   3.977  0.00  0.00    -0.014 A 
ATOM     28  C   UNL     1       0.440  -3.957   2.711  0.00  0.00    +0.024 A 
ATOM     29  C   UNL     1       0.438  -4.751   1.552  0.00  0.00    +0.012 A 
ATOM     30  C   UNL     1       0.576  -6.101   1.661  0.00  0.00    +0.001 A 
ATOM     31  C   UNL     1       0.720  -6.710   2.906  0.00  0.00    +0.001 A 
ATOM     32  C   UNL     1       0.726  -5.972   4.050  0.00  0.00    +0.008 A 
ENDBRANCH  22  23
ENDBRANCH  19  22
ENDBRANCH  18  19
ENDBRANCH   5  18
TORSDOF 8
