REMARK  Name = ZINC19851582
REMARK  8 active torsions:
REMARK  status: ('A' for Active; 'I' for Inactive)
REMARK    1  A    between atoms: C_6  and  C_7
REMARK    2  A    between atoms: C_8  and  C_30
REMARK    3  A    between atoms: C_9  and  N_29
REMARK    4  A    between atoms: C_11  and  S_15
REMARK    5  A    between atoms: C_12  and  C_13
REMARK    6  A    between atoms: S_15  and  C_16
REMARK    7  A    between atoms: C_16  and  C_17
REMARK    8  A    between atoms: C_17  and  C_19
REMARK                            x       y       z     vdW  Elec       q    Type
REMARK                         _______ _______ _______ _____ _____    ______ ____
ROOT
ATOM      1  C   UNL     1      -1.267  -0.764   0.011  0.00  0.00    +0.023 A 
ATOM      2  C   UNL     1      -2.144  -0.700   1.112  0.00  0.00    +0.100 A 
ATOM      3  C   UNL     1      -3.340  -1.440   1.076  0.00  0.00    +0.136 A 
ATOM      4  N   UNL     1      -3.646  -2.187   0.028  0.00  0.00    -0.224 NA
ATOM      5  C   UNL     1      -2.853  -2.278  -1.029  0.00  0.00    +0.117 A 
ATOM      6  C   UNL     1      -1.638  -1.568  -1.085  0.00  0.00    +0.093 A 
ENDROOT
BRANCH   1  12
ATOM      7  C   UNL     1      -0.017   1.391   0.010  0.00  0.00    +0.010 A 
ATOM      8  C   UNL     1       1.170   2.095   0.002  0.00  0.00    +0.020 A 
ATOM      9  C   UNL     1       2.378   1.419  -0.013  0.00  0.00    +0.041 A 
ATOM     10  C   UNL     1       2.403   0.034  -0.021  0.00  0.00    +0.020 A 
ATOM     11  C   UNL     1       1.223  -0.680  -0.014  0.00  0.00    +0.010 A 
ATOM     12  C   UNL     1       0.002  -0.004   0.002  0.00  0.00    -0.015 A 
ATOM     13 CL   UNL     1       3.868   2.310  -0.022  0.00  0.00    -0.084 Cl
ENDBRANCH   1  12
BRANCH   3  14
ATOM     14  N   UNL     1      -4.206  -1.385   2.149  0.00  0.00    -0.342 N 
ATOM     15  H   UNL     1      -3.989  -0.840   2.921  0.00  0.00    +0.144 HD
ATOM     16  H   UNL     1      -5.033  -1.893   2.131  0.00  0.00    +0.144 HD
ENDBRANCH   3  14
BRANCH   6  17
ATOM     17  C   UNL     1      -0.790  -1.667  -2.235  0.00  0.00    +0.102 C 
ATOM     18  N   UNL     1      -0.117  -1.745  -3.147  0.00  0.00    -0.191 NA
ENDBRANCH   6  17
BRANCH   2  19
ATOM     19  C   UNL     1      -1.821   0.106   2.252  0.00  0.00    +0.103 C 
ATOM     20  N   UNL     1      -1.566   0.745   3.155  0.00  0.00    -0.191 NA
ENDBRANCH   2  19
BRANCH   5  21
ATOM     21  S   UNL     1      -3.328  -3.295  -2.387  0.00  0.00    -0.097 S 
BRANCH  21  22
ATOM     22  C   UNL     1      -4.926  -3.986  -1.880  0.00  0.00    +0.150 C 
BRANCH  22  23
ATOM     23  C   UNL     1      -5.452  -4.887  -2.967  0.00  0.00    +0.150 C 
ATOM     24  O   UNL     1      -4.814  -5.047  -3.980  0.00  0.00    -0.296 OA
BRANCH  23  25
ATOM     25  C   UNL     1      -6.774  -5.589  -2.791  0.00  0.00    +0.031 C 
ATOM     26  C   UNL     1      -6.710  -6.494  -1.559  0.00  0.00    +0.018 C 
ATOM     27  C   UNL     1      -8.052  -7.207  -1.380  0.00  0.00    -0.010 C 
ATOM     28  C   UNL     1      -8.350  -8.053  -2.619  0.00  0.00    +0.007 C 
ATOM     29  C   UNL     1      -8.413  -7.148  -3.851  0.00  0.00    -0.010 C 
ATOM     30  C   UNL     1      -7.071  -6.435  -4.030  0.00  0.00    +0.018 C 
ATOM     31  C   UNL     1      -9.521  -6.109  -3.665  0.00  0.00    +0.007 C 
ATOM     32  C   UNL     1      -9.224  -5.263  -2.425  0.00  0.00    -0.010 C 
ATOM     33  C   UNL     1      -9.160  -6.168  -1.193  0.00  0.00    +0.007 C 
ATOM     34  C   UNL     1      -7.882  -4.551  -2.604  0.00  0.00    +0.018 C 
ENDBRANCH  23  25
ENDBRANCH  22  23
ENDBRANCH  21  22
ENDBRANCH   5  21
TORSDOF 8
