REMARK  Name = ZINC28260349
REMARK  5 active torsions:
REMARK  status: ('A' for Active; 'I' for Inactive)
REMARK    1  A    between atoms: C_3  and  N_13
REMARK    2  A    between atoms: C_5  and  O_7
REMARK    3  A    between atoms: O_7  and  C_8
REMARK    4  A    between atoms: N_13  and  S_14
REMARK    5  A    between atoms: S_14  and  C_17
REMARK                            x       y       z     vdW  Elec       q    Type
REMARK                         _______ _______ _______ _____ _____    ______ ____
ROOT
ATOM      1  N   UNL     1       3.539   2.134  -0.420  0.00  0.00    -0.216 N 
ATOM      2  H   UNL     1       4.127   1.885  -1.150  0.00  0.00    +0.174 HD
ENDROOT
BRANCH   1   5
ATOM      3  C   UNL     1       0.012   1.374   0.285  0.00  0.00    +0.005 A 
ATOM      4  C   UNL     1       1.174   2.087   0.061  0.00  0.00    +0.025 A 
ATOM      5  C   UNL     1       2.364   1.415  -0.193  0.00  0.00    +0.052 A 
ATOM      6  C   UNL     1       2.382   0.027  -0.220  0.00  0.00    +0.070 A 
ATOM      7  C   UNL     1       1.214  -0.684   0.005  0.00  0.00    +0.123 A 
ATOM      8  C   UNL     1       0.029  -0.007   0.258  0.00  0.00    +0.046 A 
BRANCH   7   9
ATOM      9  O   UNL     1       1.229  -2.042  -0.021  0.00  0.00    -0.489 OA
BRANCH   9  10
ATOM     10  C   UNL     1      -0.030  -2.707   0.099  0.00  0.00    +0.173 C 
ATOM     11  C   UNL     1      -0.380  -2.911   1.587  0.00  0.00    +0.044 C 
ATOM     12  C   UNL     1      -1.068  -4.298   1.629  0.00  0.00    +0.004 C 
ATOM     13  C   UNL     1      -0.251  -5.117   0.599  0.00  0.00    +0.004 C 
ATOM     14  C   UNL     1       0.052  -4.110  -0.529  0.00  0.00    +0.044 C 
ENDBRANCH   9  10
ENDBRANCH   7   9
ENDBRANCH   1   5
BRANCH   1  15
ATOM     15  S   UNL     1       3.929   3.413   0.557  0.00  0.00    +0.072 S 
ATOM     16  O   UNL     1       5.175   3.913   0.093  0.00  0.00    -0.150 OA
ATOM     17  O   UNL     1       2.767   4.227   0.644  0.00  0.00    -0.150 OA
BRANCH  15  18
ATOM     18  C   UNL     1       4.214   2.768   2.171  0.00  0.00    +0.109 A 
ATOM     19  C   UNL     1       3.159   2.662   3.067  0.00  0.00    +0.032 A 
ATOM     20  C   UNL     1       3.361   2.159   4.335  0.00  0.00    +0.049 A 
ATOM     21  C   UNL     1       4.631   1.754   4.723  0.00  0.00    +0.139 A 
ATOM     22  C   UNL     1       5.697   1.863   3.813  0.00  0.00    +0.019 A 
ATOM     23  C   UNL     1       5.471   2.370   2.530  0.00  0.00    +0.040 A 
ATOM     24  C   UNL     1       7.035   1.433   4.231  0.00  0.00    +0.018 A 
ATOM     25  C   UNL     1       7.188   0.944   5.488  0.00  0.00    +0.092 A 
ATOM     26  C   UNL     1       6.072   0.863   6.349  0.00  0.00    +0.337 A 
ATOM     27  O   UNL     1       6.223   0.423   7.475  0.00  0.00    -0.245 OA
ATOM     28  O   UNL     1       4.851   1.259   5.960  0.00  0.00    -0.422 OA
ENDBRANCH  15  18
ENDBRANCH   1  15
TORSDOF 5
