REMARK  Name = ZINC65026883
REMARK  10 active torsions:
REMARK  status: ('A' for Active; 'I' for Inactive)
REMARK    1  A    between atoms: C_1  and  C_2
REMARK    2  A    between atoms: C_2  and  C_3
REMARK    3  A    between atoms: C_12  and  C_14
REMARK    4  A    between atoms: C_17  and  C_20
REMARK    5  A    between atoms: N_22  and  C_23
REMARK    6  A    between atoms: C_23  and  C_24
REMARK    7  A    between atoms: C_24  and  C_25
REMARK    8  A    between atoms: C_25  and  N_26
REMARK    9  A    between atoms: N_26  and  C_27
REMARK   10  A    between atoms: N_26  and  C_28
REMARK                            x       y       z     vdW  Elec       q    Type
REMARK                         _______ _______ _______ _____ _____    ______ ____
ROOT
ATOM      1  C   UNL     1      -0.830  -6.293  -1.585  0.00  0.00    -0.018 A 
ATOM      2  C   UNL     1      -0.525  -7.563  -1.094  0.00  0.00    +0.009 A 
ATOM      3  C   UNL     1      -0.917  -8.684  -1.791  0.00  0.00    +0.013 A 
ATOM      4  C   UNL     1      -1.621  -8.549  -2.990  0.00  0.00    +0.037 A 
ATOM      5  C   UNL     1      -1.926  -7.277  -3.481  0.00  0.00    +0.013 A 
ATOM      6  C   UNL     1      -1.538  -6.158  -2.780  0.00  0.00    +0.009 A 
ENDROOT
BRANCH   1  16
ATOM      7  C   UNL     1       0.731  -0.503   1.223  0.00  0.00    +0.220 C 
ATOM      8  O   UNL     1       1.189   0.287   2.021  0.00  0.00    -0.275 OA
ATOM      9  N   UNL     1       0.874  -1.828   1.428  0.00  0.00    -0.271 N 
ATOM     10  C   UNL     1       1.555  -2.431   2.576  0.00  0.00    +0.118 C 
ATOM     11  C   UNL     1       1.453  -3.949   2.355  0.00  0.00    +0.056 C 
ATOM     12  C   UNL     1       0.696  -4.093   1.054  0.00  0.00    -0.024 A 
ATOM     13  C   UNL     1       0.389  -2.826   0.579  0.00  0.00    +0.040 A 
ATOM     14  C   UNL     1      -0.320  -2.699  -0.619  0.00  0.00    +0.024 A 
ATOM     15  C   UNL     1      -0.714  -3.816  -1.318  0.00  0.00    +0.010 A 
ATOM     16  C   UNL     1      -0.407  -5.088  -0.834  0.00  0.00    -0.018 A 
ATOM     17  C   UNL     1       0.308  -5.217   0.356  0.00  0.00    +0.014 A 
BRANCH   7  19
ATOM     18  C   UNL     1      -0.019   1.526   0.010  0.00  0.00    +0.013 C 
ATOM     19  C   UNL     1       0.002  -0.004   0.002  0.00  0.00    +0.093 C 
ENDBRANCH   7  19
ENDBRANCH   1  16
BRANCH   4  20
ATOM     20  C   UNL     1      -2.041  -9.750  -3.739  0.00  0.00    +0.244 C 
ATOM     21  O   UNL     1      -1.775 -10.857  -3.312  0.00  0.00    -0.270 OA
ATOM     22  N   UNL     1      -2.720  -9.620  -4.896  0.00  0.00    -0.311 N 
ATOM     23  H   UNL     1      -2.932  -8.737  -5.237  0.00  0.00    +0.149 HD
BRANCH  22  24
ATOM     24  C   UNL     1      -3.137 -10.812  -5.639  0.00  0.00    +0.102 C 
BRANCH  24  25
ATOM     25  C   UNL     1      -3.884 -10.388  -6.905  0.00  0.00    +0.000 C 
BRANCH  25  26
ATOM     26  C   UNL     1      -4.320 -11.633  -7.681  0.00  0.00    -0.077 C 
BRANCH  26  27
ATOM     27  N   UNL     1      -5.037 -11.226  -8.897  0.00  0.00    +0.380 N 
ATOM     28  C   UNL     1      -4.117 -10.512  -9.792  0.00  0.00    -0.096 C 
ATOM     29  H   UNL     1      -5.803 -10.618  -8.648  0.00  0.00    -0.082 HD
BRANCH  27  30
ATOM     30  C   UNL     1      -5.559 -12.417  -9.579  0.00  0.00    -0.069 C 
ATOM     31  C   UNL     1      -6.517 -13.161  -8.647  0.00  0.00    -0.015 C 
ATOM     32  C   UNL     1      -7.060 -14.402  -9.358  0.00  0.00    -0.002 C 
ATOM     33  C   UNL     1      -7.807 -13.978 -10.624  0.00  0.00    -0.000 C 
ATOM     34  C   UNL     1      -6.849 -13.235 -11.557  0.00  0.00    -0.002 C 
ATOM     35  C   UNL     1      -6.306 -11.994 -10.846  0.00  0.00    -0.015 C 
ENDBRANCH  27  30
ENDBRANCH  26  27
ENDBRANCH  25  26
ENDBRANCH  24  25
ENDBRANCH  22  24
ENDBRANCH   4  20
TORSDOF 8
