REMARK  Name = ZINC36546428
REMARK  13 active torsions:
REMARK  status: ('A' for Active; 'I' for Inactive)
REMARK    1  A    between atoms: C_1  and  C_2
REMARK    2  A    between atoms: C_2  and  C_3
REMARK    3  A    between atoms: C_3  and  C_4
REMARK    4  A    between atoms: C_4  and  N_5
REMARK    5  A    between atoms: C_6  and  C_8
REMARK    6  A    between atoms: C_8  and  C_10
REMARK    7  A    between atoms: C_8  and  N_19
REMARK    8  A    between atoms: C_13  and  N_16
REMARK    9  A    between atoms: N_16  and  C_17
REMARK   10  A    between atoms: N_16  and  C_18
REMARK   11  A    between atoms: N_19  and  C_20
REMARK   12  A    between atoms: C_27  and  C_29
REMARK   13  A    between atoms: C_29  and  C_30
REMARK                            x       y       z     vdW  Elec       q    Type
REMARK                         _______ _______ _______ _____ _____    ______ ____
ROOT
ATOM      1  N   UNL     1      -4.454  -5.877  -0.129  0.00  0.00    -0.254 N 
ATOM      2  C   UNL     1      -5.641  -6.498   0.021  0.00  0.00    +0.225 C 
ATOM      3  O   UNL     1      -6.672  -5.866  -0.067  0.00  0.00    -0.275 OA
ENDROOT
BRANCH   1   4
ATOM      4  C   UNL     1      -3.264  -6.608  -0.027  0.00  0.00    +0.056 A 
ATOM      5  C   UNL     1      -2.796  -7.006   1.218  0.00  0.00    +0.025 A 
ATOM      6  C   UNL     1      -1.622  -7.727   1.315  0.00  0.00    +0.002 A 
ATOM      7  C   UNL     1      -0.911  -8.052   0.173  0.00  0.00    +0.002 A 
ATOM      8  C   UNL     1      -1.373  -7.656  -1.068  0.00  0.00    +0.022 A 
ATOM      9  C   UNL     1      -2.551  -6.940  -1.173  0.00  0.00    +0.062 A 
ATOM     10 CL   UNL     1      -3.135  -6.451  -2.733  0.00  0.00    -0.082 Cl
ENDBRANCH   1   4
BRANCH   1  11
ATOM     11  C   UNL     1      -4.409  -4.438  -0.398  0.00  0.00    +0.197 C 
BRANCH  11  12
ATOM     12  C   UNL     1      -4.913  -3.686   0.807  0.00  0.00    -0.018 A 
ATOM     13  C   UNL     1      -4.454  -4.016   2.068  0.00  0.00    +0.008 A 
ATOM     14  C   UNL     1      -4.914  -3.329   3.175  0.00  0.00    +0.023 A 
ATOM     15  C   UNL     1      -5.839  -2.305   3.019  0.00  0.00    +0.029 A 
ATOM     16  C   UNL     1      -6.299  -1.976   1.750  0.00  0.00    +0.023 A 
ATOM     17  C   UNL     1      -5.830  -2.663   0.647  0.00  0.00    +0.008 A 
BRANCH  15  18
ATOM     18  N   UNL     1      -6.307  -1.608   4.135  0.00  0.00    -0.336 N 
ATOM     19  C   UNL     1      -5.821  -1.957   5.473  0.00  0.00    +0.129 C 
ATOM     20  C   UNL     1      -7.283  -0.528   3.969  0.00  0.00    +0.129 C 
ENDBRANCH  15  18
ENDBRANCH  11  12
BRANCH  11  22
ATOM     21  N   UNL     1      -2.739  -3.088  -1.625  0.00  0.00    -0.313 N 
ATOM     22  C   UNL     1      -2.990  -4.025  -0.690  0.00  0.00    +0.238 C 
ATOM     23  O   UNL     1      -2.072  -4.537  -0.083  0.00  0.00    -0.273 OA
ATOM     24  H   UNL     1      -3.473  -2.679  -2.110  0.00  0.00    +0.149 HD
BRANCH  21  25
ATOM     25  C   UNL     1      -1.359  -2.687  -1.909  0.00  0.00    +0.104 C 
BRANCH  25  26
ATOM     26  C   UNL     1      -1.353  -1.616  -3.002  0.00  0.00    +0.018 C 
BRANCH  26  28
ATOM     27  C   UNL     1       0.093  -0.127  -4.392  0.00  0.00    +0.004 C 
ATOM     28  C   UNL     1       0.088  -1.197  -3.298  0.00  0.00    -0.002 C 
ENDBRANCH  26  28
ENDBRANCH  25  26
ENDBRANCH  21  25
ENDBRANCH  11  22
ENDBRANCH   1  11
BRANCH   2  29
ATOM     29  C   UNL     1      -5.686  -7.979   0.298  0.00  0.00    +0.131 C 
BRANCH  29  30
ATOM     30  C   UNL     1      -7.121  -8.423   0.422  0.00  0.00    -0.035 A 
ATOM     31  C   UNL     1      -7.746  -8.401   1.655  0.00  0.00    +0.008 A 
ATOM     32  C   UNL     1      -9.062  -8.807   1.774  0.00  0.00    +0.050 A 
ATOM     33  C   UNL     1      -9.759  -9.236   0.657  0.00  0.00    +0.166 A 
ATOM     34  C   UNL     1      -9.130  -9.258  -0.586  0.00  0.00    +0.166 A 
ATOM     35  C   UNL     1      -7.812  -8.845  -0.698  0.00  0.00    +0.053 A 
ATOM     36  O   UNL     1     -10.018  -9.716  -1.516  0.00  0.00    -0.453 OA
ATOM     37  C   UNL     1     -11.064 -10.359  -0.765  0.00  0.00    +0.466 C 
ATOM     38  O   UNL     1     -11.040  -9.680   0.505  0.00  0.00    -0.453 OA
ENDBRANCH  29  30
ENDBRANCH   2  29
TORSDOF 10
