REMARK  Name = ZINC12305234
REMARK  5 active torsions:
REMARK  status: ('A' for Active; 'I' for Inactive)
REMARK    1  A    between atoms: C_1  and  C_2
REMARK    2  A    between atoms: C_7  and  C_8
REMARK    3  A    between atoms: C_11  and  C_14
REMARK    4  A    between atoms: C_14  and  N_58
REMARK    5  A    between atoms: C_27  and  C_29
REMARK                            x       y       z     vdW  Elec       q    Type
REMARK                         _______ _______ _______ _____ _____    ______ ____
ROOT
ATOM      1  C   UNL     1      -1.233   2.583   1.515  0.00  0.00    -0.072 C 
ATOM      2  C   UNL     1      -0.676   1.941   0.237  0.00  0.00    +0.019 C 
ATOM      3  C   UNL     1      -1.361   2.581  -0.944  0.00  0.00    -0.022 A 
ATOM      4  C   UNL     1      -1.422   2.138  -2.319  0.00  0.00    +0.003 A 
ATOM      5  C   UNL     1      -0.895   1.026  -2.985  0.00  0.00    +0.010 A 
ATOM      6  C   UNL     1      -1.158   0.924  -4.328  0.00  0.00    +0.001 A 
ATOM      7  C   UNL     1      -1.911   1.871  -5.005  0.00  0.00    +0.002 A 
ATOM      8  C   UNL     1      -2.445   2.979  -4.372  0.00  0.00    +0.026 A 
ATOM      9  C   UNL     1      -2.193   3.110  -3.008  0.00  0.00    +0.047 A 
ATOM     10  N   UNL     1      -2.560   4.059  -2.097  0.00  0.00    -0.359 N 
ATOM     11  H   UNL     1      -3.096   4.843  -2.293  0.00  0.00    +0.166 HD
ATOM     12  C   UNL     1      -2.057   3.737  -0.866  0.00  0.00    +0.012 A 
ATOM     13  C   UNL     1      -2.219   4.516   0.419  0.00  0.00    +0.030 C 
ATOM     14  N   UNL     1      -1.179   4.055   1.369  0.00  0.00    +0.392 N 
ATOM     15  H   UNL     1      -0.256   4.319   1.005  0.00  0.00    -0.080 HD
ENDROOT
BRANCH  13  16
ATOM     16  C   UNL     1      -2.018   5.985   0.150  0.00  0.00    +0.033 A 
ATOM     17  C   UNL     1      -3.081   6.749  -0.293  0.00  0.00    +0.022 A 
ATOM     18  C   UNL     1      -2.886   8.100  -0.537  0.00  0.00    +0.003 A 
ATOM     19  C   UNL     1      -1.624   8.633  -0.326  0.00  0.00    +0.020 A 
ATOM     20  C   UNL     1      -0.609   7.807   0.118  0.00  0.00    +0.111 A 
ATOM     21  N   UNL     1      -0.832   6.527   0.345  0.00  0.00    -0.261 NA
ENDBRANCH  13  16
BRANCH  14  22
ATOM     22  C   UNL     1      -1.377   4.699   2.684  0.00  0.00    -0.038 C 
BRANCH  22  26
ATOM     23  C   UNL     1       1.915   3.831   5.116  0.00  0.00    +0.160 A 
ATOM     24  N   UNL     1       1.949   4.906   4.340  0.00  0.00    -0.235 NA
ATOM     25  C   UNL     1       0.926   5.208   3.560  0.00  0.00    +0.116 A 
ATOM     26  C   UNL     1      -0.191   4.386   3.560  0.00  0.00    -0.028 A 
ATOM     27  C   UNL     1      -0.196   3.274   4.388  0.00  0.00    +0.116 A 
ATOM     28  N   UNL     1       0.863   3.025   5.139  0.00  0.00    -0.235 NA
BRANCH  23  35
ATOM     29  C   UNL     1       4.582   3.902   3.997  0.00  0.00    +0.044 C 
ATOM     30  C   UNL     1       4.371   3.555   5.448  0.00  0.00    -0.040 A 
ATOM     31  C   UNL     1       5.454   3.269   6.255  0.00  0.00    +0.004 A 
ATOM     32  C   UNL     1       5.261   2.951   7.588  0.00  0.00    +0.000 A 
ATOM     33  C   UNL     1       3.984   2.918   8.119  0.00  0.00    +0.001 A 
ATOM     34  C   UNL     1       2.895   3.208   7.323  0.00  0.00    +0.012 A 
ATOM     35  C   UNL     1       3.083   3.524   5.978  0.00  0.00    +0.022 A 
ENDBRANCH  23  35
ENDBRANCH  22  26
ENDBRANCH  14  22
TORSDOF 4
