REMARK  Name = ZINC63166358
REMARK  5 active torsions:
REMARK  status: ('A' for Active; 'I' for Inactive)
REMARK    1  A    between atoms: C_1  and  N_2
REMARK    2  A    between atoms: N_2  and  C_3
REMARK    3  A    between atoms: C_3  and  C_4
REMARK    4  A    between atoms: N_7  and  C_10
REMARK    5  A    between atoms: C_15  and  N_16
REMARK                            x       y       z     vdW  Elec       q    Type
REMARK                         _______ _______ _______ _____ _____    ______ ____
ROOT
ATOM      1  C   UNL     1       0.703  -2.019   1.173  0.00  0.00    -0.025 C 
ATOM      2  C   UNL     1      -0.725  -2.547   1.324  0.00  0.00    +0.020 C 
ATOM      3  C   UNL     1      -0.706  -4.078   1.279  0.00  0.00    +0.105 C 
ATOM      4  N   UNL     1       0.230  -4.570   2.299  0.00  0.00    -0.328 N 
ATOM      5  C   UNL     1       1.607  -4.057   2.300  0.00  0.00    +0.105 C 
ATOM      6  C   UNL     1       1.562  -2.526   2.334  0.00  0.00    +0.020 C 
ENDROOT
BRANCH   4   7
ATOM      7  C   UNL     1      -0.181  -5.508   3.249  0.00  0.00    +0.060 A 
ATOM      8  C   UNL     1      -0.636  -5.086   4.492  0.00  0.00    +0.026 A 
ATOM      9  C   UNL     1      -1.042  -6.015   5.429  0.00  0.00    +0.017 A 
ATOM     10  C   UNL     1      -0.994  -7.366   5.132  0.00  0.00    +0.020 A 
ATOM     11  C   UNL     1      -0.541  -7.789   3.896  0.00  0.00    +0.050 A 
ATOM     12  C   UNL     1      -0.140  -6.864   2.951  0.00  0.00    +0.148 A 
ATOM     13 BR   UNL     1      -1.550  -8.635   6.419  0.00  0.00    -0.050 Br
BRANCH  12  14
ATOM     14  N   UNL     1       0.339  -7.318   1.627  0.00  0.00    +0.058 N 
ATOM     15  O   UNL     1       0.281  -8.489   1.331  0.00  0.00    -0.126 OA
ATOM     16  O   UNL     1       0.788  -6.517   0.840  0.00  0.00    -0.126 OA
ENDBRANCH  12  14
ENDBRANCH   4   7
BRANCH   1  17
ATOM     17  C   UNL     1       0.684  -0.489   1.184  0.00  0.00    -0.079 C 
BRANCH  17  19
ATOM     18  C   UNL     1      -0.057   1.469   0.012  0.00  0.00    -0.100 C 
ATOM     19  N   UNL     1      -0.039  -0.000   0.003  0.00  0.00    +0.377 N 
ATOM     20  H   UNL     1      -0.986  -0.348   0.020  0.00  0.00    -0.086 HD
ATOM     21  H   UNL     1       0.423  -0.325  -0.833  0.00  0.00    -0.086 HD
ENDBRANCH  17  19
ENDBRANCH   1  17
TORSDOF 4
