REMARK  Name = ZINC39669461
REMARK  7 active torsions:
REMARK  status: ('A' for Active; 'I' for Inactive)
REMARK    1  A    between atoms: C_1  and  C_2
REMARK    2  A    between atoms: C_2  and  C_3
REMARK    3  A    between atoms: C_3  and  C_5
REMARK    4  A    between atoms: C_3  and  C_11
REMARK    5  A    between atoms: C_15  and  C_24
REMARK    6  A    between atoms: N_26  and  C_27
REMARK    7  A    between atoms: C_27  and  C_28
REMARK                            x       y       z     vdW  Elec       q    Type
REMARK                         _______ _______ _______ _____ _____    ______ ____
ROOT
ATOM      1  C   UNL     1       0.139  -0.045   2.300  0.00  0.00    +0.223 C 
ATOM      2  O   UNL     1      -0.086  -0.862   3.166  0.00  0.00    -0.275 OA
ATOM      3  N   UNL     1      -0.159   1.254   2.504  0.00  0.00    -0.300 N 
ATOM      4  C   UNL     1       0.120   2.402   1.609  0.00  0.00    +0.121 C 
ATOM      5  C   UNL     1      -1.138   3.293   1.714  0.00  0.00    +0.100 C 
ATOM      6  C   UNL     1      -1.763   2.932   3.072  0.00  0.00    -0.004 C 
ATOM      7  C   UNL     1      -0.847   1.855   3.672  0.00  0.00    +0.115 C 
ATOM      8  C   UNL     1      -1.802   4.158   3.979  0.00  0.00    -0.010 C 
ATOM      9  C   UNL     1      -2.481   3.788   5.301  0.00  0.00    -0.082 C 
ATOM     10  N   UNL     1      -3.842   3.306   5.037  0.00  0.00    +0.379 N 
ATOM     11  C   UNL     1      -3.791   2.073   4.241  0.00  0.00    -0.082 C 
ATOM     12  C   UNL     1      -3.168   2.371   2.874  0.00  0.00    -0.010 C 
ATOM     13  H   UNL     1      -4.307   3.120   5.912  0.00  0.00    -0.086 HD
ATOM     14  H   UNL     1      -4.354   4.011   4.529  0.00  0.00    -0.086 HD
ENDROOT
BRANCH   5  15
ATOM     15  C   UNL     1      -0.753   4.750   1.682  0.00  0.00    +0.218 C 
ATOM     16  O   UNL     1       0.338   5.097   2.081  0.00  0.00    -0.275 OA
ATOM     17  N   UNL     1      -1.621   5.666   1.209  0.00  0.00    -0.315 N 
ATOM     18  H   UNL     1      -2.494   5.388   0.890  0.00  0.00    +0.149 HD
BRANCH  17  19
ATOM     19  C   UNL     1      -1.247   7.082   1.178  0.00  0.00    +0.109 C 
BRANCH  19  20
ATOM     20  C   UNL     1      -2.402   7.902   0.601  0.00  0.00    +0.024 C 
ATOM     21  C   UNL     1      -1.968   9.362   0.453  0.00  0.00    +0.008 C 
ATOM     22  C   UNL     1      -3.112  10.177  -0.154  0.00  0.00    +0.019 C 
ATOM     23  C   UNL     1      -4.324  10.125   0.781  0.00  0.00    +0.108 C 
ATOM     24  N   UNL     1      -4.659   8.719   1.044  0.00  0.00    -0.299 N 
ATOM     25  C   UNL     1      -3.606   7.824   1.545  0.00  0.00    +0.113 C 
ATOM     26  C   UNL     1      -5.941   8.246   0.825  0.00  0.00    +0.218 A 
ATOM     27  N   UNL     1      -6.213   6.974   1.077  0.00  0.00    -0.223 NA
ATOM     28  C   UNL     1      -7.428   6.490   0.878  0.00  0.00    +0.116 A 
ATOM     29  C   UNL     1      -8.421   7.331   0.401  0.00  0.00    +0.039 A 
ATOM     30  C   UNL     1      -8.102   8.656   0.148  0.00  0.00    +0.116 A 
ATOM     31  N   UNL     1      -6.868   9.077   0.373  0.00  0.00    -0.223 NA
ENDBRANCH  19  20
ENDBRANCH  17  19
ENDBRANCH   5  15
BRANCH   1  32
ATOM     32  C   UNL     1       0.753  -0.480   0.994  0.00  0.00    +0.105 C 
BRANCH  32  33
ATOM     33  C   UNL     1       2.255  -0.482   1.121  0.00  0.00    -0.036 A 
ATOM     34  C   UNL     1       2.868  -1.292   2.059  0.00  0.00    +0.004 A 
ATOM     35  C   UNL     1       4.245  -1.294   2.175  0.00  0.00    +0.000 A 
ATOM     36  C   UNL     1       5.010  -0.487   1.353  0.00  0.00    +0.000 A 
ATOM     37  C   UNL     1       4.397   0.321   0.415  0.00  0.00    +0.000 A 
ATOM     38  C   UNL     1       3.020   0.320   0.295  0.00  0.00    +0.004 A 
ENDBRANCH  32  33
BRANCH  32  40
ATOM     39  C   UNL     1      -1.238  -1.859   0.379  0.00  0.00    +0.005 C 
ATOM     40  C   UNL     1       0.268  -1.889   0.647  0.00  0.00    +0.014 C 
ENDBRANCH  32  40
ENDBRANCH   1  32
TORSDOF 6
