REMARK  Name = ZINC12343272
REMARK  7 active torsions:
REMARK  status: ('A' for Active; 'I' for Inactive)
REMARK    1  A    between atoms: C_1  and  C_2
REMARK    2  A    between atoms: C_2  and  C_8
REMARK    3  A    between atoms: N_3  and  N_4
REMARK    4  A    between atoms: N_4  and  C_5
REMARK    5  A    between atoms: C_5  and  N_7
REMARK    6  A    between atoms: C_8  and  C_9
REMARK    7  A    between atoms: C_9  and  N_10
REMARK                            x       y       z     vdW  Elec       q    Type
REMARK                         _______ _______ _______ _____ _____    ______ ____
ROOT
ATOM      1  C   UNL     1      -4.182   3.099   1.500  0.00  0.00    +0.074 C 
ENDROOT
BRANCH   1   3
ATOM      2  C   UNL     1      -6.735   3.222   0.973  0.00  0.00    +0.062 C 
ATOM      3  C   UNL     1      -5.548   2.464   1.510  0.00  0.00    +0.035 C 
ATOM      4  N   UNL     1      -5.700   1.281   1.974  0.00  0.00    -0.190 NA
BRANCH   4   5
ATOM      5  N   UNL     1      -6.971   0.690   1.983  0.00  0.00    -0.219 N 
ATOM      6  H   UNL     1      -7.735   1.178   1.637  0.00  0.00    +0.176 HD
BRANCH   5   7
ATOM      7  C   UNL     1      -7.131  -0.556   2.472  0.00  0.00    +0.147 C 
ATOM      8  S   UNL     1      -8.684  -1.278   2.483  0.00  0.00    -0.017 S 
BRANCH   7   9
ATOM      9  N   UNL     1      -6.070  -1.233   2.952  0.00  0.00    -0.339 N 
ATOM     10  H   UNL     1      -5.190  -0.824   2.946  0.00  0.00    +0.144 HD
ATOM     11  H   UNL     1      -6.185  -2.130   3.304  0.00  0.00    +0.144 HD
ENDBRANCH   7   9
ENDBRANCH   5   7
ENDBRANCH   4   5
ENDBRANCH   1   3
BRANCH   1  12
ATOM     12  C   UNL     1      -3.732   3.322   0.055  0.00  0.00    +0.132 C 
BRANCH  12  13
ATOM     13  N   UNL     1      -2.404   3.939   0.045  0.00  0.00    -0.302 N 
ATOM     14  C   UNL     1      -1.276   3.137   0.031  0.00  0.00    +0.059 A 
ATOM     15  C   UNL     1      -1.219   1.733   0.017  0.00  0.00    +0.027 A 
ATOM     16  C   UNL     1      -0.013   1.076   0.008  0.00  0.00    +0.002 A 
ATOM     17  C   UNL     1       1.185   1.771   0.000  0.00  0.00    +0.001 A 
ATOM     18  C   UNL     1       1.160   3.155   0.008  0.00  0.00    +0.017 A 
ATOM     19  C   UNL     1      -0.046   3.812   0.023  0.00  0.00    +0.041 A 
ATOM     20  S   UNL     1      -0.524   5.523   0.036  0.00  0.00    -0.027 S 
ATOM     21  C   UNL     1      -2.293   5.282   0.051  0.00  0.00    +0.292 A 
ATOM     22  O   UNL     1      -3.176   6.120   0.065  0.00  0.00    -0.259 OA
ENDBRANCH  12  13
ENDBRANCH   1  12
TORSDOF 6
