REMARK  Name = ZINC12844376
REMARK  7 active torsions:
REMARK  status: ('A' for Active; 'I' for Inactive)
REMARK    1  A    between atoms: C_1  and  N_2
REMARK    2  A    between atoms: C_8  and  C_10
REMARK    3  A    between atoms: C_10  and  C_11
REMARK    4  A    between atoms: C_11  and  S_12
REMARK    5  A    between atoms: S_12  and  C_13
REMARK    6  A    between atoms: C_15  and  C_23
REMARK    7  A    between atoms: C_17  and  C_19
REMARK                            x       y       z     vdW  Elec       q    Type
REMARK                         _______ _______ _______ _____ _____    ______ ____
ROOT
ATOM      1  C   UNL     1       0.174   0.961   2.735  0.00  0.00    +0.189 A 
ATOM      2  N   UNL     1      -0.114   1.166   4.011  0.00  0.00    -0.219 NA
ATOM      3  C   UNL     1       0.647   0.639   4.971  0.00  0.00    +0.111 A 
ATOM      4  C   UNL     1       1.762  -0.128   4.608  0.00  0.00    +0.064 A 
ATOM      5  C   UNL     1       2.026  -0.310   3.264  0.00  0.00    +0.149 A 
ATOM      6  N   UNL     1       1.223   0.239   2.365  0.00  0.00    -0.218 NA
ENDROOT
BRANCH   3   7
ATOM      7  C   UNL     1       0.322   0.863   6.393  0.00  0.00    +0.153 A 
ATOM      8  C   UNL     1      -0.726   1.590   6.868  0.00  0.00    +0.051 A 
ATOM      9  C   UNL     1      -0.653   1.536   8.273  0.00  0.00    +0.042 A 
ATOM     10  C   UNL     1       0.429   0.794   8.584  0.00  0.00    +0.196 A 
ATOM     11  O   UNL     1       1.015   0.389   7.447  0.00  0.00    -0.461 OA
ENDBRANCH   3   7
BRANCH   5  12
ATOM     12  C   UNL     1       3.213  -1.128   2.826  0.00  0.00    +0.434 C 
ATOM     13  F   UNL     1       3.330  -1.070   1.433  0.00  0.00    -0.164 F 
ATOM     14  F   UNL     1       4.375  -0.614   3.412  0.00  0.00    -0.164 F 
ATOM     15  F   UNL     1       3.038  -2.457   3.225  0.00  0.00    -0.164 F 
ENDBRANCH   5  12
BRANCH   1  16
ATOM     16  S   UNL     1      -0.860   1.669   1.497  0.00  0.00    -0.086 S 
BRANCH  16  17
ATOM     17  C   UNL     1      -0.013   1.086   0.008  0.00  0.00    +0.086 C 
BRANCH  17  18
ATOM     18  C   UNL     1      -0.753   1.593  -1.232  0.00  0.00    +0.107 C 
BRANCH  18  26
ATOM     19  C   UNL     1      -0.730   3.942  -7.047  0.00  0.00    +0.105 C 
ATOM     20  N   UNL     1      -0.882   2.880  -6.043  0.00  0.00    -0.302 NA
ATOM     21  C   UNL     1       0.389   2.177  -5.824  0.00  0.00    +0.103 C 
ATOM     22  C   UNL     1       0.149   0.969  -4.912  0.00  0.00    +0.123 C 
ATOM     23  N   UNL     1      -0.524   1.433  -3.689  0.00  0.00    -0.299 N 
ATOM     24  C   UNL     1      -1.734   2.256  -3.831  0.00  0.00    +0.123 C 
ATOM     25  C   UNL     1      -1.417   3.418  -4.785  0.00  0.00    +0.103 C 
ATOM     26  C   UNL     1      -0.047   1.107  -2.471  0.00  0.00    +0.216 C 
ATOM     27  O   UNL     1       0.949   0.422  -2.373  0.00  0.00    -0.276 OA
ENDBRANCH  18  26
ENDBRANCH  17  18
ENDBRANCH  16  17
ENDBRANCH   1  16
TORSDOF 6
