REMARK  Name = ZINC67469689
REMARK  11 active torsions:
REMARK  status: ('A' for Active; 'I' for Inactive)
REMARK    1  A    between atoms: C_1  and  C_2
REMARK    2  A    between atoms: C_5  and  C_8
REMARK    3  A    between atoms: C_8  and  C_10
REMARK    4  A    between atoms: C_8  and  N_11
REMARK    5  A    between atoms: N_11  and  C_12
REMARK    6  A    between atoms: N_15  and  C_16
REMARK    7  A    between atoms: C_16  and  C_18
REMARK    8  A    between atoms: C_16  and  C_19
REMARK    9  A    between atoms: C_23  and  S_25
REMARK   10  A    between atoms: S_25  and  N_28
REMARK   11  A    between atoms: N_28  and  C_29
REMARK                            x       y       z     vdW  Elec       q    Type
REMARK                         _______ _______ _______ _____ _____    ______ ____
ROOT
ATOM      1  N   UNL     1      -0.720  -4.780   1.112  0.00  0.00    -0.282 N 
ATOM      2  C   UNL     1      -0.402  -4.341   2.473  0.00  0.00    +0.134 C 
ATOM      3  C   UNL     1      -1.648  -5.737   0.911  0.00  0.00    +0.303 C 
ATOM      4  O   UNL     1      -1.912  -6.101  -0.218  0.00  0.00    -0.253 OA
ATOM      5  N   UNL     1      -2.284  -6.290   1.963  0.00  0.00    -0.293 N 
ATOM      6  H   UNL     1      -2.073  -5.999   2.864  0.00  0.00    +0.151 HD
ENDROOT
BRANCH   1   7
ATOM      7  C   UNL     1      -0.029  -4.179  -0.032  0.00  0.00    +0.104 C 
ATOM      8  C   UNL     1       1.483  -4.290   0.170  0.00  0.00    +0.033 C 
BRANCH   7  13
ATOM      9  C   UNL     1      -1.512   1.390  -0.465  0.00  0.00    +0.044 C 
ATOM     10  C   UNL     1      -1.125  -0.062  -0.352  0.00  0.00    -0.050 A 
ATOM     11  C   UNL     1      -1.300  -0.910  -1.430  0.00  0.00    +0.004 A 
ATOM     12  C   UNL     1      -0.945  -2.242  -1.326  0.00  0.00    +0.006 A 
ATOM     13  C   UNL     1      -0.415  -2.726  -0.145  0.00  0.00    -0.027 A 
ATOM     14  C   UNL     1      -0.239  -1.879   0.933  0.00  0.00    +0.006 A 
ATOM     15  C   UNL     1      -0.590  -0.546   0.828  0.00  0.00    +0.004 A 
ENDBRANCH   7  13
ENDBRANCH   1   7
BRANCH   5  16
ATOM     16  C   UNL     1      -3.292  -7.330   1.745  0.00  0.00    +0.102 C 
ATOM     17  C   UNL     1      -2.605  -8.691   1.632  0.00  0.00    +0.033 C 
BRANCH  16  18
ATOM     18  C   UNL     1      -4.254  -7.347   2.906  0.00  0.00    -0.026 A 
ATOM     19  C   UNL     1      -3.785  -7.173   4.195  0.00  0.00    +0.005 A 
ATOM     20  C   UNL     1      -4.667  -7.190   5.259  0.00  0.00    +0.002 A 
ATOM     21  C   UNL     1      -6.018  -7.380   5.034  0.00  0.00    +0.028 A 
ATOM     22  C   UNL     1      -6.487  -7.553   3.745  0.00  0.00    +0.106 A 
ATOM     23  C   UNL     1      -5.605  -7.532   2.681  0.00  0.00    +0.034 A 
BRANCH  22  24
ATOM     24  S   UNL     1      -8.209  -7.795   3.459  0.00  0.00    +0.058 S 
ATOM     25  O   UNL     1      -8.322  -8.476   2.217  0.00  0.00    -0.153 OA
ATOM     26  O   UNL     1      -8.752  -8.314   4.665  0.00  0.00    -0.153 OA
BRANCH  24  27
ATOM     27  N   UNL     1      -8.884  -6.299   3.241  0.00  0.00    -0.193 NA
ATOM     28  C   UNL     1      -8.504  -5.485   2.084  0.00  0.00    +0.127 C 
ATOM     29  H   UNL     1      -9.532  -5.962   3.880  0.00  0.00    +0.148 HD
ENDBRANCH  24  27
ENDBRANCH  22  24
ENDBRANCH  16  18
ENDBRANCH   5  16
TORSDOF 6
