REMARK  Name = ZINC04082255
REMARK  12 active torsions:
REMARK  status: ('A' for Active; 'I' for Inactive)
REMARK    1  A    between atoms: C_1  and  O_2
REMARK    2  A    between atoms: O_2  and  C_3
REMARK    3  A    between atoms: C_6  and  C_11
REMARK    4  A    between atoms: C_8  and  O_9
REMARK    5  A    between atoms: O_9  and  C_10
REMARK    6  A    between atoms: C_16  and  C_26
REMARK    7  A    between atoms: C_28  and  O_36
REMARK    8  A    between atoms: C_29  and  O_34
REMARK    9  A    between atoms: C_31  and  O_32
REMARK   10  A    between atoms: O_32  and  C_33
REMARK   11  A    between atoms: O_34  and  C_35
REMARK   12  A    between atoms: O_36  and  C_37
REMARK                            x       y       z     vdW  Elec       q    Type
REMARK                         _______ _______ _______ _____ _____    ______ ____
ROOT
ATOM      1  C   UNL     1       2.238   4.966   2.993  0.00  0.00    +0.032 C 
ATOM      2  C   UNL     1       1.380   3.778   3.425  0.00  0.00    +0.059 C 
ATOM      3  C   UNL     1       1.130   2.858   2.241  0.00  0.00    +0.017 C 
ATOM      4  C   UNL     1       2.048   2.736   1.268  0.00  0.00    +0.037 C 
ATOM      5  C   UNL     1       1.929   1.861   0.042  0.00  0.00    +0.140 C 
ATOM      6  N   UNL     1       0.829   0.921   0.084  0.00  0.00    -0.331 N 
ATOM      7  C   UNL     1      -0.490   1.364   0.105  0.00  0.00    +0.049 A 
ATOM      8  C   UNL     1      -1.347   1.128  -0.960  0.00  0.00    +0.025 A 
ATOM      9  C   UNL     1      -2.632   1.639  -0.926  0.00  0.00    +0.002 A 
ATOM     10  C   UNL     1      -3.063   2.384   0.157  0.00  0.00    +0.002 A 
ATOM     11  C   UNL     1      -2.213   2.602   1.246  0.00  0.00    +0.025 A 
ATOM     12  C   UNL     1      -0.938   2.069   1.218  0.00  0.00    +0.052 A 
ATOM     13  N   UNL     1      -0.053   2.193   2.285  0.00  0.00    -0.316 N 
ATOM     14  C   UNL     1       3.260   3.464   1.333  0.00  0.00    +0.163 C 
ATOM     15  O   UNL     1       4.082   3.316   0.450  0.00  0.00    -0.292 OA
ATOM     16  C   UNL     1       3.563   4.412   2.455  0.00  0.00    +0.088 C 
ATOM     17  H   UNL     1       1.014  -0.031   0.093  0.00  0.00    +0.147 HD
ATOM     18  H   UNL     1      -0.300   1.773   3.124  0.00  0.00    +0.152 HD
ENDROOT
BRANCH   1  22
ATOM     19  C   UNL     1       2.991   7.504   6.352  0.00  0.00    +0.161 A 
ATOM     20  C   UNL     1       3.374   6.173   6.386  0.00  0.00    +0.049 A 
ATOM     21  C   UNL     1       3.129   5.355   5.299  0.00  0.00    +0.008 A 
ATOM     22  C   UNL     1       2.502   5.862   4.176  0.00  0.00    -0.040 A 
ATOM     23  C   UNL     1       2.122   7.190   4.133  0.00  0.00    +0.053 A 
ATOM     24  C   UNL     1       2.360   8.014   5.221  0.00  0.00    +0.162 A 
BRANCH  19  26
ATOM     25  C   UNL     1       3.884   7.718   8.546  0.00  0.00    +0.277 C 
ATOM     26  O   UNL     1       3.232   8.310   7.420  0.00  0.00    -0.491 OA
ENDBRANCH  19  26
BRANCH  24  27
ATOM     27  O   UNL     1       1.982   9.320   5.183  0.00  0.00    -0.491 OA
ATOM     28  C   UNL     1       1.339   9.774   3.990  0.00  0.00    +0.277 C 
ENDBRANCH  24  27
ENDBRANCH   1  22
BRANCH   5  29
ATOM     29  C   UNL     1       1.751   2.752  -1.161  0.00  0.00    +0.023 A 
ATOM     30  C   UNL     1       1.280   4.042  -1.001  0.00  0.00    +0.058 A 
ATOM     31  C   UNL     1       1.121   4.864  -2.104  0.00  0.00    +0.162 A 
ATOM     32  C   UNL     1       1.425   4.387  -3.376  0.00  0.00    +0.165 A 
ATOM     33  C   UNL     1       1.892   3.093  -3.535  0.00  0.00    +0.095 A 
ATOM     34  C   UNL     1       2.055   2.275  -2.427  0.00  0.00    +0.129 A 
BRANCH  34  35
ATOM     35  O   UNL     1       2.513   1.004  -2.582  0.00  0.00    -0.495 OA
ATOM     36  C   UNL     1       2.806   0.578  -3.914  0.00  0.00    +0.277 C 
ENDBRANCH  34  35
BRANCH  32  37
ATOM     37  O   UNL     1       1.265   5.191  -4.461  0.00  0.00    -0.491 OA
ATOM     38  C   UNL     1       1.597   4.636  -5.735  0.00  0.00    +0.277 C 
ENDBRANCH  32  37
BRANCH  31  39
ATOM     39  O   UNL     1       0.662   6.135  -1.946  0.00  0.00    -0.491 OA
ATOM     40  C   UNL     1       0.472   6.594  -0.606  0.00  0.00    +0.277 C 
ENDBRANCH  31  39
ENDBRANCH   5  29
TORSDOF 7
