REMARK  Name = ZINC60215013
REMARK  3 active torsions:
REMARK  status: ('A' for Active; 'I' for Inactive)
REMARK    1  A    between atoms: C_7  and  C_11
REMARK    2  A    between atoms: C_11  and  C_12
REMARK    3  A    between atoms: C_12  and  C_13
REMARK                            x       y       z     vdW  Elec       q    Type
REMARK                         _______ _______ _______ _____ _____    ______ ____
ROOT
ATOM      1  C   UNL     1      -0.701  -4.769  -1.452  0.00  0.00    +0.219 C 
ATOM      2  O   UNL     1      -0.996  -5.306  -0.405  0.00  0.00    -0.275 OA
ATOM      3  N   UNL     1      -1.212  -5.228  -2.612  0.00  0.00    -0.265 N 
ATOM      4  C   UNL     1      -2.074  -6.313  -2.609  0.00  0.00    +0.165 A 
ATOM      5  N   UNL     1      -2.510  -7.015  -1.589  0.00  0.00    -0.224 NA
ATOM      6  C   UNL     1      -3.357  -8.057  -1.734  0.00  0.00    +0.083 A 
ATOM      7  C   UNL     1      -3.897  -8.889  -0.726  0.00  0.00    +0.070 A 
ATOM      8  C   UNL     1      -4.750  -9.915  -1.046  0.00  0.00    +0.160 A 
ATOM      9  C   UNL     1      -5.112 -10.173  -2.364  0.00  0.00    +0.160 A 
ATOM     10  C   UNL     1      -4.601  -9.377  -3.374  0.00  0.00    +0.058 A 
ATOM     11  C   UNL     1      -3.747  -8.349  -3.061  0.00  0.00    +0.044 A 
ATOM     12  S   UNL     1      -2.880  -7.108  -3.991  0.00  0.00    -0.052 S 
ATOM     13  F   UNL     1      -5.954 -11.189  -2.655  0.00  0.00    -0.202 F 
ATOM     14  F   UNL     1      -5.248 -10.692  -0.059  0.00  0.00    -0.202 F 
ATOM     15  H   UNL     1      -0.976  -4.798  -3.449  0.00  0.00    +0.157 HD
ENDROOT
BRANCH   1  16
ATOM     16  C   UNL     1       0.236  -3.589  -1.455  0.00  0.00    +0.101 C 
BRANCH  16  17
ATOM     17  C   UNL     1       0.666  -3.275  -0.021  0.00  0.00    +0.046 C 
BRANCH  17  24
ATOM     18  C   UNL     1      -0.017   1.362   0.009  0.00  0.00    +0.001 A 
ATOM     19  C   UNL     1       1.170   2.083   0.002  0.00  0.00    +0.002 A 
ATOM     20  C   UNL     1       2.386   1.436  -0.013  0.00  0.00    +0.026 A 
ATOM     21  C   UNL     1       2.428   0.046  -0.021  0.00  0.00    +0.047 A 
ATOM     22  C   UNL     1       1.223  -0.681  -0.013  0.00  0.00    +0.003 A 
ATOM     23  C   UNL     1       0.002  -0.004   0.002  0.00  0.00    +0.010 A 
ATOM     24  C   UNL     1       1.604  -2.095  -0.025  0.00  0.00    -0.022 A 
ATOM     25  C   UNL     1       2.945  -2.141  -0.038  0.00  0.00    +0.087 A 
ATOM     26  N   UNL     1       3.455  -0.871  -0.036  0.00  0.00    -0.360 N 
ATOM     27  H   UNL     1       4.399  -0.650  -0.044  0.00  0.00    +0.165 HD
ENDBRANCH  17  24
ENDBRANCH  16  17
ENDBRANCH   1  16
TORSDOF 3
