REMARK  Name = ZINC06321248
REMARK  10 active torsions:
REMARK  status: ('A' for Active; 'I' for Inactive)
REMARK    1  A    between atoms: C_1  and  C_2
REMARK    2  A    between atoms: C_6  and  C_15
REMARK    3  A    between atoms: C_13  and  C_14
REMARK    4  A    between atoms: C_15  and  C_17
REMARK    5  A    between atoms: C_15  and  N_73
REMARK    6  A    between atoms: N_21  and  C_22
REMARK    7  A    between atoms: C_28  and  C_29
REMARK    8  A    between atoms: C_28  and  N_73
REMARK    9  A    between atoms: C_35  and  C_36
REMARK   10  A    between atoms: C_35  and  N_73
REMARK                            x       y       z     vdW  Elec       q    Type
REMARK                         _______ _______ _______ _____ _____    ______ ____
ROOT
ATOM      1  C   UNL     1      -5.175   3.517  -0.140  0.00  0.00    +0.040 C 
ENDROOT
BRANCH   1   7
ATOM      2  C   UNL     1       2.238   3.748  -0.915  0.00  0.00    +0.044 C 
ATOM      3  C   UNL     1       0.951   2.971  -0.817  0.00  0.00    -0.047 A 
ATOM      4  C   UNL     1      -0.231   3.637  -0.650  0.00  0.00    +0.013 A 
ATOM      5  C   UNL     1      -1.426   2.916  -0.559  0.00  0.00    -0.001 A 
ATOM      6  C   UNL     1      -2.709   3.597  -0.381  0.00  0.00    +0.017 A 
ATOM      7  C   UNL     1      -3.837   2.847  -0.317  0.00  0.00    +0.011 A 
ATOM      8  C   UNL     1      -3.761   1.440  -0.402  0.00  0.00    +0.251 A 
ATOM      9  O   UNL     1      -4.786   0.785  -0.332  0.00  0.00    -0.268 OA
ATOM     10  N   UNL     1      -2.587   0.805  -0.560  0.00  0.00    -0.322 N 
ATOM     11  H   UNL     1      -2.571  -0.163  -0.616  0.00  0.00    +0.169 HD
ATOM     12  C   UNL     1      -1.405   1.511  -0.645  0.00  0.00    +0.049 A 
ATOM     13  C   UNL     1      -0.190   0.855  -0.809  0.00  0.00    +0.030 A 
ATOM     14  C   UNL     1       0.976   1.585  -0.896  0.00  0.00    -0.046 A 
ATOM     15  C   UNL     1       2.291   0.873  -1.079  0.00  0.00    +0.044 C 
ENDBRANCH   1   7
BRANCH   1  16
ATOM     16  C   UNL     1      -5.837   2.997   1.111  0.00  0.00    +0.143 A 
ATOM     17  N   UNL     1      -6.401   1.825   1.267  0.00  0.00    -0.115 NA
ATOM     18  N   UNL     1      -6.849   1.757   2.473  0.00  0.00    -0.023 NA
ATOM     19  N   UNL     1      -6.585   2.856   3.090  0.00  0.00    -0.044 NA
ATOM     20  N   UNL     1      -5.956   3.644   2.285  0.00  0.00    -0.227 N 
BRANCH  20  21
ATOM     21  C   UNL     1      -5.468   4.990   2.591  0.00  0.00    +0.111 C 
ATOM     22  C   UNL     1      -4.363   4.905   3.646  0.00  0.00    +0.027 C 
ATOM     23  C   UNL     1      -3.853   6.312   3.965  0.00  0.00    +0.002 C 
ATOM     24  C   UNL     1      -5.006   7.163   4.501  0.00  0.00    +0.000 C 
ATOM     25  C   UNL     1      -6.110   7.248   3.445  0.00  0.00    +0.002 C 
ATOM     26  C   UNL     1      -6.620   5.842   3.126  0.00  0.00    +0.027 C 
ENDBRANCH  20  21
ENDBRANCH   1  16
BRANCH   1  27
ATOM     27  N   UNL     1      -6.032   3.198  -1.301  0.00  0.00    +0.397 N 
ATOM     28  H   UNL     1      -6.227   2.190  -1.304  0.00  0.00    -0.079 HD
BRANCH  27  29
ATOM     29  C   UNL     1      -7.310   3.934  -1.204  0.00  0.00    -0.041 C 
BRANCH  29  30
ATOM     30  C   UNL     1      -8.212   3.208  -0.240  0.00  0.00    -0.064 A 
ATOM     31  C   UNL     1      -8.753   1.984  -0.587  0.00  0.00    +0.002 A 
ATOM     32  C   UNL     1      -9.577   1.316   0.299  0.00  0.00    +0.000 A 
ATOM     33  C   UNL     1      -9.868   1.877   1.528  0.00  0.00    +0.000 A 
ATOM     34  C   UNL     1      -9.332   3.104   1.873  0.00  0.00    +0.000 A 
ATOM     35  C   UNL     1      -8.504   3.769   0.989  0.00  0.00    +0.002 A 
ENDBRANCH  29  30
ENDBRANCH  27  29
BRANCH  27  36
ATOM     36  C   UNL     1      -5.336   3.556  -2.555  0.00  0.00    -0.001 C 
BRANCH  36  37
ATOM     37  C   UNL     1      -4.441   2.411  -2.952  0.00  0.00    +0.089 A 
ATOM     38  C   UNL     1      -4.829   1.295  -3.596  0.00  0.00    +0.042 A 
ATOM     39  C   UNL     1      -3.674   0.497  -3.764  0.00  0.00    +0.041 A 
ATOM     40  C   UNL     1      -2.649   1.173  -3.214  0.00  0.00    +0.195 A 
ATOM     41  O   UNL     1      -3.119   2.334  -2.728  0.00  0.00    -0.470 OA
ENDBRANCH  36  37
ENDBRANCH  27  36
ENDBRANCH   1  27
TORSDOF 8
