REMARK  Name = ZINC65002808
REMARK  6 active torsions:
REMARK  status: ('A' for Active; 'I' for Inactive)
REMARK    1  A    between atoms: C_1  and  C_2
REMARK    2  A    between atoms: C_6  and  S_8
REMARK    3  A    between atoms: S_8  and  N_11
REMARK    4  A    between atoms: N_11  and  C_12
REMARK    5  A    between atoms: C_12  and  C_13
REMARK    6  A    between atoms: C_22  and  C_24
REMARK                            x       y       z     vdW  Elec       q    Type
REMARK                         _______ _______ _______ _____ _____    ______ ____
ROOT
ATOM      1  C   UNL     1       3.747  -2.442   4.092  0.00  0.00    -0.030 A 
ATOM      2  C   UNL     1       3.816  -2.382   5.472  0.00  0.00    +0.005 A 
ATOM      3  C   UNL     1       5.002  -2.682   6.114  0.00  0.00    +0.006 A 
ATOM      4  C   UNL     1       6.118  -3.039   5.381  0.00  0.00    -0.024 A 
ATOM      5  C   UNL     1       6.059  -3.101   3.998  0.00  0.00    +0.040 A 
ATOM      6  C   UNL     1       4.856  -2.803   3.357  0.00  0.00    +0.028 A 
ATOM      7  N   UNL     1       7.287  -3.480   3.448  0.00  0.00    -0.267 N 
ATOM      8  C   UNL     1       8.270  -3.698   4.512  0.00  0.00    +0.118 C 
ATOM      9  C   UNL     1       7.516  -3.410   5.821  0.00  0.00    +0.056 C 
ATOM     10  C   UNL     1       7.531  -3.624   2.130  0.00  0.00    +0.251 C 
ATOM     11  O   UNL     1       6.625  -3.506   1.328  0.00  0.00    -0.270 OA
ENDROOT
BRANCH  10  12
ATOM     12  C   UNL     1       8.899  -3.926   1.661  0.00  0.00    +0.037 A 
ATOM     13  C   UNL     1       9.677  -4.872   2.330  0.00  0.00    +0.014 A 
ATOM     14  C   UNL     1      10.953  -5.150   1.887  0.00  0.00    +0.021 A 
ATOM     15  C   UNL     1      11.463  -4.492   0.780  0.00  0.00    +0.041 A 
ATOM     16  C   UNL     1      10.696  -3.552   0.112  0.00  0.00    +0.021 A 
ATOM     17  C   UNL     1       9.416  -3.270   0.542  0.00  0.00    +0.014 A 
ATOM     18 CL   UNL     1      13.070  -4.847   0.228  0.00  0.00    -0.084 Cl
ENDBRANCH  10  12
BRANCH   1  19
ATOM     19  C   UNL     1       2.454  -2.116   3.389  0.00  0.00    +0.141 C 
BRANCH  19  20
ATOM     20  N   UNL     1       1.657  -3.337   3.243  0.00  0.00    -0.186 NA
ATOM     21  H   UNL     1       2.070  -4.204   3.375  0.00  0.00    +0.148 HD
BRANCH  20  22
ATOM     22  S   UNL     1       0.051  -3.235   2.853  0.00  0.00    +0.059 S 
ATOM     23  O   UNL     1      -0.522  -2.279   3.735  0.00  0.00    -0.153 OA
ATOM     24  O   UNL     1      -0.429  -4.569   2.759  0.00  0.00    -0.153 OA
BRANCH  22  30
ATOM     25  C   UNL     1      -0.305   0.852  -0.386  0.00  0.00    +0.044 C 
ATOM     26  C   UNL     1      -0.213  -0.641  -0.204  0.00  0.00    -0.049 A 
ATOM     27  C   UNL     1      -0.207  -1.473  -1.309  0.00  0.00    +0.003 A 
ATOM     28  C   UNL     1      -0.122  -2.842  -1.142  0.00  0.00    +0.002 A 
ATOM     29  C   UNL     1      -0.044  -3.380   0.129  0.00  0.00    +0.028 A 
ATOM     30  C   UNL     1      -0.049  -2.549   1.233  0.00  0.00    +0.106 A 
ATOM     31  C   UNL     1      -0.129  -1.179   1.066  0.00  0.00    +0.032 A 
ENDBRANCH  22  30
ENDBRANCH  20  22
ENDBRANCH  19  20
ENDBRANCH   1  19
TORSDOF 5
