REMARK  Name = ZINC36562524
REMARK  14 active torsions:
REMARK  status: ('A' for Active; 'I' for Inactive)
REMARK    1  A    between atoms: C_1  and  C_2
REMARK    2  A    between atoms: C_2  and  C_3
REMARK    3  A    between atoms: C_3  and  N_4
REMARK    4  A    between atoms: N_4  and  C_5
REMARK    5  A    between atoms: C_5  and  C_7
REMARK    6  A    between atoms: C_5  and  C_14
REMARK    7  A    between atoms: C_12  and  O_13
REMARK    8  A    between atoms: N_16  and  C_17
REMARK    9  A    between atoms: C_17  and  S_18
REMARK   10  A    between atoms: S_18  and  C_21
REMARK   11  A    between atoms: C_24  and  C_27
REMARK   12  A    between atoms: C_28  and  C_30
REMARK   13  A    between atoms: C_30  and  C_31
REMARK   14  A    between atoms: C_31  and  C_32
REMARK                            x       y       z     vdW  Elec       q    Type
REMARK                         _______ _______ _______ _____ _____    ______ ____
ROOT
ATOM      1  C   UNL     1      -1.330  -2.508   1.224  0.00  0.00    +0.196 C 
ENDROOT
BRANCH   1   2
ATOM      2  C   UNL     1      -2.638  -1.843   1.568  0.00  0.00    +0.023 A 
ATOM      3  C   UNL     1      -2.651  -0.716   2.368  0.00  0.00    +0.009 A 
ATOM      4  C   UNL     1      -3.850  -0.105   2.684  0.00  0.00    +0.001 A 
ATOM      5  C   UNL     1      -5.039  -0.620   2.201  0.00  0.00    +0.004 A 
ATOM      6  C   UNL     1      -5.032  -1.746   1.402  0.00  0.00    +0.046 A 
ATOM      7  C   UNL     1      -3.829  -2.358   1.078  0.00  0.00    +0.122 A 
BRANCH   7   8
ATOM      8  O   UNL     1      -3.818  -3.463   0.287  0.00  0.00    -0.506 OA
ATOM      9  H   UNL     1      -3.964  -4.290   0.765  0.00  0.00    +0.292 HD
ENDBRANCH   7   8
ENDBRANCH   1   2
BRANCH   1  10
ATOM     10  C   UNL     1      -0.267  -2.056   2.192  0.00  0.00    +0.239 C 
ATOM     11  O   UNL     1       0.467  -1.135   1.899  0.00  0.00    -0.273 OA
ATOM     12  N   UNL     1      -0.131  -2.674   3.381  0.00  0.00    -0.294 N 
ATOM     13  H   UNL     1      -0.666  -3.457   3.585  0.00  0.00    +0.150 HD
BRANCH  12  14
ATOM     14  C   UNL     1       0.826  -2.164   4.367  0.00  0.00    +0.278 C 
BRANCH  14  15
ATOM     15  S   UNL     1      -0.029  -1.062   5.526  0.00  0.00    +0.013 S 
ATOM     16  O   UNL     1       0.873  -0.609   6.526  0.00  0.00    -0.168 OA
ATOM     17  O   UNL     1      -0.844  -0.141   4.815  0.00  0.00    -0.168 OA
BRANCH  15  18
ATOM     18  C   UNL     1      -1.166  -2.100   6.383  0.00  0.00    +0.090 A 
ATOM     19  C   UNL     1      -2.443  -2.285   5.886  0.00  0.00    +0.027 A 
ATOM     20  C   UNL     1      -3.335  -3.099   6.558  0.00  0.00    +0.005 A 
ATOM     21  C   UNL     1      -2.950  -3.729   7.727  0.00  0.00    -0.050 A 
ATOM     22  C   UNL     1      -1.673  -3.545   8.223  0.00  0.00    +0.005 A 
ATOM     23  C   UNL     1      -0.780  -2.734   7.549  0.00  0.00    +0.027 A 
ATOM     24  C   UNL     1      -3.923  -4.616   8.460  0.00  0.00    +0.044 C 
ENDBRANCH  15  18
ENDBRANCH  14  15
ENDBRANCH  12  14
ENDBRANCH   1  10
BRANCH   1  25
ATOM     25  N   UNL     1      -0.939  -2.140  -0.139  0.00  0.00    -0.286 N 
ATOM     26  C   UNL     1      -0.859  -0.841  -0.490  0.00  0.00    +0.216 C 
ATOM     27  O   UNL     1      -1.112   0.023   0.323  0.00  0.00    -0.276 OA
BRANCH  25  28
ATOM     28  C   UNL     1      -0.634  -3.184  -1.120  0.00  0.00    +0.108 C 
BRANCH  28  30
ATOM     29  C   UNL     1      -1.548  -4.522  -3.022  0.00  0.00    +0.005 C 
ATOM     30  C   UNL     1      -1.891  -3.504  -1.932  0.00  0.00    +0.016 C 
ENDBRANCH  28  30
ENDBRANCH  25  28
BRANCH  26  31
ATOM     31  C   UNL     1      -0.457  -0.463  -1.892  0.00  0.00    +0.096 C 
BRANCH  31  32
ATOM     32  C   UNL     1      -0.445   1.061  -2.025  0.00  0.00    +0.013 C 
BRANCH  32  33
ATOM     33  C   UNL     1      -0.036   1.445  -3.449  0.00  0.00    -0.011 C 
ATOM     34  C   UNL     1       1.407   1.005  -3.701  0.00  0.00    +0.003 C 
ATOM     35  C   UNL     1       1.816   1.389  -5.125  0.00  0.00    +0.000 C 
ATOM     36  C   UNL     1       1.708   2.906  -5.295  0.00  0.00    +0.000 C 
ATOM     37  C   UNL     1       0.264   3.346  -5.043  0.00  0.00    +0.000 C 
ATOM     38  C   UNL     1      -0.144   2.962  -3.619  0.00  0.00    +0.003 C 
ENDBRANCH  32  33
ENDBRANCH  31  32
ENDBRANCH  26  31
ENDBRANCH   1  25
TORSDOF 12
