REMARK  Name = ZINC47135740
REMARK  5 active torsions:
REMARK  status: ('A' for Active; 'I' for Inactive)
REMARK    1  A    between atoms: C_1  and  C_2
REMARK    2  A    between atoms: N_5  and  S_8
REMARK    3  A    between atoms: S_8  and  C_11
REMARK    4  A    between atoms: C_14  and  N_17
REMARK    5  A    between atoms: N_17  and  C_18
REMARK                            x       y       z     vdW  Elec       q    Type
REMARK                         _______ _______ _______ _____ _____    ______ ____
ROOT
ATOM      1  C   UNL     1      -0.795  -5.265   1.507  0.00  0.00    +0.106 A 
ATOM      2  C   UNL     1      -1.687  -5.899   0.662  0.00  0.00    +0.030 A 
ATOM      3  C   UNL     1      -1.393  -7.150   0.158  0.00  0.00    +0.025 A 
ATOM      4  C   UNL     1      -0.200  -7.773   0.501  0.00  0.00    +0.030 A 
ATOM      5  C   UNL     1       0.694  -7.134   1.350  0.00  0.00    +0.025 A 
ATOM      6  C   UNL     1       0.397  -5.880   1.846  0.00  0.00    +0.030 A 
ENDROOT
BRANCH   1   7
ATOM      7  S   UNL     1      -1.173  -3.668   2.148  0.00  0.00    +0.061 S 
ATOM      8  O   UNL     1      -0.421  -3.521   3.344  0.00  0.00    -0.153 OA
ATOM      9  O   UNL     1      -2.589  -3.544   2.119  0.00  0.00    -0.153 OA
BRANCH   7  14
ATOM     10  C   UNL     1      -0.019   1.526   0.010  0.00  0.00    +0.007 C 
ATOM     11  C   UNL     1       0.002  -0.004   0.002  0.00  0.00    -0.012 C 
ATOM     12  C   UNL     1      -1.434  -0.533   0.011  0.00  0.00    +0.020 C 
ATOM     13  C   UNL     1      -1.409  -2.065  -0.032  0.00  0.00    +0.110 C 
ATOM     14  N   UNL     1      -0.578  -2.556   1.075  0.00  0.00    -0.177 NA
ATOM     15  C   UNL     1       0.791  -2.042   1.212  0.00  0.00    +0.110 C 
ATOM     16  C   UNL     1       0.742  -0.511   1.242  0.00  0.00    +0.020 C 
ENDBRANCH   7  14
ENDBRANCH   1   7
BRANCH   4  17
ATOM     17  N   UNL     1       0.100  -9.039  -0.007  0.00  0.00    -0.306 N 
ATOM     18  H   UNL     1      -0.525  -9.485  -0.600  0.00  0.00    +0.150 HD
BRANCH  17  19
ATOM     19  C   UNL     1       1.359  -9.694   0.356  0.00  0.00    +0.296 C 
ATOM     20  C   UNL     1       1.155 -11.184   0.457  0.00  0.00    +0.025 A 
ATOM     21  C   UNL     1       0.358 -11.980   1.245  0.00  0.00    +0.010 A 
ATOM     22  C   UNL     1       0.395 -13.357   1.098  0.00  0.00    +0.000 A 
ATOM     23  C   UNL     1       1.232 -13.936   0.160  0.00  0.00    +0.001 A 
ATOM     24  C   UNL     1       2.036 -13.147  -0.636  0.00  0.00    +0.015 A 
ATOM     25  C   UNL     1       2.004 -11.759  -0.494  0.00  0.00    +0.067 A 
ATOM     26  C   UNL     1       2.721 -10.664  -1.172  0.00  0.00    +0.342 C 
ATOM     27  O   UNL     1       3.540 -10.811  -2.057  0.00  0.00    -0.245 OA
ATOM     28  O   UNL     1       2.335  -9.479  -0.667  0.00  0.00    -0.435 OA
ENDBRANCH  17  19
ENDBRANCH   4  17
TORSDOF 4
