REMARK  Name = ZINC19219612
REMARK  7 active torsions:
REMARK  status: ('A' for Active; 'I' for Inactive)
REMARK    1  A    between atoms: C_1  and  C_2
REMARK    2  A    between atoms: C_10  and  C_34
REMARK    3  A    between atoms: C_11  and  C_12
REMARK    4  A    between atoms: C_12  and  C_14
REMARK    5  A    between atoms: C_12  and  O_33
REMARK    6  A    between atoms: C_14  and  N_15
REMARK    7  A    between atoms: C_22  and  O_32
REMARK                            x       y       z     vdW  Elec       q    Type
REMARK                         _______ _______ _______ _____ _____    ______ ____
ROOT
ATOM      1  N   UNL     1       2.091   1.471  -2.434  0.00  0.00    +0.382 N 
ATOM      2  C   UNL     1       1.857   2.920  -2.452  0.00  0.00    -0.075 C 
ATOM      3  C   UNL     1       1.358   3.340  -3.837  0.00  0.00    +0.029 C 
ATOM      4  C   UNL     1       2.402   2.958  -4.887  0.00  0.00    +0.110 C 
ATOM      5  C   UNL     1       2.671   1.454  -4.814  0.00  0.00    +0.029 C 
ATOM      6  C   UNL     1       3.129   1.089  -3.400  0.00  0.00    -0.075 C 
ATOM      7  C   UNL     1       1.879   3.316  -6.283  0.00  0.00    +0.084 C 
ATOM      8  C   UNL     1       1.517   4.804  -6.294  0.00  0.00    +0.152 C 
ATOM      9  C   UNL     1       2.648   5.606  -5.702  0.00  0.00    +0.024 A 
ATOM     10  C   UNL     1       2.701   6.967  -5.951  0.00  0.00    +0.029 A 
ATOM     11  C   UNL     1       3.719   7.735  -5.418  0.00  0.00    +0.042 A 
ATOM     12  C   UNL     1       4.692   7.142  -4.632  0.00  0.00    +0.023 A 
ATOM     13  C   UNL     1       4.644   5.786  -4.383  0.00  0.00    +0.047 A 
ATOM     14  C   UNL     1       3.621   5.011  -4.919  0.00  0.00    +0.127 A 
ATOM     15  O   UNL     1       3.611   3.678  -4.654  0.00  0.00    -0.485 OA
ATOM     16 CL   UNL     1       3.779   9.440  -5.736  0.00  0.00    -0.084 Cl
ATOM     17  H   UNL     1       1.156   0.976  -2.733  0.00  0.00    -0.082 HD
ENDROOT
BRANCH   8  18
ATOM     18  O   UNL     1       1.288   5.227  -7.640  0.00  0.00    -0.387 OA
ATOM     19  H   UNL     1       1.014   6.272  -7.849  0.00  0.00    +0.210 HD
ENDBRANCH   8  18
BRANCH   1  20
ATOM     20  C   UNL     1       2.435   1.010  -1.082  0.00  0.00    -0.042 C 
BRANCH  20  21
ATOM     21  C   UNL     1       1.386   1.513  -0.089  0.00  0.00    +0.130 C 
BRANCH  21  32
ATOM     22  C   UNL     1       1.536  -3.903   4.152  0.00  0.00    +0.044 C 
ATOM     23  C   UNL     1       1.557  -2.639   3.331  0.00  0.00    -0.048 A 
ATOM     24  C   UNL     1       1.115  -2.666   2.016  0.00  0.00    +0.004 A 
ATOM     25  C   UNL     1       1.126  -1.531   1.256  0.00  0.00    +0.010 A 
ATOM     26  C   UNL     1       1.586  -0.333   1.807  0.00  0.00    +0.005 A 
ATOM     27  C   UNL     1       2.035  -0.300   3.139  0.00  0.00    +0.047 A 
ATOM     28  C   UNL     1       2.015  -1.468   3.894  0.00  0.00    +0.029 A 
ATOM     29  N   UNL     1       2.424   0.994   3.405  0.00  0.00    -0.358 N 
ATOM     30  H   UNL     1       2.811   1.258   4.400  0.00  0.00    +0.166 HD
ATOM     31  C   UNL     1       2.242   1.772   2.294  0.00  0.00    +0.019 A 
ATOM     32  C   UNL     1       1.734   1.032   1.296  0.00  0.00    +0.007 A 
ATOM     33  C   UNL     1       2.563   3.241   2.205  0.00  0.00    +0.063 C 
ENDBRANCH  21  32
BRANCH  21  34
ATOM     34  O   UNL     1       0.100   1.011  -0.459  0.00  0.00    -0.389 OA
ATOM     35  H   UNL     1      -0.324   1.259  -1.443  0.00  0.00    +0.210 HD
ENDBRANCH  21  34
ENDBRANCH  20  21
ENDBRANCH   1  20
TORSDOF 5
