REMARK  Name = ZINC60208951
REMARK  11 active torsions:
REMARK  status: ('A' for Active; 'I' for Inactive)
REMARK    1  A    between atoms: C_1  and  C_2
REMARK    2  A    between atoms: C_2  and  N_3
REMARK    3  A    between atoms: C_7  and  C_10
REMARK    4  A    between atoms: C_10  and  N_11
REMARK    5  A    between atoms: N_11  and  C_12
REMARK    6  A    between atoms: C_15  and  S_21
REMARK    7  A    between atoms: C_17  and  N_18
REMARK    8  A    between atoms: S_21  and  N_24
REMARK    9  A    between atoms: N_24  and  C_25
REMARK   10  A    between atoms: C_28  and  C_32
REMARK   11  A    between atoms: C_30  and  C_31
REMARK                            x       y       z     vdW  Elec       q    Type
REMARK                         _______ _______ _______ _____ _____    ______ ____
ROOT
ATOM      1  C   UNL     1      -4.368  -5.275  -0.950  0.00  0.00    +0.058 A 
ATOM      2  C   UNL     1      -3.272  -6.113  -0.788  0.00  0.00    +0.027 A 
ATOM      3  C   UNL     1      -3.457  -7.479  -0.695  0.00  0.00    +0.031 A 
ATOM      4  C   UNL     1      -4.732  -8.011  -0.763  0.00  0.00    +0.111 A 
ATOM      5  C   UNL     1      -5.824  -7.179  -0.925  0.00  0.00    +0.063 A 
ATOM      6  C   UNL     1      -5.647  -5.812  -1.013  0.00  0.00    +0.149 A 
ENDROOT
BRANCH   6   7
ATOM      7  N   UNL     1      -6.817  -4.922  -1.179  0.00  0.00    +0.058 N 
ATOM      8  O   UNL     1      -6.844  -3.848  -0.625  0.00  0.00    -0.126 OA
ATOM      9  O   UNL     1      -7.747  -5.269  -1.870  0.00  0.00    -0.126 OA
ENDBRANCH   6   7
BRANCH   4  10
ATOM     10  S   UNL     1      -4.964  -9.754  -0.645  0.00  0.00    +0.072 S 
ATOM     11  O   UNL     1      -6.200 -10.043  -1.283  0.00  0.00    -0.150 OA
ATOM     12  O   UNL     1      -3.740 -10.355  -1.045  0.00  0.00    -0.150 OA
BRANCH  10  13
ATOM     13  N   UNL     1      -5.164 -10.113   0.959  0.00  0.00    -0.216 N 
ATOM     14  H   UNL     1      -4.543 -10.711   1.404  0.00  0.00    +0.174 HD
BRANCH  13  15
ATOM     15  C   UNL     1      -6.228  -9.555   1.672  0.00  0.00    +0.051 A 
ATOM     16  C   UNL     1      -7.453  -9.351   1.050  0.00  0.00    +0.025 A 
ATOM     17  C   UNL     1      -8.502  -8.799   1.758  0.00  0.00    +0.005 A 
ATOM     18  C   UNL     1      -8.334  -8.449   3.085  0.00  0.00    -0.050 A 
ATOM     19  C   UNL     1      -7.116  -8.650   3.708  0.00  0.00    +0.008 A 
ATOM     20  C   UNL     1      -6.064  -9.207   3.007  0.00  0.00    -0.028 A 
ATOM     21  C   UNL     1      -4.739  -9.432   3.689  0.00  0.00    +0.046 C 
ATOM     22  C   UNL     1      -9.482  -7.846   3.854  0.00  0.00    +0.044 C 
ENDBRANCH  13  15
ENDBRANCH  10  13
ENDBRANCH   4  10
BRANCH   1  23
ATOM     23  N   UNL     1      -4.184  -3.893  -1.044  0.00  0.00    -0.342 N 
ATOM     24  H   UNL     1      -4.938  -3.316  -1.242  0.00  0.00    +0.146 HD
BRANCH  23  25
ATOM     25  C   UNL     1      -2.852  -3.316  -0.843  0.00  0.00    +0.103 C 
BRANCH  25  30
ATOM     26  N   UNL     1      -1.588   0.256  -1.056  0.00  0.00    +0.380 N 
ATOM     27  C   UNL     1      -2.359   0.833   0.052  0.00  0.00    -0.079 C 
ATOM     28  C   UNL     1      -3.799   0.318  -0.001  0.00  0.00    -0.018 C 
ATOM     29  C   UNL     1      -3.795  -1.209   0.118  0.00  0.00    +0.001 C 
ATOM     30  C   UNL     1      -2.926  -1.796  -0.999  0.00  0.00    -0.011 C 
ATOM     31  C   UNL     1      -1.519  -1.203  -0.908  0.00  0.00    -0.074 C 
ATOM     32  H   UNL     1      -2.038   0.484  -1.930  0.00  0.00    -0.082 HD
BRANCH  26  34
ATOM     33  C   UNL     1      -0.292   2.316  -1.324  0.00  0.00    -0.017 C 
ATOM     34  C   UNL     1      -0.229   0.813  -1.046  0.00  0.00    -0.082 C 
ENDBRANCH  26  34
ENDBRANCH  25  30
ENDBRANCH  23  25
ENDBRANCH   1  23
TORSDOF 8
