REMARK  Name = ZINC21811770
REMARK  7 active torsions:
REMARK  status: ('A' for Active; 'I' for Inactive)
REMARK    1  A    between atoms: C_1  and  C_2
REMARK    2  A    between atoms: C_2  and  N_3
REMARK    3  A    between atoms: N_3  and  C_4
REMARK    4  A    between atoms: N_3  and  S_11
REMARK    5  A    between atoms: C_9  and  C_10
REMARK    6  A    between atoms: S_11  and  C_14
REMARK    7  A    between atoms: C_19  and  N_20
REMARK                            x       y       z     vdW  Elec       q    Type
REMARK                         _______ _______ _______ _____ _____    ______ ____
ROOT
ATOM      1  S   UNL     1      -2.706   0.852   0.201  0.00  0.00    +0.076 S 
ATOM      2  O   UNL     1      -1.424   0.248   0.308  0.00  0.00    -0.150 OA
ATOM      3  O   UNL     1      -2.880   2.201  -0.210  0.00  0.00    -0.150 OA
ENDROOT
BRANCH   1   4
ATOM      4  C   UNL     1      -3.638  -0.141  -0.917  0.00  0.00    +0.129 A 
ATOM      5  C   UNL     1      -4.383   0.457  -1.915  0.00  0.00    +0.032 A 
ATOM      6  C   UNL     1      -5.111  -0.321  -2.796  0.00  0.00    +0.022 A 
ATOM      7  C   UNL     1      -5.100  -1.700  -2.679  0.00  0.00    +0.043 A 
ATOM      8  C   UNL     1      -4.361  -2.303  -1.679  0.00  0.00    +0.044 A 
ATOM      9  C   UNL     1      -3.629  -1.524  -0.792  0.00  0.00    +0.053 A 
ATOM     10 CL   UNL     1      -6.015  -2.672  -3.788  0.00  0.00    -0.083 Cl
BRANCH   9  11
ATOM     11  N   UNL     1      -2.881  -2.130   0.220  0.00  0.00    -0.356 N 
ATOM     12  H   UNL     1      -2.875  -3.226   0.318  0.00  0.00    +0.142 HD
ATOM     13  H   UNL     1      -2.299  -1.512   0.919  0.00  0.00    +0.142 HD
ENDBRANCH   9  11
ENDBRANCH   1   4
BRANCH   1  14
ATOM     14  N   UNL     1      -3.419   0.715   1.689  0.00  0.00    -0.203 N 
BRANCH  14  15
ATOM     15  C   UNL     1      -2.919  -0.197   2.622  0.00  0.00    +0.054 A 
ATOM     16  C   UNL     1      -3.496  -1.455   2.744  0.00  0.00    +0.025 A 
ATOM     17  C   UNL     1      -2.996  -2.356   3.664  0.00  0.00    +0.002 A 
ATOM     18  C   UNL     1      -1.930  -2.002   4.471  0.00  0.00    +0.000 A 
ATOM     19  C   UNL     1      -1.357  -0.749   4.356  0.00  0.00    +0.005 A 
ATOM     20  C   UNL     1      -1.849   0.155   3.434  0.00  0.00    -0.028 A 
ATOM     21  C   UNL     1      -1.224   1.521   3.310  0.00  0.00    +0.046 C 
ENDBRANCH  14  15
BRANCH  14  23
ATOM     22  C   UNL     1      -5.863   0.775   1.744  0.00  0.00    +0.026 C 
ATOM     23  C   UNL     1      -4.574   1.550   2.028  0.00  0.00    +0.128 C 
ENDBRANCH  14  23
ENDBRANCH   1  14
TORSDOF 5
