REMARK  Name = ZINC20574650
REMARK  10 active torsions:
REMARK  status: ('A' for Active; 'I' for Inactive)
REMARK    1  A    between atoms: C_1  and  C_2
REMARK    2  A    between atoms: C_5  and  C_35
REMARK    3  A    between atoms: N_8  and  C_10
REMARK    4  A    between atoms: C_10  and  C_11
REMARK    5  A    between atoms: C_11  and  C_12
REMARK    6  A    between atoms: C_12  and  N_13
REMARK    7  A    between atoms: C_14  and  C_16
REMARK    8  A    between atoms: C_16  and  C_17
REMARK    9  A    between atoms: C_17  and  N_18
REMARK   10  A    between atoms: C_25  and  C_28
REMARK                            x       y       z     vdW  Elec       q    Type
REMARK                         _______ _______ _______ _____ _____    ______ ____
ROOT
ATOM      1  C   UNL     1      -0.281   1.264  -4.889  0.00  0.00    +0.135 C 
ENDROOT
BRANCH   1   2
ATOM      2  N   UNL     1      -0.989   1.750  -6.076  0.00  0.00    -0.298 N 
ATOM      3  C   UNL     1      -1.978   1.003  -6.625  0.00  0.00    +0.206 A 
ATOM      4  N   UNL     1      -2.647   1.388  -7.678  0.00  0.00    -0.200 NA
ATOM      5  C   UNL     1      -2.378   2.549  -8.284  0.00  0.00    +0.265 A 
ATOM      6  C   UNL     1      -1.361   3.365  -7.764  0.00  0.00    +0.133 A 
ATOM      7  C   UNL     1      -0.652   2.941  -6.624  0.00  0.00    +0.267 A 
ATOM      8  O   UNL     1       0.237   3.624  -6.147  0.00  0.00    -0.267 OA
ATOM      9  C   UNL     1      -1.360   4.519  -8.667  0.00  0.00    +0.128 A 
ATOM     10  N   UNL     1      -2.304   4.265  -9.542  0.00  0.00    -0.075 NA
ATOM     11  O   UNL     1      -2.858   3.208  -9.346  0.00  0.00    -0.334 OA
BRANCH   9  12
ATOM     12  C   UNL     1      -0.483   5.713  -8.604  0.00  0.00    +0.005 A 
ATOM     13  C   UNL     1      -0.089   6.227  -7.370  0.00  0.00    +0.013 A 
ATOM     14  C   UNL     1       0.730   7.336  -7.317  0.00  0.00    +0.039 A 
ATOM     15  C   UNL     1       1.153   7.944  -8.488  0.00  0.00    +0.123 A 
ATOM     16  C   UNL     1       0.759   7.440  -9.717  0.00  0.00    +0.039 A 
ATOM     17  C   UNL     1      -0.056   6.329  -9.780  0.00  0.00    +0.013 A 
ATOM     18  F   UNL     1       1.951   9.033  -8.431  0.00  0.00    -0.205 F 
ENDBRANCH   9  12
ENDBRANCH   1   2
BRANCH   1  19
ATOM     19  C   UNL     1      -0.997   1.758  -3.630  0.00  0.00    +0.117 C 
BRANCH  19  21
ATOM     20  N   UNL     1      -0.721   1.571  -1.179  0.00  0.00    -0.315 N 
ATOM     21  C   UNL     1      -0.268   1.258  -2.409  0.00  0.00    +0.215 C 
ATOM     22  O   UNL     1       0.726   0.575  -2.534  0.00  0.00    -0.276 OA
ATOM     23  H   UNL     1      -1.623   2.191  -1.066  0.00  0.00    +0.149 HD
BRANCH  20  24
ATOM     24  C   UNL     1      -0.013   1.086   0.008  0.00  0.00    +0.102 C 
BRANCH  24  25
ATOM     25  C   UNL     1      -0.729   1.579   1.267  0.00  0.00    +0.000 C 
BRANCH  25  26
ATOM     26  C   UNL     1       0.011   1.072   2.506  0.00  0.00    -0.077 C 
BRANCH  26  32
ATOM     27  C   UNL     1      -1.341   4.998   5.143  0.00  0.00    +0.005 C 
ATOM     28  C   UNL     1      -1.443   3.477   5.013  0.00  0.00    -0.031 C 
ATOM     29  C   UNL     1      -0.926   2.819   6.295  0.00  0.00    +0.003 C 
ATOM     30  C   UNL     1      -0.974   1.297   6.134  0.00  0.00    -0.031 C 
ATOM     31  C   UNL     1      -0.141   0.891   4.916  0.00  0.00    -0.076 C 
ATOM     32  N   UNL     1      -0.676   1.546   3.715  0.00  0.00    +0.380 N 
ATOM     33  C   UNL     1      -0.596   3.008   3.827  0.00  0.00    -0.076 C 
ATOM     34  C   UNL     1      -2.424   0.851   5.933  0.00  0.00    +0.005 C 
ATOM     35  H   UNL     1      -1.739   1.274   3.630  0.00  0.00    -0.082 HD
ENDBRANCH  26  32
ENDBRANCH  25  26
ENDBRANCH  24  25
ENDBRANCH  20  24
ENDBRANCH  19  21
ENDBRANCH   1  19
TORSDOF 8
