REMARK  Name = ZINC66048513
REMARK  5 active torsions:
REMARK  status: ('A' for Active; 'I' for Inactive)
REMARK    1  A    between atoms: C_3  and  C_6
REMARK    2  A    between atoms: C_9  and  C_14
REMARK    3  A    between atoms: N_16  and  C_17
REMARK    4  A    between atoms: C_19  and  C_23
REMARK    5  A    between atoms: C_23  and  C_24
REMARK                            x       y       z     vdW  Elec       q    Type
REMARK                         _______ _______ _______ _____ _____    ______ ____
ROOT
ATOM      1  C   UNL     1       7.784   0.484  -0.072  0.00  0.00    +0.255 C 
ATOM      2  O   UNL     1       8.434   1.509  -0.167  0.00  0.00    -0.270 OA
ATOM      3  N   UNL     1       8.411  -0.706   0.012  0.00  0.00    -0.267 N 
ATOM      4  H   UNL     1       7.894  -1.527   0.009  0.00  0.00    +0.157 HD
ENDROOT
BRANCH   1   8
ATOM      5  C   UNL     1       3.560   0.620  -0.006  0.00  0.00    +0.085 A 
ATOM      6  C   UNL     1       4.277   1.809   0.004  0.00  0.00    +0.030 A 
ATOM      7  C   UNL     1       5.662   1.780  -0.017  0.00  0.00    +0.020 A 
ATOM      8  C   UNL     1       6.318   0.545  -0.049  0.00  0.00    +0.101 A 
ATOM      9  C   UNL     1       5.552  -0.647  -0.058  0.00  0.00    +0.261 A 
ATOM     10  O   UNL     1       6.112  -1.730  -0.085  0.00  0.00    -0.267 OA
ATOM     11  N   UNL     1       4.207  -0.586  -0.031  0.00  0.00    -0.319 N 
ATOM     12  H   UNL     1       3.691  -1.407  -0.034  0.00  0.00    +0.169 HD
BRANCH   5  15
ATOM     13  C   UNL     1      -0.015   1.351   0.057  0.00  0.00    +0.042 A 
ATOM     14  C   UNL     1       1.321   1.782   0.043  0.00  0.00    +0.051 A 
ATOM     15  C   UNL     1       2.096   0.656   0.017  0.00  0.00    +0.151 A 
ATOM     16  O   UNL     1       1.277  -0.415   0.015  0.00  0.00    -0.461 OA
ATOM     17  C   UNL     1       0.002  -0.001   0.039  0.00  0.00    +0.196 A 
ENDBRANCH   5  15
ENDBRANCH   1   8
BRANCH   3  18
ATOM     18  C   UNL     1       9.800  -0.757   0.102  0.00  0.00    +0.121 A 
ATOM     19  C   UNL     1      10.646   0.310   0.122  0.00  0.00    +0.068 A 
ATOM     20  C   UNL     1      11.951  -0.178   0.222  0.00  0.00    +0.065 A 
ATOM     21  N   UNL     1      11.902  -1.485   0.260  0.00  0.00    -0.177 NA
ATOM     22  N   UNL     1      10.559  -1.879   0.193  0.00  0.00    -0.264 N 
ATOM     23  H   UNL     1      10.230  -2.792   0.206  0.00  0.00    +0.190 HD
BRANCH  20  24
ATOM     24  C   UNL     1      13.203   0.658   0.275  0.00  0.00    +0.061 C 
BRANCH  24  25
ATOM     25  C   UNL     1      14.009   0.291   1.523  0.00  0.00    -0.005 C 
ATOM     26  C   UNL     1      13.214   0.672   2.773  0.00  0.00    +0.004 C 
ATOM     27  C   UNL     1      14.020   0.305   4.021  0.00  0.00    +0.000 C 
ATOM     28  C   UNL     1      15.349   1.062   4.011  0.00  0.00    +0.000 C 
ATOM     29  C   UNL     1      16.144   0.681   2.761  0.00  0.00    +0.000 C 
ATOM     30  C   UNL     1      15.338   1.048   1.513  0.00  0.00    +0.004 C 
ENDBRANCH  24  25
ENDBRANCH  20  24
ENDBRANCH   3  18
TORSDOF 5
