REMARK  Name = ZINC35396519
REMARK  7 active torsions:
REMARK  status: ('A' for Active; 'I' for Inactive)
REMARK    1  A    between atoms: C_1  and  C_2
REMARK    2  A    between atoms: C_4  and  C_25
REMARK    3  A    between atoms: C_5  and  C_9
REMARK    4  A    between atoms: C_6  and  C_8
REMARK    5  A    between atoms: C_15  and  C_17
REMARK    6  A    between atoms: C_17  and  S_18
REMARK    7  A    between atoms: S_18  and  C_19
REMARK                            x       y       z     vdW  Elec       q    Type
REMARK                         _______ _______ _______ _____ _____    ______ ____
ROOT
ATOM      1  C   UNL     1      -0.364  -4.112   0.806  0.00  0.00    +0.081 A 
ATOM      2  C   UNL     1      -0.505  -4.424   2.129  0.00  0.00    +0.076 A 
ATOM      3  S   UNL     1      -0.707  -6.198   2.030  0.00  0.00    -0.060 S 
ATOM      4  C   UNL     1      -0.583  -6.338   0.253  0.00  0.00    +0.165 A 
ATOM      5  N   UNL     1      -0.412  -5.078  -0.099  0.00  0.00    -0.225 NA
ATOM      6  N   UNL     1      -0.654  -7.472  -0.547  0.00  0.00    -0.264 N 
ATOM      7  C   UNL     1      -0.842  -8.683   0.015  0.00  0.00    +0.229 C 
ATOM      8  O   UNL     1      -0.949  -8.782   1.219  0.00  0.00    -0.275 OA
ATOM      9  H   UNL     1      -0.569  -7.393  -1.510  0.00  0.00    +0.157 HD
ENDROOT
BRANCH   1  14
ATOM     10  C   UNL     1       0.410   1.358  -0.822  0.00  0.00    +0.044 C 
ATOM     11  C   UNL     1       0.208  -0.073  -0.396  0.00  0.00    -0.050 A 
ATOM     12  C   UNL     1       1.061  -0.643   0.532  0.00  0.00    +0.007 A 
ATOM     13  C   UNL     1       0.880  -1.954   0.926  0.00  0.00    -0.041 A 
ATOM     14  C   UNL     1      -0.165  -2.703   0.387  0.00  0.00    +0.007 A 
ATOM     15  C   UNL     1      -1.022  -2.123  -0.547  0.00  0.00    -0.041 A 
ATOM     16  C   UNL     1      -0.834  -0.810  -0.930  0.00  0.00    +0.007 A 
ATOM     17  C   UNL     1      -2.154  -2.926  -1.134  0.00  0.00    +0.044 C 
ATOM     18  C   UNL     1       1.810  -2.574   1.936  0.00  0.00    +0.044 C 
ENDBRANCH   1  14
BRANCH   7  19
ATOM     19  C   UNL     1      -0.918  -9.913  -0.852  0.00  0.00    +0.172 C 
BRANCH  19  20
ATOM     20  S   UNL     1      -1.173 -11.374   0.192  0.00  0.00    -0.088 S 
BRANCH  20  21
ATOM     21  C   UNL     1      -1.241 -12.710  -0.954  0.00  0.00    +0.160 A 
ATOM     22  N   UNL     1      -1.129 -12.691  -2.268  0.00  0.00    -0.133 NA
ATOM     23  N   UNL     1      -1.212 -13.866  -2.980  0.00  0.00    -0.125 NA
ATOM     24  C   UNL     1      -1.404 -15.005  -2.345  0.00  0.00    +0.180 A 
ATOM     25  S   UNL     1      -1.471 -14.455  -0.647  0.00  0.00    -0.025 S 
ATOM     26  N   UNL     1      -1.517 -16.292  -2.859  0.00  0.00    -0.336 N 
ATOM     27  H   UNL     1      -1.455 -16.439  -3.816  0.00  0.00    +0.144 HD
ATOM     28  H   UNL     1      -1.659 -17.042  -2.261  0.00  0.00    +0.144 HD
ENDBRANCH  20  21
ENDBRANCH  19  20
ENDBRANCH   7  19
TORSDOF 4
