REMARK  Name = ZINC33450355
REMARK  14 active torsions:
REMARK  status: ('A' for Active; 'I' for Inactive)
REMARK    1  A    between atoms: C_1  and  C_2
REMARK    2  A    between atoms: C_2  and  O_3
REMARK    3  A    between atoms: O_3  and  C_4
REMARK    4  A    between atoms: C_4  and  C_6
REMARK    5  A    between atoms: C_10  and  N_11
REMARK    6  A    between atoms: C_12  and  C_14
REMARK    7  A    between atoms: C_14  and  S_15
REMARK    8  A    between atoms: S_15  and  C_16
REMARK    9  A    between atoms: C_19  and  C_21
REMARK   10  A    between atoms: C_24  and  C_27
REMARK   11  A    between atoms: C_27  and  C_28
REMARK   12  A    between atoms: C_27  and  C_29
REMARK   13  A    between atoms: C_27  and  C_30
REMARK   14  A    between atoms: C_32  and  C_36
REMARK                            x       y       z     vdW  Elec       q    Type
REMARK                         _______ _______ _______ _____ _____    ______ ____
ROOT
ATOM      1  N   UNL     1      -1.491  -0.852  -2.475  0.00  0.00    -0.279 N 
ATOM      2  C   UNL     1      -2.243  -1.282  -3.508  0.00  0.00    +0.228 C 
ATOM      3  O   UNL     1      -3.268  -1.896  -3.298  0.00  0.00    -0.275 OA
ATOM      4  H   UNL     1      -0.561  -0.296  -2.666  0.00  0.00    +0.155 HD
ENDROOT
BRANCH   1   9
ATOM      5  C   UNL     1      -1.256  -0.753   0.010  0.00  0.00    +0.091 A 
ATOM      6  C   UNL     1      -1.892  -1.146   1.257  0.00  0.00    -0.021 A 
ATOM      7  C   UNL     1      -3.047  -1.832   1.122  0.00  0.00    -0.004 A 
ATOM      8  S   UNL     1      -3.297  -1.960  -0.626  0.00  0.00    -0.077 S 
ATOM      9  C   UNL     1      -1.889  -1.111  -1.173  0.00  0.00    +0.086 A 
ATOM     10  C   UNL     1      -3.917  -2.361   2.220  0.00  0.00    +0.046 C 
ATOM     11  C   UNL     1      -3.500  -1.686   3.535  0.00  0.00    -0.009 C 
ATOM     12  C   UNL     1      -1.975  -1.754   3.662  0.00  0.00    +0.008 C 
ATOM     13  C   UNL     1      -1.325  -0.826   2.634  0.00  0.00    +0.037 C 
ATOM     14  C   UNL     1      -4.149  -2.414   4.714  0.00  0.00    +0.008 C 
BRANCH   5  15
ATOM     15  C   UNL     1       0.002  -0.004   0.002  0.00  0.00    +0.342 C 
ATOM     16  O   UNL     1       1.064  -0.598  -0.011  0.00  0.00    -0.245 OA
BRANCH  15  17
ATOM     17  O   UNL     1      -0.016   1.345   0.009  0.00  0.00    -0.461 OA
BRANCH  17  19
ATOM     18  C   UNL     1       1.047   3.535   0.011  0.00  0.00    +0.048 C 
ATOM     19  C   UNL     1       1.268   2.021   0.001  0.00  0.00    +0.229 C 
ENDBRANCH  17  19
ENDBRANCH  15  17
ENDBRANCH   5  15
ENDBRANCH   1   9
BRANCH   2  20
ATOM     20  C   UNL     1      -1.810  -1.002  -4.924  0.00  0.00    +0.175 C 
BRANCH  20  21
ATOM     21  S   UNL     1      -3.018  -1.702  -6.075  0.00  0.00    -0.056 S 
BRANCH  21  22
ATOM     22  C   UNL     1      -2.284  -1.240  -7.608  0.00  0.00    +0.278 A 
ATOM     23  N   UNL     1      -1.165  -0.572  -7.764  0.00  0.00    -0.101 NA
ATOM     24  N   UNL     1      -0.932  -0.412  -9.019  0.00  0.00    -0.106 NA
ATOM     25  C   UNL     1      -1.892  -0.971  -9.714  0.00  0.00    +0.249 A 
ATOM     26  O   UNL     1      -2.765  -1.512  -8.836  0.00  0.00    -0.411 OA
BRANCH  25  27
ATOM     27  C   UNL     1      -1.997  -1.008 -11.188  0.00  0.00    +0.039 A 
ATOM     28  C   UNL     1      -3.078  -1.647 -11.798  0.00  0.00    +0.013 A 
ATOM     29  C   UNL     1      -3.173  -1.673 -13.174  0.00  0.00    +0.005 A 
ATOM     30  C   UNL     1      -2.194  -1.077 -13.949  0.00  0.00    -0.042 A 
ATOM     31  C   UNL     1      -1.117  -0.448 -13.351  0.00  0.00    +0.005 A 
ATOM     32  C   UNL     1      -1.012  -0.409 -11.976  0.00  0.00    +0.013 A 
BRANCH  30  33
ATOM     33  C   UNL     1      -2.301  -1.115 -15.452  0.00  0.00    -0.013 C 
ATOM     34  C   UNL     1      -1.081  -1.834 -16.032  0.00  0.00    +0.015 C 
ATOM     35  C   UNL     1      -3.573  -1.864 -15.854  0.00  0.00    +0.015 C 
ATOM     36  C   UNL     1      -2.357   0.314 -15.996  0.00  0.00    +0.015 C 
ENDBRANCH  30  33
ENDBRANCH  25  27
ENDBRANCH  21  22
ENDBRANCH  20  21
ENDBRANCH   2  20
TORSDOF 9
