REMARK  Name = ZINC32740652
REMARK  2 active torsions:
REMARK  status: ('A' for Active; 'I' for Inactive)
REMARK    1  A    between atoms: C_4  and  C_7
REMARK    2  A    between atoms: C_9  and  C_12
REMARK                            x       y       z     vdW  Elec       q    Type
REMARK                         _______ _______ _______ _____ _____    ______ ____
ROOT
ATOM      1  C   UNL     1       5.490  -3.845  -0.084  0.00  0.00    +0.269 C 
ATOM      2  O   UNL     1       6.647  -4.221  -0.097  0.00  0.00    -0.268 OA
ATOM      3  N   UNL     1       4.489  -4.748  -0.085  0.00  0.00    -0.259 N 
ATOM      4  C   UNL     1       4.778  -6.106  -0.100  0.00  0.00    +0.165 A 
ATOM      5  N   UNL     1       5.955  -6.691  -0.110  0.00  0.00    -0.229 NA
ATOM      6  C   UNL     1       6.083  -8.015  -0.124  0.00  0.00    +0.054 A 
ATOM      7  C   UNL     1       4.911  -8.701  -0.129  0.00  0.00    +0.014 A 
ATOM      8  S   UNL     1       3.704  -7.406  -0.104  0.00  0.00    -0.057 S 
ATOM      9  C   UNL     1       4.722 -10.180  -0.148  0.00  0.00    +0.044 C 
ATOM     10  C   UNL     1       6.061 -10.831  -0.530  0.00  0.00    +0.006 C 
ATOM     11  C   UNL     1       7.175 -10.199   0.310  0.00  0.00    +0.006 C 
ATOM     12  C   UNL     1       7.413  -8.754  -0.134  0.00  0.00    +0.056 C 
ATOM     13  H   UNL     1       3.566  -4.448  -0.074  0.00  0.00    +0.157 HD
ENDROOT
BRANCH   1  16
ATOM     14  C   UNL     1       3.696  -0.685  -0.038  0.00  0.00    +0.109 A 
ATOM     15  N   UNL     1       3.926  -1.986  -0.053  0.00  0.00    -0.234 NA
ATOM     16  C   UNL     1       5.183  -2.405  -0.068  0.00  0.00    +0.134 A 
ATOM     17  C   UNL     1       6.194  -1.480  -0.067  0.00  0.00    +0.080 A 
ATOM     18  S   UNL     1       5.352  -0.022  -0.052  0.00  0.00    -0.075 S 
BRANCH  14  22
ATOM     19  C   UNL     1      -0.017   1.379   0.010  0.00  0.00    +0.000 A 
ATOM     20  C   UNL     1       1.168   2.093   0.002  0.00  0.00    +0.001 A 
ATOM     21  C   UNL     1       2.377   1.429  -0.013  0.00  0.00    +0.010 A 
ATOM     22  C   UNL     1       2.403   0.034  -0.021  0.00  0.00    +0.007 A 
ATOM     23  C   UNL     1       1.204  -0.680  -0.013  0.00  0.00    +0.010 A 
ATOM     24  C   UNL     1       0.002  -0.004   0.002  0.00  0.00    +0.001 A 
ENDBRANCH  14  22
ENDBRANCH   1  16
TORSDOF 2
