REMARK  Name = ZINC34974932
REMARK  8 active torsions:
REMARK  status: ('A' for Active; 'I' for Inactive)
REMARK    1  A    between atoms: C_1  and  C_2
REMARK    2  A    between atoms: C_9  and  C_11
REMARK    3  A    between atoms: C_17  and  C_19
REMARK    4  A    between atoms: C_19  and  C_21
REMARK    5  A    between atoms: C_19  and  N_24
REMARK    6  A    between atoms: C_21  and  C_22
REMARK    7  A    between atoms: C_21  and  C_23
REMARK    8  A    between atoms: N_27  and  C_28
REMARK                            x       y       z     vdW  Elec       q    Type
REMARK                         _______ _______ _______ _____ _____    ______ ____
ROOT
ATOM      1  C   UNL     1      -2.630   2.342  -1.011  0.00  0.00    +0.029 C 
ATOM      2  C   UNL     1      -1.747   1.126  -0.722  0.00  0.00    +0.090 C 
ATOM      3  C   UNL     1      -2.591  -0.152  -0.794  0.00  0.00    +0.130 C 
ATOM      4  N   UNL     1      -3.500  -0.180   0.361  0.00  0.00    -0.297 N 
ATOM      5  C   UNL     1      -2.933  -0.068   1.712  0.00  0.00    +0.127 C 
ATOM      6  C   UNL     1      -2.088   1.211   1.784  0.00  0.00    +0.127 C 
ATOM      7  N   UNL     1      -1.176   1.241   0.627  0.00  0.00    -0.295 N 
ATOM      8  C   UNL     1       0.154   1.366   0.801  0.00  0.00    +0.219 C 
ATOM      9  O   UNL     1       0.882   1.494  -0.161  0.00  0.00    -0.275 OA
ATOM     10  C   UNL     1      -4.830  -0.306   0.184  0.00  0.00    +0.236 C 
ATOM     11  O   UNL     1      -5.297  -0.298  -0.936  0.00  0.00    -0.274 OA
ENDROOT
BRANCH   8  12
ATOM     12  C   UNL     1       0.738   1.348   2.190  0.00  0.00    +0.075 C 
ATOM     13  C   UNL     1       0.302   2.606   2.943  0.00  0.00    +0.013 C 
ATOM     14  C   UNL     1       0.895   2.587   4.354  0.00  0.00    +0.001 C 
ATOM     15  C   UNL     1       2.422   2.550   4.264  0.00  0.00    +0.000 C 
ATOM     16  C   UNL     1       2.858   1.292   3.511  0.00  0.00    +0.001 C 
ATOM     17  C   UNL     1       2.265   1.310   2.101  0.00  0.00    +0.013 C 
ENDBRANCH   8  12
BRANCH  10  18
ATOM     18  C   UNL     1      -5.738  -0.457   1.377  0.00  0.00    +0.163 C 
BRANCH  18  19
ATOM     19  N   UNL     1      -6.793  -1.426   1.069  0.00  0.00    -0.288 N 
ATOM     20  C   UNL     1      -7.401  -2.101   2.064  0.00  0.00    +0.304 C 
ATOM     21  O   UNL     1      -7.072  -1.907   3.219  0.00  0.00    -0.252 OA
ATOM     22  N   UNL     1      -8.371  -2.992   1.780  0.00  0.00    -0.269 N 
ATOM     23  H   UNL     1      -7.055  -1.581   0.147  0.00  0.00    +0.151 HD
ATOM     24  H   UNL     1      -8.589  -3.194   0.857  0.00  0.00    +0.156 HD
BRANCH  22  25
ATOM     25  C   UNL     1      -9.066  -3.625   2.818  0.00  0.00    +0.035 A 
ATOM     26  C   UNL     1     -10.417  -3.913   2.676  0.00  0.00    +0.025 A 
ATOM     27  C   UNL     1     -11.100  -4.537   3.702  0.00  0.00    +0.022 A 
ATOM     28  C   UNL     1     -10.439  -4.876   4.870  0.00  0.00    +0.041 A 
ATOM     29  C   UNL     1      -9.093  -4.589   5.014  0.00  0.00    +0.022 A 
ATOM     30  C   UNL     1      -8.404  -3.970   3.989  0.00  0.00    +0.025 A 
ATOM     31 CL   UNL     1     -11.300  -5.660   6.157  0.00  0.00    -0.084 Cl
ENDBRANCH  22  25
ENDBRANCH  18  19
BRANCH  18  32
ATOM     32  C   UNL     1      -6.370   0.895   1.712  0.00  0.00    +0.012 C 
ATOM     33  C   UNL     1      -7.200   0.768   2.991  0.00  0.00    +0.009 C 
ATOM     34  C   UNL     1      -5.267   1.935   1.922  0.00  0.00    +0.009 C 
ENDBRANCH  18  32
ENDBRANCH  10  18
TORSDOF 5
