REMARK  Name = ZINC39205225
REMARK  10 active torsions:
REMARK  status: ('A' for Active; 'I' for Inactive)
REMARK    1  A    between atoms: C_1  and  C_2
REMARK    2  A    between atoms: C_2  and  C_3
REMARK    3  A    between atoms: C_3  and  C_5
REMARK    4  A    between atoms: C_3  and  S_24
REMARK    5  A    between atoms: N_7  and  C_8
REMARK    6  A    between atoms: C_10  and  C_19
REMARK    7  A    between atoms: C_19  and  O_21
REMARK    8  A    between atoms: O_21  and  C_22
REMARK    9  A    between atoms: C_22  and  C_23
REMARK   10  A    between atoms: S_24  and  C_25
REMARK                            x       y       z     vdW  Elec       q    Type
REMARK                         _______ _______ _______ _____ _____    ______ ____
ROOT
ATOM      1  C   UNL     1       0.722  -0.379  -1.236  0.00  0.00    +0.140 C 
ENDROOT
BRANCH   1   2
ATOM      2  C   UNL     1       0.837  -1.881  -1.302  0.00  0.00    +0.227 C 
ATOM      3  O   UNL     1       0.105  -2.513  -2.033  0.00  0.00    -0.275 OA
ATOM      4  N   UNL     1       1.754  -2.520  -0.550  0.00  0.00    -0.301 N 
ATOM      5  H   UNL     1       2.340  -2.014   0.035  0.00  0.00    +0.150 HD
BRANCH   4   6
ATOM      6  C   UNL     1       1.866  -3.979  -0.614  0.00  0.00    +0.153 C 
ATOM      7  C   UNL     1       3.344  -4.437  -0.596  0.00  0.00    +0.155 C 
ATOM      8  C   UNL     1       3.818  -4.728   0.806  0.00  0.00    -0.044 C 
ATOM      9  C   UNL     1       2.895  -4.937   1.737  0.00  0.00    -0.013 C 
ATOM     10  S   UNL     1       1.307  -4.770   0.953  0.00  0.00    -0.106 S 
ATOM     11  C   UNL     1       3.130  -5.255   3.188  0.00  0.00    +0.042 C 
ATOM     12  C   UNL     1       4.596  -5.664   3.373  0.00  0.00    +0.005 C 
ATOM     13  C   UNL     1       5.481  -4.638   2.658  0.00  0.00    +0.005 C 
ATOM     14  C   UNL     1       5.306  -4.782   1.147  0.00  0.00    +0.032 C 
BRANCH   7  15
ATOM     15  C   UNL     1       3.483  -5.685  -1.428  0.00  0.00    +0.317 C 
ATOM     16  O   UNL     1       3.860  -6.714  -0.917  0.00  0.00    -0.250 OA
BRANCH  15  17
ATOM     17  O   UNL     1       3.189  -5.655  -2.737  0.00  0.00    -0.464 OA
BRANCH  17  18
ATOM     18  C   UNL     1       3.343  -6.875  -3.466  0.00  0.00    +0.229 C 
ATOM     19  C   UNL     1       2.964  -6.646  -4.930  0.00  0.00    +0.048 C 
ENDBRANCH  17  18
ENDBRANCH  15  17
ENDBRANCH   7  15
ENDBRANCH   4   6
ENDBRANCH   1   2
BRANCH   1  21
ATOM     20  C   UNL     1       0.707  -0.369   1.262  0.00  0.00    +0.005 C 
ATOM     21  C   UNL     1      -0.078   0.017   0.006  0.00  0.00    +0.020 C 
ENDBRANCH   1  21
BRANCH   1  22
ATOM     22  S   UNL     1      -0.126   0.228  -2.720  0.00  0.00    -0.072 S 
BRANCH  22  23
ATOM     23  C   UNL     1       0.065   1.978  -2.634  0.00  0.00    +0.208 C 
ATOM     24  N   UNL     1       0.669   2.482  -1.586  0.00  0.00    -0.227 NA
ATOM     25  C   UNL     1       0.753   3.938  -1.484  0.00  0.00    +0.252 C 
ATOM     26  C   UNL     1       0.751   4.467  -2.911  0.00  0.00    +0.117 C 
ATOM     27  C   UNL     1       1.790   5.345  -2.977  0.00  0.00    +0.025 A 
ATOM     28  C   UNL     1       2.228   6.227  -3.995  0.00  0.00    +0.012 A 
ATOM     29  C   UNL     1       3.336   6.974  -3.743  0.00  0.00    +0.001 A 
ATOM     30  C   UNL     1       4.062   6.924  -2.549  0.00  0.00    +0.002 A 
ATOM     31  C   UNL     1       3.731   6.122  -1.502  0.00  0.00    +0.026 A 
ATOM     32  C   UNL     1       2.537   5.279  -1.683  0.00  0.00    +0.046 A 
ATOM     33  N   UNL     1       1.973   4.440  -0.868  0.00  0.00    -0.358 N 
ATOM     34  N   UNL     1      -0.069   3.961  -3.837  0.00  0.00    -0.147 NA
ATOM     35  N   UNL     1      -0.417   2.724  -3.658  0.00  0.00    -0.122 NA
ATOM     36  H   UNL     1       2.308   4.190   0.007  0.00  0.00    +0.162 HD
ENDBRANCH  22  23
ENDBRANCH   1  22
TORSDOF 8
