REMARK  Name = ZINC39421636
REMARK  6 active torsions:
REMARK  status: ('A' for Active; 'I' for Inactive)
REMARK    1  A    between atoms: C_1  and  O_2
REMARK    2  A    between atoms: O_2  and  C_3
REMARK    3  A    between atoms: C_3  and  C_5
REMARK    4  A    between atoms: C_12  and  C_17
REMARK    5  A    between atoms: C_17  and  S_18
REMARK    6  A    between atoms: S_18  and  C_19
REMARK                            x       y       z     vdW  Elec       q    Type
REMARK                         _______ _______ _______ _____ _____    ______ ____
ROOT
ATOM      1  C   UNL     1       0.395  -2.101  -1.268  0.00  0.00    +0.061 A 
ATOM      2  C   UNL     1      -0.277  -2.877  -0.315  0.00  0.00    +0.016 A 
ATOM      3  C   UNL     1      -0.264  -4.241  -0.395  0.00  0.00    +0.016 A 
ATOM      4  C   UNL     1       0.423  -4.868  -1.433  0.00  0.00    +0.065 A 
ATOM      5  C   UNL     1       1.106  -4.100  -2.402  0.00  0.00    +0.079 A 
ATOM      6  C   UNL     1       1.081  -2.707  -2.313  0.00  0.00    +0.043 A 
ATOM      7  N   UNL     1       1.767  -4.737  -3.401  0.00  0.00    -0.233 NA
ATOM      8  C   UNL     1       1.786  -6.032  -3.487  0.00  0.00    +0.120 A 
ATOM      9  N   UNL     1       1.159  -6.850  -2.602  0.00  0.00    -0.310 N 
ATOM     10  H   UNL     1       1.209  -7.812  -2.717  0.00  0.00    +0.170 HD
ATOM     11  C   UNL     1       0.466  -6.335  -1.560  0.00  0.00    +0.259 A 
ATOM     12  O   UNL     1      -0.101  -7.055  -0.759  0.00  0.00    -0.267 OA
ENDROOT
BRANCH   1  13
ATOM     13  C   UNL     1       0.369  -0.626  -1.163  0.00  0.00    +0.339 C 
ATOM     14  O   UNL     1       0.946   0.052  -1.990  0.00  0.00    -0.245 OA
BRANCH  13  16
ATOM     15  C   UNL     1      -0.278   1.395  -0.113  0.00  0.00    +0.280 C 
ATOM     16  O   UNL     1      -0.294  -0.033  -0.152  0.00  0.00    -0.464 OA
ENDBRANCH  13  16
ENDBRANCH   1  13
BRANCH   8  17
ATOM     17  C   UNL     1       2.543  -6.661  -4.628  0.00  0.00    +0.146 C 
BRANCH  17  18
ATOM     18  S   UNL     1       3.281  -5.360  -5.655  0.00  0.00    -0.114 S 
BRANCH  18  19
ATOM     19  C   UNL     1       4.194  -6.272  -6.929  0.00  0.00    +0.218 C 
ATOM     20  N   UNL     1       3.265  -6.759  -7.976  0.00  0.00    -0.225 NA
ATOM     21  N   UNL     1       3.634  -6.065  -9.220  0.00  0.00    -0.225 NA
ATOM     22  C   UNL     1       4.304  -4.840  -8.735  0.00  0.00    +0.222 C 
ATOM     23  N   UNL     1       5.143  -5.370  -7.622  0.00  0.00    -0.278 N 
ATOM     24  C   UNL     1       6.470  -4.939  -7.610  0.00  0.00    +0.047 A 
ATOM     25  C   UNL     1       7.345  -4.995  -6.512  0.00  0.00    +0.024 A 
ATOM     26  C   UNL     1       8.660  -4.606  -6.629  0.00  0.00    +0.002 A 
ATOM     27  C   UNL     1       9.164  -4.145  -7.832  0.00  0.00    +0.001 A 
ATOM     28  C   UNL     1       8.316  -4.048  -8.923  0.00  0.00    +0.016 A 
ATOM     29  C   UNL     1       6.995  -4.410  -8.795  0.00  0.00    +0.032 A 
ATOM     30  S   UNL     1       5.581  -4.273  -9.917  0.00  0.00    -0.084 S 
ATOM     31  H   UNL     1       2.307  -6.568  -7.725  0.00  0.00    +0.143 HD
ATOM     32  H   UNL     1       2.815  -5.838  -9.764  0.00  0.00    +0.143 HD
ENDBRANCH  18  19
ENDBRANCH  17  18
ENDBRANCH   8  17
TORSDOF 5
