REMARK  Name = ZINC59795191
REMARK  8 active torsions:
REMARK  status: ('A' for Active; 'I' for Inactive)
REMARK    1  A    between atoms: C_6  and  C_7
REMARK    2  A    between atoms: C_10  and  S_13
REMARK    3  A    between atoms: N_11  and  N_12
REMARK    4  A    between atoms: S_13  and  C_14
REMARK    5  A    between atoms: C_14  and  C_15
REMARK    6  A    between atoms: N_17  and  C_18
REMARK    7  A    between atoms: C_21  and  S_24
REMARK    8  A    between atoms: S_24  and  N_27
REMARK                            x       y       z     vdW  Elec       q    Type
REMARK                         _______ _______ _______ _____ _____    ______ ____
ROOT
ATOM      1  C   UNL     1      -7.843  -3.858   0.852  0.00  0.00    +0.227 C 
ATOM      2  O   UNL     1      -8.847  -4.031   1.509  0.00  0.00    -0.275 OA
ATOM      3  N   UNL     1      -7.443  -4.796  -0.029  0.00  0.00    -0.285 N 
ATOM      4  H   UNL     1      -6.679  -4.630  -0.602  0.00  0.00    +0.155 HD
ENDROOT
BRANCH   3   5
ATOM      5  C   UNL     1      -8.132  -6.011  -0.117  0.00  0.00    +0.034 A 
ATOM      6  C   UNL     1      -7.440  -7.186  -0.383  0.00  0.00    +0.025 A 
ATOM      7  C   UNL     1      -8.123  -8.383  -0.469  0.00  0.00    +0.030 A 
ATOM      8  C   UNL     1      -9.494  -8.414  -0.290  0.00  0.00    +0.106 A 
ATOM      9  C   UNL     1     -10.185  -7.246  -0.025  0.00  0.00    +0.030 A 
ATOM     10  C   UNL     1      -9.508  -6.046   0.068  0.00  0.00    +0.025 A 
BRANCH   8  11
ATOM     11  S   UNL     1     -10.361  -9.944  -0.401  0.00  0.00    +0.061 S 
ATOM     12  O   UNL     1     -11.704  -9.626  -0.736  0.00  0.00    -0.153 OA
ATOM     13  O   UNL     1      -9.561 -10.807  -1.197  0.00  0.00    -0.153 OA
BRANCH  11  14
ATOM     14  N   UNL     1     -10.394 -10.598   1.120  0.00  0.00    -0.177 NA
ATOM     15  C   UNL     1      -9.313 -11.470   1.524  0.00  0.00    +0.109 C 
ATOM     16  C   UNL     1      -9.654 -12.931   1.141  0.00  0.00    +0.017 C 
ATOM     17  C   UNL     1     -10.724 -13.450   2.006  0.00  0.00    +0.001 C 
ATOM     18  C   UNL     1     -12.051 -12.708   1.878  0.00  0.00    +0.001 C 
ATOM     19  C   UNL     1     -12.036 -11.498   2.780  0.00  0.00    +0.017 C 
ATOM     20  C   UNL     1     -11.524 -10.263   2.010  0.00  0.00    +0.109 C 
ENDBRANCH  11  14
ENDBRANCH   8  11
ENDBRANCH   3   5
BRANCH   1  21
ATOM     21  C   UNL     1      -7.040  -2.593   1.020  0.00  0.00    +0.173 C 
BRANCH  21  22
ATOM     22  S   UNL     1      -7.829  -1.539   2.268  0.00  0.00    -0.075 S 
BRANCH  22  26
ATOM     23  C   UNL     1      -5.910   1.811   2.872  0.00  0.00    +0.182 A 
ATOM     24  N   UNL     1      -5.180   1.222   1.954  0.00  0.00    -0.127 NA
ATOM     25  N   UNL     1      -5.695   0.086   1.646  0.00  0.00    -0.121 NA
ATOM     26  C   UNL     1      -6.786  -0.121   2.349  0.00  0.00    +0.209 A 
ATOM     27  N   UNL     1      -6.958   0.967   3.157  0.00  0.00    -0.224 N 
BRANCH  23  33
ATOM     28  C   UNL     1      -4.404   3.738   3.342  0.00  0.00    +0.013 A 
ATOM     29  C   UNL     1      -4.168   4.969   3.919  0.00  0.00    +0.021 A 
ATOM     30  C   UNL     1      -5.167   5.601   4.641  0.00  0.00    +0.041 A 
ATOM     31  C   UNL     1      -6.406   5.002   4.789  0.00  0.00    +0.021 A 
ATOM     32  C   UNL     1      -6.654   3.771   4.217  0.00  0.00    +0.013 A 
ATOM     33  C   UNL     1      -5.651   3.130   3.487  0.00  0.00    +0.021 A 
ATOM     34 CL   UNL     1      -4.862   7.149   5.365  0.00  0.00    -0.084 Cl
ENDBRANCH  23  33
BRANCH  27  35
ATOM     35  N   UNL     1      -7.963   1.174   4.058  0.00  0.00    -0.295 N 
ATOM     36  H   UNL     1      -8.745   1.643   3.627  0.00  0.00    +0.163 HD
ATOM     37  H   UNL     1      -8.252   0.306   4.484  0.00  0.00    +0.163 HD
ENDBRANCH  27  35
ENDBRANCH  22  26
ENDBRANCH  21  22
ENDBRANCH   1  21
TORSDOF 8
