REMARK  Name = ZINC12037282
REMARK  11 active torsions:
REMARK  status: ('A' for Active; 'I' for Inactive)
REMARK    1  A    between atoms: C_1  and  O_2
REMARK    2  A    between atoms: O_2  and  C_3
REMARK    3  A    between atoms: C_3  and  C_4
REMARK    4  A    between atoms: N_6  and  C_7
REMARK    5  A    between atoms: C_16  and  O_18
REMARK    6  A    between atoms: O_18  and  C_19
REMARK    7  A    between atoms: C_19  and  C_20
REMARK    8  A    between atoms: C_26  and  C_27
REMARK    9  A    between atoms: C_26  and  N_70
REMARK   10  A    between atoms: C_31  and  O_33
REMARK   11  A    between atoms: O_33  and  C_34
REMARK                            x       y       z     vdW  Elec       q    Type
REMARK                         _______ _______ _______ _____ _____    ______ ____
ROOT
ATOM      1  C   UNL     1       4.946  -2.749  -4.105  0.00  0.00    +0.133 C 
ATOM      2  C   UNL     1       4.852  -1.951  -5.389  0.00  0.00    -0.021 A 
ATOM      3  C   UNL     1       5.316  -2.240  -6.661  0.00  0.00    +0.006 A 
ATOM      4  C   UNL     1       5.114  -1.347  -7.695  0.00  0.00    +0.000 A 
ATOM      5  C   UNL     1       4.447  -0.160  -7.460  0.00  0.00    +0.000 A 
ATOM      6  C   UNL     1       3.982   0.131  -6.192  0.00  0.00    +0.004 A 
ATOM      7  C   UNL     1       4.183  -0.763  -5.153  0.00  0.00    -0.034 A 
ATOM      8  C   UNL     1       3.781  -0.688  -3.700  0.00  0.00    +0.021 C 
ATOM      9  C   UNL     1       3.891  -2.127  -3.164  0.00  0.00    +0.154 C 
ATOM     10  C   UNL     1       4.729   0.229  -2.931  0.00  0.00    -0.005 C 
ATOM     11  C   UNL     1       4.281   0.309  -1.469  0.00  0.00    -0.077 C 
ATOM     12  C   UNL     1       1.972  -0.098  -2.088  0.00  0.00    -0.077 C 
ATOM     13  C   UNL     1       2.343  -0.192  -3.570  0.00  0.00    -0.005 C 
ATOM     14  N   UNL     1       2.901   0.839  -1.421  0.00  0.00    +0.382 N 
ATOM     15  H   UNL     1       2.873   1.741  -1.911  0.00  0.00    -0.081 HD
ENDROOT
BRANCH   1  18
ATOM     16  C   UNL     1       7.272  -3.450  -3.916  0.00  0.00    +0.239 C 
ATOM     17  O   UNL     1       7.052  -4.302  -4.750  0.00  0.00    -0.273 OA
ATOM     18  N   UNL     1       6.284  -2.620  -3.524  0.00  0.00    -0.304 N 
ATOM     19  H   UNL     1       6.460  -1.938  -2.857  0.00  0.00    +0.149 HD
BRANCH  16  20
ATOM     20  C   UNL     1       8.649  -3.317  -3.318  0.00  0.00    +0.255 C 
BRANCH  20  22
ATOM     21  C   UNL     1      10.850  -4.262  -3.389  0.00  0.00    +0.194 C 
ATOM     22  O   UNL     1       9.513  -4.301  -3.890  0.00  0.00    -0.374 OA
ENDBRANCH  20  22
ENDBRANCH  16  20
ENDBRANCH   1  18
BRANCH   9  23
ATOM     23  O   UNL     1       2.641  -2.810  -3.280  0.00  0.00    -0.370 OA
BRANCH  23  24
ATOM     24  C   UNL     1       2.426  -3.804  -2.276  0.00  0.00    +0.187 C 
BRANCH  24  25
ATOM     25  C   UNL     1       1.085  -4.457  -2.494  0.00  0.00    -0.007 C 
ATOM     26  C   UNL     1       0.972  -5.760  -2.421  0.00  0.00    +0.006 C 
ENDBRANCH  24  25
ENDBRANCH  23  24
ENDBRANCH   9  23
BRANCH  14  27
ATOM     27  C   UNL     1       2.489   1.044  -0.017  0.00  0.00    -0.043 C 
BRANCH  27  28
ATOM     28  C   UNL     1       1.175   1.782   0.000  0.00  0.00    -0.057 A 
ATOM     29  C   UNL     1       1.162   3.165   0.008  0.00  0.00    +0.051 A 
ATOM     30  C   UNL     1      -0.044   3.849   0.024  0.00  0.00    +0.170 A 
ATOM     31  C   UNL     1      -1.242   3.141   0.031  0.00  0.00    +0.208 A 
ATOM     32  C   UNL     1      -1.223   1.752   0.017  0.00  0.00    +0.166 A 
ATOM     33  C   UNL     1      -0.013   1.076   0.008  0.00  0.00    +0.051 A 
ATOM     34  O   UNL     1      -2.276   4.033   0.046  0.00  0.00    -0.449 OA
ATOM     35  C   UNL     1      -1.697   5.285   0.459  0.00  0.00    +0.467 C 
ATOM     36  O   UNL     1      -0.326   5.184   0.033  0.00  0.00    -0.452 OA
BRANCH  32  37
ATOM     37  O   UNL     1      -2.392   1.056   0.019  0.00  0.00    -0.491 OA
ATOM     38  C   UNL     1      -2.297  -0.370   0.011  0.00  0.00    +0.277 C 
ENDBRANCH  32  37
ENDBRANCH  27  28
ENDBRANCH  14  27
TORSDOF 9
