REMARK  Name = ZINC65347763
REMARK  3 active torsions:
REMARK  status: ('A' for Active; 'I' for Inactive)
REMARK    1  A    between atoms: C_3  and  C_17
REMARK    2  A    between atoms: C_6  and  C_7
REMARK    3  A    between atoms: C_9  and  C_14
REMARK                            x       y       z     vdW  Elec       q    Type
REMARK                         _______ _______ _______ _____ _____    ______ ____
ROOT
ATOM      1  C   UNL     1      -1.343  -0.648   0.041  0.00  0.00    -0.001 A 
ATOM      2  C   UNL     1      -1.194  -2.035   0.012  0.00  0.00    +0.028 A 
ATOM      3  C   UNL     1      -2.349  -2.824  -0.011  0.00  0.00    +0.101 A 
ATOM      4  C   UNL     1      -3.606  -2.190  -0.004  0.00  0.00    +0.108 A 
ATOM      5  N   UNL     1      -3.695  -0.869   0.025  0.00  0.00    -0.349 N 
ATOM      6  C   UNL     1      -2.627  -0.099   0.052  0.00  0.00    +0.092 A 
ATOM      7  N   UNL     1      -4.756  -2.953  -0.027  0.00  0.00    -0.344 N 
ATOM      8  H   UNL     1      -4.699  -3.919   0.037  0.00  0.00    +0.144 HD
ATOM      9  H   UNL     1      -5.622  -2.522  -0.107  0.00  0.00    +0.144 HD
ATOM     10  H   UNL     1      -4.573  -0.456   0.029  0.00  0.00    +0.167 HD
ENDROOT
BRANCH   1  16
ATOM     11  C   UNL     1      -0.311   1.620   0.102  0.00  0.00    +0.009 A 
ATOM     12  C   UNL     1       0.789   2.437   0.127  0.00  0.00    +0.016 A 
ATOM     13  C   UNL     1       2.073   1.880   0.116  0.00  0.00    +0.063 A 
ATOM     14  C   UNL     1       2.231   0.490   0.081  0.00  0.00    +0.016 A 
ATOM     15  C   UNL     1       1.127  -0.324   0.057  0.00  0.00    +0.009 A 
ATOM     16  C   UNL     1      -0.152   0.234   0.067  0.00  0.00    -0.016 A 
BRANCH  13  17
ATOM     17  C   UNL     1       3.257   2.756   0.142  0.00  0.00    +0.387 C 
ATOM     18  O   UNL     1       3.118   3.971   0.172  0.00  0.00    -0.241 OA
ATOM     19  O   UNL     1       4.379   2.268   0.132  0.00  0.00    -0.241 OA
ENDBRANCH  13  17
ENDBRANCH   1  16
BRANCH   3  20
ATOM     20  C   UNL     1      -2.251  -4.291  -0.043  0.00  0.00    +0.390 C 
ATOM     21  O   UNL     1      -1.158  -4.829  -0.165  0.00  0.00    -0.240 OA
ATOM     22  O   UNL     1      -3.261  -4.974   0.053  0.00  0.00    -0.240 OA
ENDBRANCH   3  20
TORSDOF 3
