REMARK  Name = ZINC38556354
REMARK  11 active torsions:
REMARK  status: ('A' for Active; 'I' for Inactive)
REMARK    1  A    between atoms: C_1  and  O_2
REMARK    2  A    between atoms: O_2  and  C_3
REMARK    3  A    between atoms: C_6  and  C_11
REMARK    4  A    between atoms: C_8  and  O_9
REMARK    5  A    between atoms: O_9  and  C_10
REMARK    6  A    between atoms: C_11  and  C_13
REMARK    7  A    between atoms: C_13  and  S_14
REMARK    8  A    between atoms: S_14  and  C_15
REMARK    9  A    between atoms: C_19  and  C_23
REMARK   10  A    between atoms: N_21  and  N_22
REMARK   11  A    between atoms: C_26  and  C_29
REMARK                            x       y       z     vdW  Elec       q    Type
REMARK                         _______ _______ _______ _____ _____    ______ ____
ROOT
ATOM      1  C   UNL     1       4.512  -1.582  -7.938  0.00  0.00    +0.272 C 
ATOM      2  N   UNL     1       3.465  -0.684  -8.441  0.00  0.00    -0.159 NA
ATOM      3  N   UNL     1       3.861   0.485  -8.483  0.00  0.00    -0.167 NA
ATOM      4  C   UNL     1       5.249   0.593  -8.016  0.00  0.00    +0.244 C 
ATOM      5  N   UNL     1       5.510  -0.685  -7.303  0.00  0.00    -0.183 NA
ENDROOT
BRANCH   4   6
ATOM      6  C   UNL     1       5.399   1.780  -7.062  0.00  0.00    +0.195 C 
ATOM      7  C   UNL     1       4.997   3.073  -7.749  0.00  0.00    +0.035 C 
ATOM      8  C   UNL     1       6.123   3.812  -7.729  0.00  0.00    +0.091 C 
ATOM      9  N   UNL     1       7.130   3.128  -7.125  0.00  0.00    -0.154 NA
ATOM     10  N   UNL     1       6.816   2.000  -6.726  0.00  0.00    -0.176 NA
BRANCH   8  11
ATOM     11  C   UNL     1       6.247   5.181  -8.289  0.00  0.00    +0.002 A 
ATOM     12  C   UNL     1       5.147   5.795  -8.885  0.00  0.00    +0.011 A 
ATOM     13  C   UNL     1       5.268   7.068  -9.404  0.00  0.00    +0.020 A 
ATOM     14  C   UNL     1       6.479   7.734  -9.334  0.00  0.00    +0.041 A 
ATOM     15  C   UNL     1       7.575   7.129  -8.743  0.00  0.00    +0.020 A 
ATOM     16  C   UNL     1       7.463   5.859  -8.216  0.00  0.00    +0.011 A 
ATOM     17 CL   UNL     1       6.624   9.335  -9.990  0.00  0.00    -0.084 Cl
ENDBRANCH   8  11
ENDBRANCH   4   6
BRANCH   5  18
ATOM     18  N   UNL     1       6.864  -1.154  -7.549  0.00  0.00    -0.263 NA
ATOM     19  H   UNL     1       6.998  -2.083  -7.177  0.00  0.00    +0.137 HD
ATOM     20  H   UNL     1       7.084  -1.123  -8.533  0.00  0.00    +0.137 HD
ENDBRANCH   5  18
BRANCH   1  21
ATOM     21  S   UNL     1       3.825  -2.730  -6.714  0.00  0.00    -0.108 S 
BRANCH  21  22
ATOM     22  C   UNL     1       3.104  -1.646  -5.451  0.00  0.00    +0.152 C 
BRANCH  22  23
ATOM     23  C   UNL     1       2.490  -2.485  -4.360  0.00  0.00    +0.173 C 
ATOM     24  O   UNL     1       2.535  -3.695  -4.427  0.00  0.00    -0.291 OA
BRANCH  23  28
ATOM     25  C   UNL     1       0.605  -0.606  -1.054  0.00  0.00    +0.162 A 
ATOM     26  C   UNL     1       1.172   0.166  -2.061  0.00  0.00    +0.050 A 
ATOM     27  C   UNL     1       1.785  -0.440  -3.135  0.00  0.00    +0.015 A 
ATOM     28  C   UNL     1       1.838  -1.836  -3.215  0.00  0.00    +0.022 A 
ATOM     29  C   UNL     1       1.266  -2.614  -2.200  0.00  0.00    +0.060 A 
ATOM     30  C   UNL     1       0.659  -1.998  -1.124  0.00  0.00    +0.162 A 
BRANCH  25  32
ATOM     31  C   UNL     1      -0.017   1.425   0.010  0.00  0.00    +0.277 C 
ATOM     32  O   UNL     1       0.002  -0.004   0.002  0.00  0.00    -0.491 OA
ENDBRANCH  25  32
BRANCH  30  33
ATOM     33  O   UNL     1       0.107  -2.750  -0.133  0.00  0.00    -0.491 OA
ATOM     34  C   UNL     1       0.199  -4.170  -0.269  0.00  0.00    +0.277 C 
ENDBRANCH  30  33
ENDBRANCH  23  28
ENDBRANCH  22  23
ENDBRANCH  21  22
ENDBRANCH   1  21
TORSDOF 9
