REMARK  Name = ZINC00522331
REMARK  7 active torsions:
REMARK  status: ('A' for Active; 'I' for Inactive)
REMARK    1  A    between atoms: C_1  and  C_2
REMARK    2  A    between atoms: C_4  and  C_25
REMARK    3  A    between atoms: C_5  and  N_9
REMARK    4  A    between atoms: C_6  and  C_8
REMARK    5  A    between atoms: C_13  and  N_17
REMARK    6  A    between atoms: N_17  and  C_18
REMARK    7  A    between atoms: N_17  and  O_24
REMARK                            x       y       z     vdW  Elec       q    Type
REMARK                         _______ _______ _______ _____ _____    ______ ____
ROOT
ATOM      1  N   UNL     1       0.040  -4.284  -0.084  0.00  0.00    -0.208 N 
ATOM      2  C   UNL     1      -1.065  -5.026  -0.229  0.00  0.00    +0.229 C 
ATOM      3  O   UNL     1      -2.195  -4.596  -0.312  0.00  0.00    -0.275 OA
ATOM      4  C   UNL     1      -0.679  -6.489  -0.272  0.00  0.00    +0.133 C 
ATOM      5  C   UNL     1       0.856  -6.462  -0.126  0.00  0.00    +0.207 C 
ATOM      6  C   UNL     1       1.177  -4.987  -0.022  0.00  0.00    +0.252 C 
ATOM      7  O   UNL     1       2.288  -4.517   0.102  0.00  0.00    -0.272 OA
ENDROOT
BRANCH   1  12
ATOM      8  C   UNL     1      -0.088   1.383   0.212  0.00  0.00    +0.044 C 
ATOM      9  C   UNL     1      -0.054  -0.122   0.133  0.00  0.00    -0.050 A 
ATOM     10  C   UNL     1      -0.018  -0.748  -1.099  0.00  0.00    +0.008 A 
ATOM     11  C   UNL     1       0.013  -2.126  -1.175  0.00  0.00    -0.028 A 
ATOM     12  C   UNL     1       0.009  -2.884  -0.011  0.00  0.00    +0.050 A 
ATOM     13  C   UNL     1      -0.027  -2.253   1.225  0.00  0.00    -0.028 A 
ATOM     14  C   UNL     1      -0.053  -0.874   1.294  0.00  0.00    +0.008 A 
ATOM     15  C   UNL     1      -0.032  -3.072   2.490  0.00  0.00    +0.046 C 
ATOM     16  C   UNL     1       0.051  -2.808  -2.518  0.00  0.00    +0.046 C 
ENDBRANCH   1  12
BRANCH   5  17
ATOM     17  N   UNL     1       1.496  -7.045  -1.308  0.00  0.00    -0.243 N 
BRANCH  17  18
ATOM     18  C   UNL     1       2.223  -8.233  -1.195  0.00  0.00    +0.065 A 
ATOM     19  C   UNL     1       2.446  -8.795   0.056  0.00  0.00    +0.028 A 
ATOM     20  C   UNL     1       3.164  -9.970   0.164  0.00  0.00    +0.002 A 
ATOM     21  C   UNL     1       3.660 -10.586  -0.970  0.00  0.00    +0.000 A 
ATOM     22  C   UNL     1       3.439 -10.029  -2.216  0.00  0.00    +0.002 A 
ATOM     23  C   UNL     1       2.717  -8.858  -2.332  0.00  0.00    +0.028 A 
ENDBRANCH  17  18
BRANCH  17  24
ATOM     24  O   UNL     1       1.379  -6.404  -2.565  0.00  0.00    -0.286 OA
ATOM     25  H   UNL     1       1.835  -6.863  -3.285  0.00  0.00    +0.244 HD
ENDBRANCH  17  24
ENDBRANCH   5  17
TORSDOF 4
