REMARK  Name = ZINC11033785
REMARK  5 active torsions:
REMARK  status: ('A' for Active; 'I' for Inactive)
REMARK    1  A    between atoms: C_1  and  C_2
REMARK    2  A    between atoms: C_7  and  N_8
REMARK    3  A    between atoms: C_11  and  C_16
REMARK    4  A    between atoms: C_16  and  S_17
REMARK    5  A    between atoms: S_17  and  C_18
REMARK                            x       y       z     vdW  Elec       q    Type
REMARK                         _______ _______ _______ _____ _____    ______ ____
ROOT
ATOM      1  N   UNL     1      -2.671  10.042  -2.269  0.00  0.00    -0.283 N 
ATOM      2  C   UNL     1      -2.559   9.356  -1.076  0.00  0.00    +0.224 A 
ATOM      3  N   UNL     1      -2.374   8.037  -1.081  0.00  0.00    -0.198 NA
ATOM      4  C   UNL     1      -2.267   7.380   0.060  0.00  0.00    +0.146 A 
ATOM      5  N   UNL     1      -2.347   8.026   1.210  0.00  0.00    -0.199 NA
ATOM      6  C   UNL     1      -2.526   9.345   1.223  0.00  0.00    +0.217 A 
ATOM      7  N   UNL     1      -2.634  10.010   0.077  0.00  0.00    -0.181 NA
ATOM      8  N   UNL     1      -2.604  10.020   2.424  0.00  0.00    -0.327 N 
ATOM      9  H   UNL     1      -2.530   9.580  -3.110  0.00  0.00    +0.155 HD
ATOM     10  H   UNL     1      -2.738  10.981   2.432  0.00  0.00    +0.145 HD
ATOM     11  H   UNL     1      -2.525   9.534   3.259  0.00  0.00    +0.145 HD
ENDROOT
BRANCH   1  18
ATOM     12  C   UNL     1      -1.875  11.613  -4.505  0.00  0.00    +0.045 C 
ATOM     13  C   UNL     1      -2.616  12.208  -3.336  0.00  0.00    -0.029 A 
ATOM     14  C   UNL     1      -2.930  13.553  -3.329  0.00  0.00    +0.005 A 
ATOM     15  C   UNL     1      -3.611  14.100  -2.257  0.00  0.00    +0.000 A 
ATOM     16  C   UNL     1      -3.980  13.303  -1.189  0.00  0.00    +0.002 A 
ATOM     17  C   UNL     1      -3.675  11.956  -1.193  0.00  0.00    +0.023 A 
ATOM     18  C   UNL     1      -2.986  11.405  -2.265  0.00  0.00    +0.036 A 
ENDBRANCH   1  18
BRANCH   4  19
ATOM     19  C   UNL     1      -2.058   5.887   0.050  0.00  0.00    +0.152 C 
BRANCH  19  20
ATOM     20  S   UNL     1      -0.281   5.525   0.023  0.00  0.00    -0.097 S 
BRANCH  20  21
ATOM     21  C   UNL     1      -0.204   3.765   0.014  0.00  0.00    +0.116 A 
ATOM     22  C   UNL     1       1.034   3.127  -0.006  0.00  0.00    +0.073 A 
ATOM     23  C   UNL     1       1.079   1.745  -0.013  0.00  0.00    +0.024 A 
ATOM     24  C   UNL     1      -0.120   1.043   0.001  0.00  0.00    +0.021 A 
ATOM     25  C   UNL     1      -1.311   1.739   0.016  0.00  0.00    +0.112 A 
ATOM     26  N   UNL     1      -1.325   3.059   0.027  0.00  0.00    -0.247 NA
ATOM     27 CL   UNL     1       2.502   4.055  -0.024  0.00  0.00    -0.081 Cl
ENDBRANCH  20  21
ENDBRANCH  19  20
ENDBRANCH   4  19
TORSDOF 4
