REMARK  Name = ZINC02360843
REMARK  9 active torsions:
REMARK  status: ('A' for Active; 'I' for Inactive)
REMARK    1  A    between atoms: C_1  and  C_2
REMARK    2  A    between atoms: C_2  and  O_3
REMARK    3  A    between atoms: O_3  and  C_4
REMARK    4  A    between atoms: C_4  and  C_6
REMARK    5  A    between atoms: C_7  and  C_35
REMARK    6  A    between atoms: C_12  and  C_14
REMARK    7  A    between atoms: C_14  and  S_15
REMARK    8  A    between atoms: S_15  and  C_16
REMARK    9  A    between atoms: N_28  and  C_29
REMARK                            x       y       z     vdW  Elec       q    Type
REMARK                         _______ _______ _______ _____ _____    ______ ____
ROOT
ATOM      1  C   UNL     1      -0.396   1.531  -5.274  0.00  0.00    +0.178 A 
ATOM      2  N   UNL     1      -1.531   1.802  -4.661  0.00  0.00    -0.215 NA
ATOM      3  C   UNL     1      -1.536   2.257  -3.413  0.00  0.00    +0.117 A 
ATOM      4  C   UNL     1      -0.352   2.471  -2.692  0.00  0.00    +0.076 A 
ATOM      5  C   UNL     1      -0.515   2.978  -1.319  0.00  0.00    -0.023 A 
ATOM      6  C   UNL     1      -1.772   3.188  -0.894  0.00  0.00    -0.004 A 
ATOM      7  S   UNL     1      -2.805   2.729  -2.267  0.00  0.00    -0.073 S 
ATOM      8  C   UNL     1      -1.816   3.708   0.517  0.00  0.00    +0.043 C 
ATOM      9  C   UNL     1      -0.380   4.215   0.789  0.00  0.00    +0.010 C 
ATOM     10  C   UNL     1       0.444   3.349  -0.185  0.00  0.00    +0.037 C 
ATOM     11  C   UNL     1       0.865   2.170  -3.379  0.00  0.00    +0.268 A 
ATOM     12  O   UNL     1       1.941   2.326  -2.829  0.00  0.00    -0.267 OA
ATOM     13  N   UNL     1       0.803   1.711  -4.644  0.00  0.00    -0.255 N 
ENDROOT
BRANCH  13  14
ATOM     14  C   UNL     1       1.990   1.413  -5.326  0.00  0.00    +0.052 A 
ATOM     15  C   UNL     1       2.534   0.138  -5.251  0.00  0.00    +0.026 A 
ATOM     16  C   UNL     1       3.702  -0.153  -5.929  0.00  0.00    +0.002 A 
ATOM     17  C   UNL     1       4.334   0.826  -6.673  0.00  0.00    +0.000 A 
ATOM     18  C   UNL     1       3.798   2.098  -6.745  0.00  0.00    +0.002 A 
ATOM     19  C   UNL     1       2.628   2.395  -6.073  0.00  0.00    +0.026 A 
ENDBRANCH  13  14
BRANCH   1  20
ATOM     20  S   UNL     1      -0.426   0.929  -6.930  0.00  0.00    -0.078 S 
BRANCH  20  21
ATOM     21  C   UNL     1      -2.212   0.897  -7.221  0.00  0.00    +0.173 C 
BRANCH  21  28
ATOM     22  C   UNL     1      -4.055  -1.070 -12.830  0.00  0.00    +0.120 A 
ATOM     23  C   UNL     1      -5.244  -0.780 -12.173  0.00  0.00    +0.062 A 
ATOM     24  N   UNL     1      -5.168  -0.342 -10.944  0.00  0.00    -0.229 NA
ATOM     25  C   UNL     1      -4.003  -0.165 -10.340  0.00  0.00    +0.165 A 
ATOM     26  S   UNL     1      -2.869  -0.656 -11.559  0.00  0.00    -0.045 S 
ATOM     27  N   UNL     1      -3.753   0.292  -9.058  0.00  0.00    -0.264 N 
ATOM     28  C   UNL     1      -2.484   0.400  -8.617  0.00  0.00    +0.229 C 
ATOM     29  O   UNL     1      -1.562   0.097  -9.344  0.00  0.00    -0.275 OA
ATOM     30  C   UNL     1      -6.576  -0.972 -12.851  0.00  0.00    +0.067 C 
ATOM     31  H   UNL     1      -4.491   0.534  -8.477  0.00  0.00    +0.157 HD
BRANCH  22  32
ATOM     32  C   UNL     1      -3.836  -1.572 -14.185  0.00  0.00    +0.348 C 
ATOM     33  O   UNL     1      -4.785  -1.798 -14.911  0.00  0.00    -0.244 OA
BRANCH  32  34
ATOM     34  O   UNL     1      -2.580  -1.786 -14.630  0.00  0.00    -0.461 OA
BRANCH  34  36
ATOM     35  C   UNL     1      -0.955  -2.457 -16.288  0.00  0.00    +0.048 C 
ATOM     36  C   UNL     1      -2.439  -2.278 -15.964  0.00  0.00    +0.229 C 
ENDBRANCH  34  36
ENDBRANCH  32  34
ENDBRANCH  22  32
ENDBRANCH  21  28
ENDBRANCH  20  21
ENDBRANCH   1  20
TORSDOF 7
