REMARK  Name = ZINC39863095
REMARK  5 active torsions:
REMARK  status: ('A' for Active; 'I' for Inactive)
REMARK    1  A    between atoms: C_1  and  C_2
REMARK    2  A    between atoms: C_2  and  C_22
REMARK    3  A    between atoms: N_6  and  C_16
REMARK    4  A    between atoms: N_8  and  C_9
REMARK    5  A    between atoms: C_25  and  N_28
REMARK                            x       y       z     vdW  Elec       q    Type
REMARK                         _______ _______ _______ _____ _____    ______ ____
ROOT
ATOM      1  C   UNL     1      -1.031   1.650   0.145  0.00  0.00    +0.045 C 
ATOM      2  C   UNL     1      -0.873   0.155   0.034  0.00  0.00    -0.024 C 
ATOM      3  C   UNL     1      -0.725  -0.597   1.155  0.00  0.00    +0.081 C 
ATOM      4  C   UNL     1      -0.697  -0.176   2.568  0.00  0.00    +0.260 C 
ATOM      5  O   UNL     1      -0.813   0.994   2.885  0.00  0.00    -0.269 OA
ATOM      6  N   UNL     1      -0.539  -1.126   3.474  0.00  0.00    -0.243 N 
ATOM      7  C   UNL     1      -0.408  -2.442   3.095  0.00  0.00    +0.170 C 
ATOM      8  N   UNL     1      -0.246  -3.502   3.860  0.00  0.00    -0.206 NA
ATOM      9  S   UNL     1      -0.521  -2.365   1.315  0.00  0.00    -0.048 S 
ENDROOT
BRANCH   8  10
ATOM     10  C   UNL     1      -0.352  -3.388   5.215  0.00  0.00    +0.155 A 
ATOM     11  C   UNL     1      -1.616  -3.374   5.814  0.00  0.00    +0.048 A 
ATOM     12  C   UNL     1      -1.706  -3.258   7.187  0.00  0.00    +0.005 A 
ATOM     13  C   UNL     1      -0.531  -3.159   7.924  0.00  0.00    +0.020 A 
ATOM     14  C   UNL     1       0.684  -3.179   7.270  0.00  0.00    +0.113 A 
ATOM     15  N   UNL     1       0.747  -3.295   5.958  0.00  0.00    -0.236 NA
ENDBRANCH   8  10
BRANCH   6  16
ATOM     16  C   UNL     1      -0.502  -0.773   4.895  0.00  0.00    +0.084 C 
ATOM     17  C   UNL     1       0.630   0.226   5.144  0.00  0.00    +0.023 C 
ATOM     18  C   UNL     1       0.669   0.594   6.628  0.00  0.00    +0.002 C 
ATOM     19  C   UNL     1      -0.665   1.225   7.032  0.00  0.00    +0.000 C 
ATOM     20  C   UNL     1      -1.798   0.226   6.783  0.00  0.00    +0.002 C 
ATOM     21  C   UNL     1      -1.836  -0.142   5.299  0.00  0.00    +0.023 C 
ENDBRANCH   6  16
BRANCH   2  22
ATOM     22  C   UNL     1      -0.877  -0.487  -1.286  0.00  0.00    -0.021 A 
ATOM     23  C   UNL     1       0.272  -1.136  -1.755  0.00  0.00    +0.010 A 
ATOM     24  C   UNL     1       0.262  -1.735  -2.989  0.00  0.00    +0.023 A 
ATOM     25  C   UNL     1      -0.887  -1.699  -3.774  0.00  0.00    +0.025 A 
ATOM     26  C   UNL     1      -2.031  -1.055  -3.311  0.00  0.00    +0.023 A 
ATOM     27  C   UNL     1      -2.033  -0.458  -2.077  0.00  0.00    +0.010 A 
BRANCH  25  28
ATOM     28  N   UNL     1      -0.891  -2.308  -5.026  0.00  0.00    -0.358 N 
ATOM     29  H   UNL     1      -0.095  -2.757  -5.350  0.00  0.00    +0.142 HD
ATOM     30  H   UNL     1      -1.691  -2.284  -5.574  0.00  0.00    +0.142 HD
ENDBRANCH  25  28
ENDBRANCH   2  22
TORSDOF 4
