REMARK  Name = ZINC09233668
REMARK  8 active torsions:
REMARK  status: ('A' for Active; 'I' for Inactive)
REMARK    1  A    between atoms: C_1  and  C_2
REMARK    2  A    between atoms: C_4  and  C_34
REMARK    3  A    between atoms: N_10  and  C_11
REMARK    4  A    between atoms: C_11  and  N_13
REMARK    5  A    between atoms: N_13  and  C_14
REMARK    6  A    between atoms: N_21  and  C_22
REMARK    7  A    between atoms: C_22  and  C_23
REMARK    8  A    between atoms: C_23  and  C_24
REMARK                            x       y       z     vdW  Elec       q    Type
REMARK                         _______ _______ _______ _____ _____    ______ ____
ROOT
ATOM      1  C   UNL     1       0.724  -7.489   6.200  0.00  0.00    +0.066 C 
ATOM      2  C   UNL     1       0.247  -6.992   4.860  0.00  0.00    +0.044 A 
ATOM      3  C   UNL     1       0.169  -7.856   3.778  0.00  0.00    +0.046 A 
ATOM      4  C   UNL     1      -0.276  -7.357   2.563  0.00  0.00    +0.044 A 
ATOM      5  N   UNL     1      -0.610  -6.080   2.474  0.00  0.00    -0.217 NA
ATOM      6  C   UNL     1      -0.523  -5.282   3.527  0.00  0.00    +0.231 A 
ATOM      7  N   UNL     1      -0.108  -5.728   4.703  0.00  0.00    -0.217 NA
ATOM      8  N   UNL     1      -0.882  -3.947   3.396  0.00  0.00    -0.297 N 
ATOM      9  C   UNL     1      -0.692  -3.082   4.440  0.00  0.00    +0.195 C 
ATOM     10  N   UNL     1      -0.065  -3.489   5.530  0.00  0.00    -0.159 NA
ATOM     11  N   UNL     1      -1.150  -1.799   4.355  0.00  0.00    -0.357 N 
ATOM     12  C   UNL     1      -0.376  -8.258   1.360  0.00  0.00    +0.066 C 
ATOM     13  H   UNL     1      -1.267  -3.627   2.565  0.00  0.00    +0.171 HD
ATOM     14  H   UNL     1      -0.946  -1.164   5.059  0.00  0.00    +0.162 HD
ENDROOT
BRANCH  10  15
ATOM     15  C   UNL     1       0.145  -2.635   6.541  0.00  0.00    +0.161 C 
ATOM     16  S   UNL     1      -1.183  -1.991   7.409  0.00  0.00    -0.016 S 
BRANCH  15  17
ATOM     17  N   UNL     1       1.403  -2.282   6.875  0.00  0.00    -0.295 N 
ATOM     18  H   UNL     1       2.150  -2.579   6.332  0.00  0.00    +0.154 HD
BRANCH  17  19
ATOM     19  C   UNL     1       1.630  -1.486   8.003  0.00  0.00    +0.033 A 
ATOM     20  C   UNL     1       0.918  -1.718   9.173  0.00  0.00    +0.026 A 
ATOM     21  C   UNL     1       1.145  -0.932  10.286  0.00  0.00    +0.040 A 
ATOM     22  C   UNL     1       2.081   0.087  10.236  0.00  0.00    +0.124 A 
ATOM     23  C   UNL     1       2.792   0.321   9.070  0.00  0.00    +0.040 A 
ATOM     24  C   UNL     1       2.573  -0.467   7.957  0.00  0.00    +0.026 A 
ATOM     25  F   UNL     1       2.300   0.855  11.325  0.00  0.00    -0.205 F 
ENDBRANCH  17  19
ENDBRANCH  15  17
ENDBRANCH  10  15
BRANCH  11  26
ATOM     26  C   UNL     1      -1.949  -1.381   3.200  0.00  0.00    +0.120 C 
BRANCH  26  27
ATOM     27  C   UNL     1      -2.235   0.119   3.294  0.00  0.00    +0.058 C 
BRANCH  27  28
ATOM     28  C   UNL     1      -3.156   0.526   2.172  0.00  0.00    -0.021 A 
ATOM     29  C   UNL     1      -2.808   1.174   1.050  0.00  0.00    +0.087 A 
ATOM     30  N   UNL     1      -3.911   1.371   0.264  0.00  0.00    -0.360 N 
ATOM     31  H   UNL     1      -3.910   1.818  -0.597  0.00  0.00    +0.165 HD
ATOM     32  C   UNL     1      -5.024   0.841   0.878  0.00  0.00    +0.047 A 
ATOM     33  C   UNL     1      -4.598   0.283   2.098  0.00  0.00    +0.003 A 
ATOM     34  C   UNL     1      -5.523  -0.338   2.940  0.00  0.00    +0.010 A 
ATOM     35  C   UNL     1      -6.838  -0.403   2.573  0.00  0.00    +0.001 A 
ATOM     36  C   UNL     1      -7.262   0.143   1.370  0.00  0.00    +0.002 A 
ATOM     37  C   UNL     1      -6.368   0.768   0.528  0.00  0.00    +0.026 A 
ENDBRANCH  27  28
ENDBRANCH  26  27
ENDBRANCH  11  26
TORSDOF 6
