REMARK  Name = ZINC59166793
REMARK  6 active torsions:
REMARK  status: ('A' for Active; 'I' for Inactive)
REMARK    1  A    between atoms: C_1  and  C_2
REMARK    2  A    between atoms: N_12  and  N_13
REMARK    3  A    between atoms: C_14  and  C_16
REMARK    4  A    between atoms: C_16  and  C_17
REMARK    5  A    between atoms: C_17  and  C_18
REMARK    6  A    between atoms: C_23  and  O_24
REMARK                            x       y       z     vdW  Elec       q    Type
REMARK                         _______ _______ _______ _____ _____    ______ ____
ROOT
ATOM      1  C   UNL     1      -0.018   1.503   0.010  0.00  0.00    +0.045 C 
ATOM      2  C   UNL     1       0.002  -0.004   0.002  0.00  0.00    -0.029 A 
ATOM      3  C   UNL     1       0.006  -0.686  -1.198  0.00  0.00    +0.006 A 
ATOM      4  C   UNL     1       0.024  -2.070  -1.223  0.00  0.00    +0.021 A 
ATOM      5  C   UNL     1       0.039  -2.783  -0.039  0.00  0.00    +0.052 A 
ATOM      6  C   UNL     1       0.036  -2.104   1.175  0.00  0.00    +0.047 A 
ATOM      7  C   UNL     1       0.023  -0.704   1.203  0.00  0.00    +0.047 A 
ATOM      8  N   UNL     1       0.030  -0.271   2.525  0.00  0.00    -0.279 N 
ATOM      9  C   UNL     1       0.052  -1.306   3.381  0.00  0.00    +0.269 C 
ATOM     10  O   UNL     1       0.062  -1.231   4.596  0.00  0.00    -0.268 OA
ATOM     11  C   UNL     1       0.048  -2.552   2.587  0.00  0.00    +0.154 C 
ATOM     12  N   UNL     1       0.066  -3.784   3.034  0.00  0.00    -0.174 NA
ATOM     13 CL   UNL     1       0.060  -4.519  -0.068  0.00  0.00    -0.083 Cl
ATOM     14  H   UNL     1       0.020   0.661   2.794  0.00  0.00    +0.155 HD
ENDROOT
BRANCH  12  15
ATOM     15  N   UNL     1       0.076  -4.028   4.414  0.00  0.00    -0.206 N 
ATOM     16  C   UNL     1       0.094  -5.295   4.873  0.00  0.00    +0.233 C 
ATOM     17  O   UNL     1       0.102  -6.223   4.093  0.00  0.00    -0.274 OA
ATOM     18  H   UNL     1       0.069  -3.285   5.038  0.00  0.00    +0.177 HD
BRANCH  16  19
ATOM     19  C   UNL     1       0.104  -5.558   6.357  0.00  0.00    +0.102 C 
BRANCH  19  20
ATOM     20  C   UNL     1       0.124  -7.067   6.608  0.00  0.00    +0.048 C 
BRANCH  20  21
ATOM     21  C   UNL     1       0.135  -7.330   8.092  0.00  0.00    -0.005 A 
ATOM     22  C   UNL     1       1.333  -7.532   8.749  0.00  0.00    +0.007 A 
ATOM     23  C   UNL     1       1.343  -7.774  10.111  0.00  0.00    +0.000 A 
ATOM     24  C   UNL     1       0.155  -7.813  10.817  0.00  0.00    +0.004 A 
ATOM     25  C   UNL     1      -1.045  -7.611  10.164  0.00  0.00    +0.045 A 
ATOM     26  C   UNL     1      -1.058  -7.363   8.799  0.00  0.00    +0.120 A 
BRANCH  26  27
ATOM     27  O   UNL     1      -2.237  -7.158   8.155  0.00  0.00    -0.506 OA
ATOM     28  H   UNL     1      -2.645  -7.966   7.816  0.00  0.00    +0.292 HD
ENDBRANCH  26  27
ENDBRANCH  20  21
ENDBRANCH  19  20
ENDBRANCH  16  19
ENDBRANCH  12  15
TORSDOF 5
