REMARK  Name = ZINC07049481
REMARK  3 active torsions:
REMARK  status: ('A' for Active; 'I' for Inactive)
REMARK    1  A    between atoms: C_4  and  C_7
REMARK    2  A    between atoms: N_10  and  C_12
REMARK    3  A    between atoms: C_12  and  C_13
REMARK                            x       y       z     vdW  Elec       q    Type
REMARK                         _______ _______ _______ _____ _____    ______ ____
ROOT
ATOM      1  C   UNL     1      -4.355   5.190   0.070  0.00  0.00    +0.134 A 
ATOM      2  N   UNL     1      -3.784   6.421   0.071  0.00  0.00    -0.306 N 
ATOM      3  H   UNL     1      -4.363   7.236   0.080  0.00  0.00    +0.170 HD
ATOM      4  C   UNL     1      -2.441   6.553   0.059  0.00  0.00    +0.295 A 
ATOM      5  O   UNL     1      -1.922   7.657   0.061  0.00  0.00    -0.264 OA
ATOM      6  C   UNL     1      -1.648   5.383   0.046  0.00  0.00    +0.218 A 
ATOM      7  C   UNL     1      -2.297   4.152   0.046  0.00  0.00    +0.124 A 
ATOM      8  N   UNL     1      -3.639   4.101   0.058  0.00  0.00    -0.228 NA
ATOM      9  C   UNL     1      -1.231   3.139   0.030  0.00  0.00    +0.046 A 
ATOM     10  C   UNL     1      -1.216   1.746   0.017  0.00  0.00    +0.014 A 
ATOM     11  C   UNL     1      -0.013   1.076   0.008  0.00  0.00    +0.001 A 
ATOM     12  C   UNL     1       1.181   1.784   0.000  0.00  0.00    +0.004 A 
ATOM     13  C   UNL     1       1.180   3.161   0.007  0.00  0.00    +0.047 A 
ATOM     14  C   UNL     1      -0.024   3.857   0.022  0.00  0.00    +0.138 A 
ATOM     15  O   UNL     1      -0.315   5.175   0.032  0.00  0.00    -0.448 OA
ENDROOT
BRANCH   1  16
ATOM     16  C   UNL     1      -5.857   5.079   0.084  0.00  0.00    +0.242 C 
BRANCH  16  20
ATOM     17  C   UNL     1      -6.763   1.730   0.729  0.00  0.00    +0.205 A 
ATOM     18  N   UNL     1      -6.770   1.757  -0.611  0.00  0.00    -0.108 NA
ATOM     19  N   UNL     1      -6.453   2.954  -0.972  0.00  0.00    -0.045 NA
ATOM     20  N   UNL     1      -6.242   3.666   0.080  0.00  0.00    -0.155 N 
ATOM     21  N   UNL     1      -6.429   2.941   1.129  0.00  0.00    -0.130 NA
BRANCH  17  25
ATOM     22  C   UNL     1      -7.646  -1.611   3.208  0.00  0.00    +0.000 A 
ATOM     23  C   UNL     1      -7.696  -1.741   1.832  0.00  0.00    +0.001 A 
ATOM     24  C   UNL     1      -7.411  -0.660   1.023  0.00  0.00    +0.012 A 
ATOM     25  C   UNL     1      -7.071   0.564   1.594  0.00  0.00    +0.023 A 
ATOM     26  C   UNL     1      -7.016   0.688   2.981  0.00  0.00    +0.012 A 
ATOM     27  C   UNL     1      -7.309  -0.398   3.781  0.00  0.00    +0.001 A 
ENDBRANCH  17  25
ENDBRANCH  16  20
ENDBRANCH   1  16
TORSDOF 3
