REMARK  Name = ZINC03032840
REMARK  1 active torsions:
REMARK  status: ('A' for Active; 'I' for Inactive)
REMARK    1  A    between atoms: C_19  and  C_21
REMARK                            x       y       z     vdW  Elec       q    Type
REMARK                         _______ _______ _______ _____ _____    ______ ____
ROOT
ATOM      1  C   UNL     1      -0.778   8.914  -0.133  0.00  0.00    +0.002 A 
ATOM      2  C   UNL     1      -1.864   8.063  -0.221  0.00  0.00    +0.001 A 
ATOM      3  C   UNL     1      -1.666   6.689  -0.210  0.00  0.00    +0.017 A 
ATOM      4  C   UNL     1      -0.385   6.199  -0.111  0.00  0.00    +0.036 A 
ATOM      5  C   UNL     1       0.725   7.047  -0.021  0.00  0.00    +0.055 A 
ATOM      6  C   UNL     1       0.509   8.418  -0.034  0.00  0.00    +0.027 A 
ATOM      7  N   UNL     1       2.071   6.723   0.083  0.00  0.00    -0.338 N 
ATOM      8  H   UNL     1       2.623   7.520   0.129  0.00  0.00    +0.167 HD
ATOM      9  C   UNL     1       2.836   5.580   0.140  0.00  0.00    +0.147 A 
ATOM     10  N   UNL     1       4.095   5.913   0.239  0.00  0.00    -0.228 NA
ATOM     11  C   UNL     1       5.263   5.259   0.329  0.00  0.00    +0.080 A 
ATOM     12  C   UNL     1       6.468   5.973   0.425  0.00  0.00    +0.029 A 
ATOM     13  C   UNL     1       7.667   5.302   0.516  0.00  0.00    +0.002 A 
ATOM     14  C   UNL     1       7.722   3.919   0.516  0.00  0.00    +0.001 A 
ATOM     15  C   UNL     1       6.548   3.185   0.422  0.00  0.00    +0.017 A 
ATOM     16  C   UNL     1       5.353   3.848   0.331  0.00  0.00    +0.038 A 
ATOM     17  S   UNL     1       3.791   3.005   0.207  0.00  0.00    -0.083 S 
ATOM     18  C   UNL     1       2.439   4.163   0.105  0.00  0.00    +0.069 A 
ATOM     19  C   UNL     1       1.234   3.541   0.009  0.00  0.00    +0.037 A 
ATOM     20  S   UNL     1      -0.312   4.426  -0.116  0.00  0.00    -0.086 S 
ENDROOT
BRANCH  19  21
ATOM     21  C   UNL     1       1.202   2.070   0.002  0.00  0.00    -0.007 A 
ATOM     22  C   UNL     1       0.485   1.358   0.976  0.00  0.00    +0.029 A 
ATOM     23  C   UNL     1       0.483  -0.019   0.930  0.00  0.00    +0.111 A 
ATOM     24  N   UNL     1       1.143  -0.667  -0.012  0.00  0.00    -0.263 NA
ATOM     25  C   UNL     1       1.831  -0.039  -0.948  0.00  0.00    +0.111 A 
ATOM     26  C   UNL     1       1.889   1.337  -0.980  0.00  0.00    +0.029 A 
ENDBRANCH  19  21
TORSDOF 1
