REMARK  Name = ZINC64502500
REMARK  10 active torsions:
REMARK  status: ('A' for Active; 'I' for Inactive)
REMARK    1  A    between atoms: C_1  and  C_2
REMARK    2  A    between atoms: C_2  and  C_3
REMARK    3  A    between atoms: C_3  and  C_4
REMARK    4  A    between atoms: C_8  and  C_11
REMARK    5  A    between atoms: N_13  and  C_14
REMARK    6  A    between atoms: C_18  and  C_20
REMARK    7  A    between atoms: N_22  and  C_23
REMARK    8  A    between atoms: C_23  and  C_24
REMARK    9  A    between atoms: C_24  and  C_25
REMARK   10  A    between atoms: C_28  and  C_34
REMARK                            x       y       z     vdW  Elec       q    Type
REMARK                         _______ _______ _______ _____ _____    ______ ____
ROOT
ATOM      1  C   UNL     1       0.238  -7.654   2.116  0.00  0.00    +0.034 A 
ATOM      2  C   UNL     1       0.193  -7.725   0.729  0.00  0.00    +0.023 A 
ATOM      3  C   UNL     1       0.441  -8.923   0.085  0.00  0.00    +0.003 A 
ATOM      4  C   UNL     1       0.733 -10.057   0.816  0.00  0.00    +0.013 A 
ATOM      5  C   UNL     1       0.780  -9.996   2.210  0.00  0.00    +0.038 A 
ATOM      6  C   UNL     1       0.536  -8.786   2.859  0.00  0.00    +0.036 A 
ENDROOT
BRANCH   1   9
ATOM      7  C   UNL     1       0.657  -6.123   3.888  0.00  0.00    +0.254 C 
ATOM      8  O   UNL     1       1.417  -6.926   4.387  0.00  0.00    -0.272 OA
ATOM      9  N   UNL     1      -0.013  -6.439   2.763  0.00  0.00    -0.283 N 
ATOM     10  H   UNL     1      -0.670  -5.824   2.401  0.00  0.00    +0.155 HD
BRANCH   7  14
ATOM     11  C   UNL     1       0.188  -4.941   7.235  0.00  0.00    +0.187 C 
ATOM     12  N   UNL     1      -0.994  -4.735   6.366  0.00  0.00    -0.177 NA
ATOM     13  N   UNL     1      -0.871  -4.660   5.159  0.00  0.00    -0.167 NA
ATOM     14  C   UNL     1       0.464  -4.772   4.527  0.00  0.00    +0.272 C 
ATOM     15  S   UNL     1       1.534  -4.574   6.023  0.00  0.00    -0.095 S 
BRANCH  11  16
ATOM     16  C   UNL     1       0.201  -3.949   8.400  0.00  0.00    +0.039 C 
BRANCH  16  18
ATOM     17  C   UNL     1       1.517  -3.115  10.354  0.00  0.00    +0.004 C 
ATOM     18  C   UNL     1       1.503  -4.106   9.188  0.00  0.00    -0.000 C 
ENDBRANCH  16  18
ENDBRANCH  11  16
ENDBRANCH   7  14
ENDBRANCH   1   9
BRANCH   5  19
ATOM     19  C   UNL     1       1.093 -11.209   2.995  0.00  0.00    +0.244 C 
ATOM     20  O   UNL     1       1.134 -11.154   4.209  0.00  0.00    -0.270 OA
ATOM     21  N   UNL     1       1.334 -12.376   2.365  0.00  0.00    -0.311 N 
ATOM     22  H   UNL     1       1.301 -12.420   1.397  0.00  0.00    +0.149 HD
BRANCH  21  23
ATOM     23  C   UNL     1       1.644 -13.578   3.143  0.00  0.00    +0.109 C 
BRANCH  23  24
ATOM     24  C   UNL     1       1.873 -14.756   2.194  0.00  0.00    +0.052 C 
BRANCH  24  25
ATOM     25  C   UNL     1       2.192 -15.992   2.994  0.00  0.00    -0.040 C 
ATOM     26  C   UNL     1       1.324 -16.952   3.388  0.00  0.00    -0.001 A 
ATOM     27  C   UNL     1      -0.121 -17.126   3.197  0.00  0.00    +0.013 A 
ATOM     28  C   UNL     1      -0.726 -18.215   3.722  0.00  0.00    -0.050 A 
ATOM     29  C   UNL     1      -0.009 -19.181   4.443  0.00  0.00    +0.005 A 
ATOM     30  C   UNL     1       1.320 -19.091   4.660  0.00  0.00    +0.026 A 
ATOM     31  C   UNL     1       2.058 -17.986   4.152  0.00  0.00    +0.043 A 
ATOM     32  N   UNL     1       3.330 -17.677   4.228  0.00  0.00    -0.380 N 
ATOM     33  C   UNL     1       3.548 -16.413   3.514  0.00  0.00    +0.144 C 
ATOM     34  C   UNL     1      -2.209 -18.396   3.528  0.00  0.00    +0.044 C 
ATOM     35  H   UNL     1       4.013 -18.198   4.678  0.00  0.00    +0.160 HD
ENDBRANCH  24  25
ENDBRANCH  23  24
ENDBRANCH  21  23
ENDBRANCH   5  19
TORSDOF 8
