REMARK  Name = ZINC04535157
REMARK  6 active torsions:
REMARK  status: ('A' for Active; 'I' for Inactive)
REMARK    1  A    between atoms: C_1  and  O_2
REMARK    2  A    between atoms: O_2  and  C_3
REMARK    3  A    between atoms: C_7  and  C_11
REMARK    4  A    between atoms: C_8  and  O_9
REMARK    5  A    between atoms: O_9  and  C_10
REMARK    6  A    between atoms: C_26  and  C_31
REMARK                            x       y       z     vdW  Elec       q    Type
REMARK                         _______ _______ _______ _____ _____    ______ ____
ROOT
ATOM      1  C   UNL     1      -3.071   3.789  -0.366  0.00  0.00    +0.108 C 
ATOM      2  C   UNL     1      -3.395   3.759  -1.821  0.00  0.00    +0.025 C 
ATOM      3  C   UNL     1      -2.572   4.475  -2.889  0.00  0.00    -0.005 C 
ATOM      4  C   UNL     1      -3.774   4.878  -3.892  0.00  0.00    +0.004 C 
ATOM      5  C   UNL     1      -4.297   3.492  -4.342  0.00  0.00    +0.004 C 
ATOM      6  C   UNL     1      -3.286   2.441  -3.810  0.00  0.00    -0.003 C 
ATOM      7  C   UNL     1      -1.967   3.319  -3.743  0.00  0.00    +0.008 C 
ATOM      8  C   UNL     1      -3.468   2.281  -2.296  0.00  0.00    +0.029 C 
ATOM      9  C   UNL     1      -4.759   1.792  -1.746  0.00  0.00    -0.022 A 
ATOM     10  C   UNL     1      -5.679   1.062  -2.436  0.00  0.00    +0.020 A 
ATOM     11  C   UNL     1      -6.867   0.669  -1.805  0.00  0.00    +0.064 A 
ATOM     12  C   UNL     1      -7.095   1.034  -0.474  0.00  0.00    +0.017 A 
ATOM     13  C   UNL     1      -6.167   1.762   0.213  0.00  0.00    +0.024 A 
ATOM     14  C   UNL     1      -4.981   2.153  -0.399  0.00  0.00    +0.031 A 
ATOM     15  N   UNL     1      -4.019   2.871   0.308  0.00  0.00    -0.336 N 
ATOM     16  H   UNL     1      -3.967   2.767   1.272  0.00  0.00    +0.147 HD
ENDROOT
BRANCH   1  21
ATOM     17  C   UNL     1      -0.077   1.539   0.186  0.00  0.00    +0.162 A 
ATOM     18  C   UNL     1       0.949   2.467   0.263  0.00  0.00    +0.049 A 
ATOM     19  C   UNL     1       0.672   3.816   0.137  0.00  0.00    +0.004 A 
ATOM     20  C   UNL     1      -0.628   4.242  -0.061  0.00  0.00    +0.009 A 
ATOM     21  C   UNL     1      -1.655   3.321  -0.144  0.00  0.00    +0.018 A 
ATOM     22  C   UNL     1      -1.385   1.968  -0.018  0.00  0.00    +0.166 A 
BRANCH  17  24
ATOM     23  C   UNL     1       1.559  -0.155   0.519  0.00  0.00    +0.277 C 
ATOM     24  O   UNL     1       0.194   0.212   0.311  0.00  0.00    -0.491 OA
ENDBRANCH  17  24
BRANCH  22  25
ATOM     25  O   UNL     1      -2.395   1.061  -0.094  0.00  0.00    -0.491 OA
ATOM     26  C   UNL     1      -2.923   0.574   1.141  0.00  0.00    +0.277 C 
ENDBRANCH  22  25
ENDBRANCH   1  21
BRANCH  11  27
ATOM     27  C   UNL     1      -7.870  -0.123  -2.539  0.00  0.00    +0.387 C 
ATOM     28  O   UNL     1      -7.669  -0.438  -3.695  0.00  0.00    -0.241 OA
ATOM     29  O   UNL     1      -9.011  -0.498  -1.928  0.00  0.00    -0.241 OA
ENDBRANCH  11  27
TORSDOF 4
