REMARK  Name = ZINC12640770
REMARK  7 active torsions:
REMARK  status: ('A' for Active; 'I' for Inactive)
REMARK    1  A    between atoms: C_4  and  C_7
REMARK    2  A    between atoms: C_7  and  C_9
REMARK    3  A    between atoms: C_7  and  N_17
REMARK    4  A    between atoms: N_11  and  C_12
REMARK    5  A    between atoms: N_17  and  C_18
REMARK    6  A    between atoms: C_25  and  C_27
REMARK    7  A    between atoms: N_29  and  C_30
REMARK                            x       y       z     vdW  Elec       q    Type
REMARK                         _______ _______ _______ _____ _____    ______ ____
ROOT
ATOM      1  N   UNL     1       0.309   2.729   6.025  0.00  0.00    -0.248 N 
ATOM      2  C   UNL     1       0.554   3.147   4.767  0.00  0.00    +0.307 C 
ATOM      3  O   UNL     1       1.696   3.328   4.400  0.00  0.00    -0.265 OA
ENDROOT
BRANCH   1   4
ATOM      4  C   UNL     1      -1.002   2.459   6.429  0.00  0.00    +0.038 A 
ATOM      5  C   UNL     1      -1.669   1.347   5.931  0.00  0.00    +0.026 A 
ATOM      6  C   UNL     1      -2.961   1.079   6.337  0.00  0.00    +0.040 A 
ATOM      7  C   UNL     1      -3.597   1.925   7.230  0.00  0.00    +0.124 A 
ATOM      8  C   UNL     1      -2.937   3.038   7.723  0.00  0.00    +0.040 A 
ATOM      9  C   UNL     1      -1.642   3.307   7.325  0.00  0.00    +0.026 A 
ATOM     10  F   UNL     1      -4.864   1.664   7.621  0.00  0.00    -0.205 F 
ENDBRANCH   1   4
BRANCH   2  11
ATOM     11  C   UNL     1      -0.580   3.386   3.826  0.00  0.00    +0.300 C 
ATOM     12  O   UNL     1      -1.723   3.218   4.197  0.00  0.00    -0.265 OA
ATOM     13  N   UNL     1      -0.335   3.790   2.564  0.00  0.00    -0.305 N 
ATOM     14  H   UNL     1       0.579   3.925   2.267  0.00  0.00    +0.149 HD
BRANCH  13  15
ATOM     15  C   UNL     1      -1.447   4.025   1.640  0.00  0.00    +0.073 C 
ATOM     16  C   UNL     1      -0.980   3.861   0.179  0.00  0.00    +0.022 C 
ATOM     17  C   UNL     1      -1.713   4.937  -0.641  0.00  0.00    +0.002 C 
ATOM     18  C   UNL     1      -2.601   5.718   0.349  0.00  0.00    +0.002 C 
ATOM     19  C   UNL     1      -1.921   5.498   1.723  0.00  0.00    +0.022 C 
ENDBRANCH  13  15
ENDBRANCH   2  11
BRANCH   1  20
ATOM     20  C   UNL     1       1.416   2.558   6.969  0.00  0.00    +0.198 C 
BRANCH  20  24
ATOM     21  C   UNL     1      -0.141   1.631  10.837  0.00  0.00    +0.000 A 
ATOM     22  C   UNL     1       0.658   2.746  10.662  0.00  0.00    +0.000 A 
ATOM     23  C   UNL     1       1.161   3.046   9.411  0.00  0.00    +0.006 A 
ATOM     24  C   UNL     1       0.867   2.231   8.334  0.00  0.00    -0.018 A 
ATOM     25  C   UNL     1       0.065   1.119   8.507  0.00  0.00    +0.006 A 
ATOM     26  C   UNL     1      -0.435   0.816   9.760  0.00  0.00    +0.000 A 
ENDBRANCH  20  24
BRANCH  20  27
ATOM     27  C   UNL     1       2.305   1.434   6.502  0.00  0.00    +0.239 C 
ATOM     28  O   UNL     1       2.039   0.834   5.482  0.00  0.00    -0.273 OA
ATOM     29  N   UNL     1       3.395   1.094   7.218  0.00  0.00    -0.311 N 
ATOM     30  H   UNL     1       3.607   1.573   8.035  0.00  0.00    +0.149 HD
BRANCH  29  31
ATOM     31  C   UNL     1       4.258   0.001   6.765  0.00  0.00    +0.073 C 
ATOM     32  C   UNL     1       3.743  -1.344   7.318  0.00  0.00    +0.022 C 
ATOM     33  C   UNL     1       5.032  -2.141   7.638  0.00  0.00    +0.002 C 
ATOM     34  C   UNL     1       5.981  -1.049   8.190  0.00  0.00    +0.002 C 
ATOM     35  C   UNL     1       5.681   0.189   7.319  0.00  0.00    +0.022 C 
ENDBRANCH  29  31
ENDBRANCH  20  27
ENDBRANCH   1  20
TORSDOF 7
