REMARK  Name = ZINC09406356
REMARK  8 active torsions:
REMARK  status: ('A' for Active; 'I' for Inactive)
REMARK    1  A    between atoms: C_1  and  C_2
REMARK    2  A    between atoms: C_5  and  C_8
REMARK    3  A    between atoms: C_14  and  C_20
REMARK    4  A    between atoms: N_22  and  C_23
REMARK    5  A    between atoms: C_23  and  C_24
REMARK    6  A    between atoms: C_24  and  C_25
REMARK    7  A    between atoms: C_25  and  N_62
REMARK    8  A    between atoms: C_30  and  C_32
REMARK                            x       y       z     vdW  Elec       q    Type
REMARK                         _______ _______ _______ _____ _____    ______ ____
ROOT
ATOM      1  C   UNL     1       2.631  -0.319  13.482  0.00  0.00    +0.090 A 
ATOM      2  C   UNL     1       2.485  -0.319  12.136  0.00  0.00    +0.122 A 
ATOM      3  N   UNL     1       1.222   0.192  11.852  0.00  0.00    -0.293 N 
ATOM      4  C   UNL     1       0.470   0.451  10.702  0.00  0.00    +0.062 A 
ATOM      5  C   UNL     1       0.872   0.225   9.373  0.00  0.00    +0.028 A 
ATOM      6  C   UNL     1       0.038   0.515   8.325  0.00  0.00    +0.015 A 
ATOM      7  C   UNL     1      -1.233   1.057   8.542  0.00  0.00    +0.038 A 
ATOM      8  C   UNL     1      -1.652   1.291   9.855  0.00  0.00    +0.030 A 
ATOM      9  C   UNL     1      -0.809   0.990  10.895  0.00  0.00    +0.040 A 
ATOM     10  S   UNL     1      -0.937   1.122  12.662  0.00  0.00    -0.049 S 
ATOM     11  C   UNL     1       0.669   0.476  13.068  0.00  0.00    +0.179 A 
ATOM     12  N   UNL     1       1.498   0.175  14.026  0.00  0.00    -0.221 NA
ENDROOT
BRANCH   1  17
ATOM     13  C   UNL     1       7.271  -2.113  16.383  0.00  0.00    +0.044 C 
ATOM     14  C   UNL     1       6.057  -1.644  15.624  0.00  0.00    -0.050 A 
ATOM     15  C   UNL     1       4.960  -1.158  16.312  0.00  0.00    +0.004 A 
ATOM     16  C   UNL     1       3.845  -0.726  15.622  0.00  0.00    +0.010 A 
ATOM     17  C   UNL     1       3.826  -0.781  14.229  0.00  0.00    +0.002 A 
ATOM     18  C   UNL     1       4.932  -1.277  13.541  0.00  0.00    +0.010 A 
ATOM     19  C   UNL     1       6.043  -1.701  14.242  0.00  0.00    +0.004 A 
ENDBRANCH   1  17
BRANCH   7  20
ATOM     20  C   UNL     1      -2.120   1.372   7.403  0.00  0.00    +0.244 C 
ATOM     21  O   UNL     1      -3.224   1.838   7.604  0.00  0.00    -0.270 OA
ATOM     22  N   UNL     1      -1.704   1.142   6.142  0.00  0.00    -0.311 N 
ATOM     23  H   UNL     1      -0.822   0.770   5.982  0.00  0.00    +0.149 HD
BRANCH  22  24
ATOM     24  C   UNL     1      -2.583   1.454   5.012  0.00  0.00    +0.102 C 
BRANCH  24  25
ATOM     25  C   UNL     1      -1.876   1.101   3.703  0.00  0.00    +0.000 C 
BRANCH  25  26
ATOM     26  C   UNL     1      -2.794   1.427   2.523  0.00  0.00    -0.077 C 
BRANCH  26  33
ATOM     27  C   UNL     1      -0.731   1.580   1.266  0.00  0.00    -0.078 C 
ATOM     28  C   UNL     1      -0.013   1.086   0.008  0.00  0.00    -0.019 C 
ATOM     29  C   UNL     1      -0.755   1.594  -1.231  0.00  0.00    -0.003 C 
ATOM     30  C   UNL     1      -2.206   1.108  -1.183  0.00  0.00    -0.016 C 
ATOM     31  C   UNL     1      -2.861   1.601   0.109  0.00  0.00    -0.072 C 
ATOM     32  C   UNL     1      -4.306   1.101   0.172  0.00  0.00    -0.013 C 
ATOM     33  N   UNL     1      -2.115   1.058   1.264  0.00  0.00    +0.381 N 
ATOM     34  H   UNL     1      -2.084   0.034   1.189  0.00  0.00    -0.081 HD
ENDBRANCH  26  33
ENDBRANCH  25  26
ENDBRANCH  24  25
ENDBRANCH  22  24
ENDBRANCH   7  20
TORSDOF 6
