REMARK  Name = ZINC49908084
REMARK  8 active torsions:
REMARK  status: ('A' for Active; 'I' for Inactive)
REMARK    1  A    between atoms: C_1  and  C_2
REMARK    2  A    between atoms: C_2  and  C_3
REMARK    3  A    between atoms: C_3  and  C_4
REMARK    4  A    between atoms: C_3  and  N_20
REMARK    5  A    between atoms: N_9  and  C_12
REMARK    6  A    between atoms: C_17  and  C_18
REMARK    7  A    between atoms: N_20  and  C_21
REMARK    8  A    between atoms: C_22  and  C_23
REMARK                            x       y       z     vdW  Elec       q    Type
REMARK                         _______ _______ _______ _____ _____    ______ ____
ROOT
ATOM      1  C   UNL     1      -1.350  -1.922  -0.014  0.00  0.00    +0.100 A 
ATOM      2  C   UNL     1      -1.945  -2.600  -1.036  0.00  0.00    +0.263 A 
ATOM      3  N   UNL     1      -1.820  -3.965  -1.104  0.00  0.00    -0.274 N 
ATOM      4  C   UNL     1      -1.117  -4.632  -0.171  0.00  0.00    +0.337 A 
ATOM      5  O   UNL     1      -1.016  -5.841  -0.248  0.00  0.00    -0.246 OA
ATOM      6  N   UNL     1      -0.522  -3.981   0.845  0.00  0.00    -0.228 N 
ATOM      7  C   UNL     1      -0.616  -2.640   0.946  0.00  0.00    +0.270 A 
ATOM      8  O   UNL     1      -0.071  -2.054   1.866  0.00  0.00    -0.267 OA
ATOM      9  O   UNL     1      -2.652  -1.934  -1.974  0.00  0.00    -0.267 OA
ATOM     10  H   UNL     1      -2.241  -4.452  -1.830  0.00  0.00    +0.173 HD
ENDROOT
BRANCH   6  11
ATOM     11  C   UNL     1       0.204  -4.701   1.803  0.00  0.00    +0.057 A 
ATOM     12  C   UNL     1       1.561  -4.930   1.620  0.00  0.00    +0.026 A 
ATOM     13  C   UNL     1       2.274  -5.641   2.565  0.00  0.00    +0.002 A 
ATOM     14  C   UNL     1       1.638  -6.124   3.694  0.00  0.00    +0.000 A 
ATOM     15  C   UNL     1       0.286  -5.898   3.879  0.00  0.00    +0.005 A 
ATOM     16  C   UNL     1      -0.431  -5.183   2.940  0.00  0.00    -0.026 A 
ATOM     17  C   UNL     1      -1.902  -4.931   3.146  0.00  0.00    +0.046 C 
ENDBRANCH   6  11
BRANCH   1  18
ATOM     18  C   UNL     1      -1.473  -0.423   0.082  0.00  0.00    +0.094 C 
BRANCH  18  19
ATOM     19  N   UNL     1      -2.006  -0.059   1.402  0.00  0.00    -0.404 NA
ATOM     20  H   UNL     1      -1.427  -0.464   2.122  0.00  0.00    +0.123 HD
ATOM     21  H   UNL     1      -2.010   0.945   1.498  0.00  0.00    +0.123 HD
BRANCH  19  22
ATOM     22  C   UNL     1      -3.312  -0.544   1.527  0.00  0.00    +0.050 C 
ATOM     23  C   UNL     1      -3.638  -1.318   2.556  0.00  0.00    +0.016 C 
BRANCH  23  24
ATOM     24  C   UNL     1      -5.011  -1.828   2.688  0.00  0.00    -0.050 C 
ATOM     25  C   UNL     1      -5.294  -2.586   3.723  0.00  0.00    -0.023 C 
ATOM     26  C   UNL     1      -6.648  -3.181   3.978  0.00  0.00    +0.027 C 
ATOM     27  C   UNL     1      -7.707  -2.457   3.144  0.00  0.00    +0.004 C 
ATOM     28  C   UNL     1      -7.219  -2.386   1.692  0.00  0.00    +0.005 C 
ATOM     29  C   UNL     1      -6.011  -1.447   1.634  0.00  0.00    +0.035 C 
ENDBRANCH  23  24
ENDBRANCH  19  22
ENDBRANCH  18  19
BRANCH  18  31
ATOM     30  C   UNL     1      -0.237   1.738  -0.126  0.00  0.00    +0.006 C 
ATOM     31  C   UNL     1      -0.095   0.214  -0.104  0.00  0.00    +0.022 C 
ENDBRANCH  18  31
ENDBRANCH   1  18
TORSDOF 6
