REMARK  Name = ZINC59246042
REMARK  11 active torsions:
REMARK  status: ('A' for Active; 'I' for Inactive)
REMARK    1  A    between atoms: C_1  and  C_2
REMARK    2  A    between atoms: C_2  and  O_3
REMARK    3  A    between atoms: O_3  and  C_4
REMARK    4  A    between atoms: C_4  and  C_6
REMARK    5  A    between atoms: C_9  and  N_12
REMARK    6  A    between atoms: C_13  and  C_38
REMARK    7  A    between atoms: C_15  and  C_18
REMARK    8  A    between atoms: C_16  and  C_17
REMARK    9  A    between atoms: N_19  and  C_20
REMARK   10  A    between atoms: C_21  and  C_29
REMARK   11  A    between atoms: N_31  and  C_32
REMARK                            x       y       z     vdW  Elec       q    Type
REMARK                         _______ _______ _______ _____ _____    ______ ____
ROOT
ATOM      1  C   UNL     1       5.994  -5.735  -7.614  0.00  0.00    +0.121 C 
ATOM      2  N   UNL     1       6.853  -6.195  -6.740  0.00  0.00    -0.247 NA
ENDROOT
BRANCH   2   3
ATOM      3  C   UNL     1       7.919  -6.914  -7.155  0.00  0.00    +0.114 A 
ATOM      4  C   UNL     1       8.941  -7.495  -6.396  0.00  0.00    +0.073 A 
ATOM      5  C   UNL     1       9.955  -8.205  -7.066  0.00  0.00    -0.023 A 
ATOM      6  C   UNL     1       9.865  -8.274  -8.416  0.00  0.00    -0.004 A 
ATOM      7  S   UNL     1       8.389  -7.378  -8.814  0.00  0.00    -0.073 S 
ATOM      8  C   UNL     1      10.806  -8.961  -9.356  0.00  0.00    +0.043 C 
ATOM      9  C   UNL     1      12.105  -9.275  -8.599  0.00  0.00    +0.005 C 
ATOM     10  C   UNL     1      11.746  -9.918  -7.256  0.00  0.00    +0.005 C 
ATOM     11  C   UNL     1      11.113  -8.877  -6.332  0.00  0.00    +0.037 C 
BRANCH   4  12
ATOM     12  C   UNL     1       8.955  -7.367  -4.935  0.00  0.00    +0.247 C 
ATOM     13  O   UNL     1       8.396  -8.200  -4.246  0.00  0.00    -0.270 OA
ATOM     14  N   UNL     1       9.588  -6.327  -4.356  0.00  0.00    -0.308 N 
ATOM     15  H   UNL     1      10.034  -5.664  -4.906  0.00  0.00    +0.149 HD
BRANCH  14  16
ATOM     16  C   UNL     1       9.602  -6.200  -2.897  0.00  0.00    +0.073 C 
ATOM     17  C   UNL     1       8.327  -5.492  -2.434  0.00  0.00    +0.022 C 
ATOM     18  C   UNL     1       8.342  -5.359  -0.910  0.00  0.00    +0.002 C 
ATOM     19  C   UNL     1       9.563  -4.542  -0.482  0.00  0.00    +0.000 C 
ATOM     20  C   UNL     1      10.838  -5.249  -0.945  0.00  0.00    +0.002 C 
ATOM     21  C   UNL     1      10.823  -5.383  -2.469  0.00  0.00    +0.022 C 
ENDBRANCH  14  16
ENDBRANCH   4  12
ENDBRANCH   2   3
BRANCH   1  25
ATOM     22  N   UNL     1       3.368  -3.896  -5.888  0.00  0.00    -0.317 N 
ATOM     23  C   UNL     1       2.932  -3.746  -7.175  0.00  0.00    +0.022 A 
ATOM     24  C   UNL     1       3.784  -4.370  -8.006  0.00  0.00    +0.032 A 
ATOM     25  C   UNL     1       4.837  -4.955  -7.165  0.00  0.00    +0.014 A 
ATOM     26  C   UNL     1       4.518  -4.617  -5.864  0.00  0.00    +0.030 A 
ATOM     27  C   UNL     1       5.306  -4.986  -4.635  0.00  0.00    +0.064 C 
ATOM     28  C   UNL     1       1.692  -3.001  -7.596  0.00  0.00    +0.064 C 
BRANCH  22  32
ATOM     29  C   UNL     1       1.454  -2.347  -2.525  0.00  0.00    +0.059 A 
ATOM     30  C   UNL     1       1.993  -1.484  -3.483  0.00  0.00    +0.017 A 
ATOM     31  C   UNL     1       2.625  -2.000  -4.593  0.00  0.00    +0.027 A 
ATOM     32  C   UNL     1       2.727  -3.377  -4.761  0.00  0.00    +0.047 A 
ATOM     33  C   UNL     1       2.191  -4.238  -3.809  0.00  0.00    +0.027 A 
ATOM     34  C   UNL     1       1.563  -3.730  -2.694  0.00  0.00    +0.017 A 
BRANCH  29  35
ATOM     35  C   UNL     1       0.776  -1.799  -1.335  0.00  0.00    +0.339 C 
ATOM     36  O   UNL     1       0.312  -2.550  -0.500  0.00  0.00    -0.245 OA
BRANCH  35  37
ATOM     37  O   UNL     1       0.671  -0.465  -1.174  0.00  0.00    -0.461 OA
BRANCH  37  39
ATOM     38  C   UNL     1      -0.019   1.526   0.010  0.00  0.00    +0.048 C 
ATOM     39  C   UNL     1       0.002  -0.004   0.002  0.00  0.00    +0.229 C 
ENDBRANCH  37  39
ENDBRANCH  35  37
ENDBRANCH  29  35
ENDBRANCH  22  32
ENDBRANCH   1  25
TORSDOF 8
