REMARK  Name = ZINC16130012
REMARK  9 active torsions:
REMARK  status: ('A' for Active; 'I' for Inactive)
REMARK    1  A    between atoms: C_1  and  S_2
REMARK    2  A    between atoms: S_2  and  N_5
REMARK    3  A    between atoms: N_5  and  C_6
REMARK    4  A    between atoms: C_6  and  C_7
REMARK    5  A    between atoms: C_7  and  C_8
REMARK    6  A    between atoms: C_11  and  C_13
REMARK    7  A    between atoms: C_13  and  C_15
REMARK    8  A    between atoms: C_15  and  S_16
REMARK    9  A    between atoms: S_16  and  C_17
REMARK                            x       y       z     vdW  Elec       q    Type
REMARK                         _______ _______ _______ _____ _____    ______ ____
ROOT
ATOM      1  C   UNL     1       5.651  -1.488  -0.059  0.00  0.00    +0.180 C 
ATOM      2  O   UNL     1       6.404  -0.535  -0.062  0.00  0.00    -0.291 OA
ENDROOT
BRANCH   1   6
ATOM      3  C   UNL     1       6.670  -5.421  -0.087  0.00  0.00    -0.008 A 
ATOM      4  C   UNL     1       7.729  -4.567  -0.094  0.00  0.00    +0.012 A 
ATOM      5  C   UNL     1       7.500  -3.216  -0.085  0.00  0.00    +0.019 A 
ATOM      6  C   UNL     1       6.173  -2.800  -0.070  0.00  0.00    +0.056 A 
ATOM      7  S   UNL     1       5.301  -4.357  -0.062  0.00  0.00    -0.090 S 
BRANCH   3   8
ATOM      8  C   UNL     1       6.683  -6.928  -0.094  0.00  0.00    +0.059 C 
BRANCH   8   9
ATOM      9  C   UNL     1       6.701  -7.445   1.346  0.00  0.00    +0.110 C 
BRANCH   9  10
ATOM     10  N   UNL     1       6.714  -8.909   1.339  0.00  0.00    -0.194 NA
ATOM     11  H   UNL     1       6.493  -9.393   0.527  0.00  0.00    +0.148 HD
BRANCH  10  13
ATOM     12  C   UNL     1       5.779  -9.349   3.890  0.00  0.00    +0.214 C 
ATOM     13  S   UNL     1       7.106  -9.741   2.716  0.00  0.00    +0.027 S 
ATOM     14  O   UNL     1       7.042 -11.110   2.344  0.00  0.00    -0.158 OA
ATOM     15  O   UNL     1       8.330  -9.165   3.152  0.00  0.00    -0.158 OA
ENDBRANCH  10  13
ENDBRANCH   9  10
ENDBRANCH   8   9
ENDBRANCH   3   8
ENDBRANCH   1   6
BRANCH   1  16
ATOM     16  C   UNL     1       4.160  -1.270  -0.044  0.00  0.00    +0.157 C 
BRANCH  16  17
ATOM     17  S   UNL     1       3.809   0.510  -0.032  0.00  0.00    -0.078 S 
BRANCH  17  18
ATOM     18  C   UNL     1       2.050   0.598  -0.014  0.00  0.00    +0.196 A 
ATOM     19  N   UNL     1       1.219  -0.421  -0.012  0.00  0.00    -0.122 NA
ATOM     20  N   UNL     1       0.002  -0.004   0.002  0.00  0.00    -0.127 NA
ATOM     21  C   UNL     1      -0.016   1.316   0.009  0.00  0.00    +0.180 A 
ATOM     22  N   UNL     1       1.298   1.735  -0.001  0.00  0.00    -0.275 N 
ATOM     23  C   UNL     1       1.599   3.069   0.004  0.00  0.00    +0.115 A 
ATOM     24  C   UNL     1       0.616   3.993   0.019  0.00  0.00    +0.059 A 
ATOM     25  C   UNL     1      -0.735   3.595   0.030  0.00  0.00    +0.045 A 
ATOM     26  C   UNL     1      -1.052   2.273   0.029  0.00  0.00    +0.087 A 
ATOM     27 CL   UNL     1      -2.713   1.768   0.051  0.00  0.00    -0.080 Cl
ATOM     28 CL   UNL     1       1.018   5.681   0.026  0.00  0.00    -0.082 Cl
ENDBRANCH  17  18
ENDBRANCH  16  17
ENDBRANCH   1  16
TORSDOF 8
