REMARK  Name = ZINC35665070
REMARK  7 active torsions:
REMARK  status: ('A' for Active; 'I' for Inactive)
REMARK    1  A    between atoms: C_1  and  C_2
REMARK    2  A    between atoms: C_2  and  C_3
REMARK    3  A    between atoms: C_3  and  N_4
REMARK    4  A    between atoms: C_14  and  C_29
REMARK    5  A    between atoms: N_18  and  C_19
REMARK    6  A    between atoms: C_19  and  C_20
REMARK    7  A    between atoms: C_29  and  C_30
REMARK                            x       y       z     vdW  Elec       q    Type
REMARK                         _______ _______ _______ _____ _____    ______ ____
ROOT
ATOM      1  N   UNL     1       1.761  -1.566  -1.604  0.00  0.00    -0.299 N 
ATOM      2  C   UNL     1       2.364  -2.354  -2.516  0.00  0.00    +0.302 C 
ATOM      3  O   UNL     1       3.078  -1.861  -3.369  0.00  0.00    -0.253 OA
ATOM      4  N   UNL     1       2.176  -3.688  -2.484  0.00  0.00    -0.286 N 
ATOM      5  C   UNL     1       1.223  -4.287  -1.539  0.00  0.00    +0.109 C 
ATOM      6  C   UNL     1       0.238  -5.162  -2.321  0.00  0.00    +0.025 C 
ATOM      7  C   UNL     1       1.015  -6.170  -3.166  0.00  0.00    +0.006 C 
ATOM      8  C   UNL     1       1.920  -5.444  -4.159  0.00  0.00    +0.025 C 
ATOM      9  C   UNL     1       2.916  -4.571  -3.397  0.00  0.00    +0.109 C 
ATOM     10  N   UNL     1       0.071  -7.042  -3.895  0.00  0.00    +0.401 N 
ATOM     11  C   UNL     1      -0.093  -8.198  -2.981  0.00  0.00    +0.023 C 
ATOM     12  C   UNL     1       1.186  -8.237  -2.174  0.00  0.00    +0.201 C 
ATOM     13  O   UNL     1       1.584  -9.179  -1.521  0.00  0.00    -0.277 OA
ATOM     14  N   UNL     1       1.810  -7.048  -2.303  0.00  0.00    -0.309 N 
ATOM     15  H   UNL     1       1.136  -1.950  -0.970  0.00  0.00    +0.150 HD
ATOM     16  H   UNL     1      -0.810  -6.572  -4.038  0.00  0.00    -0.082 HD
ATOM     17  H   UNL     1       0.466  -7.337  -4.776  0.00  0.00    -0.082 HD
ENDROOT
BRANCH   1  18
ATOM     18  C   UNL     1       2.050  -0.130  -1.572  0.00  0.00    +0.105 C 
BRANCH  18  20
ATOM     19  C   UNL     1       1.542   2.027  -0.418  0.00  0.00    +0.005 C 
ATOM     20  C   UNL     1       1.241   0.527  -0.452  0.00  0.00    +0.015 C 
ENDBRANCH  18  20
ENDBRANCH   1  18
BRANCH  14  21
ATOM     21  C   UNL     1       3.085  -6.690  -1.677  0.00  0.00    +0.141 C 
BRANCH  21  22
ATOM     22  C   UNL     1       4.218  -7.314  -2.452  0.00  0.00    -0.026 A 
ATOM     23  C   UNL     1       4.942  -8.353  -1.898  0.00  0.00    +0.009 A 
ATOM     24  C   UNL     1       5.981  -8.929  -2.605  0.00  0.00    +0.050 A 
ATOM     25  C   UNL     1       6.299  -8.465  -3.871  0.00  0.00    +0.166 A 
ATOM     26  C   UNL     1       5.569  -7.419  -4.429  0.00  0.00    +0.167 A 
ATOM     27  C   UNL     1       4.525  -6.850  -3.717  0.00  0.00    +0.054 A 
ATOM     28  O   UNL     1       6.071  -7.149  -5.670  0.00  0.00    -0.453 OA
ATOM     29  C   UNL     1       7.373  -7.765  -5.700  0.00  0.00    +0.466 C 
ATOM     30  O   UNL     1       7.258  -8.852  -4.762  0.00  0.00    -0.453 OA
ENDBRANCH  21  22
ENDBRANCH  14  21
BRANCH  11  31
ATOM     31  C   UNL     1      -0.261  -9.491  -3.782  0.00  0.00    +0.028 C 
BRANCH  31  32
ATOM     32  C   UNL     1      -1.545  -9.432  -4.568  0.00  0.00    -0.048 A 
ATOM     33  C   UNL     1      -2.721  -9.894  -4.007  0.00  0.00    +0.003 A 
ATOM     34  C   UNL     1      -3.899  -9.840  -4.728  0.00  0.00    +0.000 A 
ATOM     35  C   UNL     1      -3.901  -9.324  -6.010  0.00  0.00    +0.000 A 
ATOM     36  C   UNL     1      -2.726  -8.861  -6.571  0.00  0.00    +0.000 A 
ATOM     37  C   UNL     1      -1.548  -8.911  -5.849  0.00  0.00    +0.003 A 
ENDBRANCH  31  32
ENDBRANCH  11  31
TORSDOF 6
