REMARK  Name = ZINC28186545
REMARK  5 active torsions:
REMARK  status: ('A' for Active; 'I' for Inactive)
REMARK    1  A    between atoms: C_1  and  N_2
REMARK    2  A    between atoms: C_10  and  S_11
REMARK    3  A    between atoms: S_11  and  C_12
REMARK    4  A    between atoms: C_12  and  C_13
REMARK    5  A    between atoms: C_15  and  C_18
REMARK                            x       y       z     vdW  Elec       q    Type
REMARK                         _______ _______ _______ _____ _____    ______ ____
ROOT
ATOM      1  C   UNL     1      -4.722   2.137   0.934  0.00  0.00    +0.157 C 
ENDROOT
BRANCH   1   2
ATOM      2  C   UNL     1      -5.905   2.055   0.005  0.00  0.00    +0.182 A 
ATOM      3  N   UNL     1      -6.362   3.038  -0.786  0.00  0.00    -0.191 NA
ATOM      4  C   UNL     1      -7.403   2.528  -1.421  0.00  0.00    +0.258 A 
ATOM      5  O   UNL     1      -7.538   1.266  -0.985  0.00  0.00    -0.333 OA
ATOM      6  N   UNL     1      -6.672   1.019  -0.172  0.00  0.00    -0.060 NA
BRANCH   4   7
ATOM      7  C   UNL     1      -8.255   3.216  -2.413  0.00  0.00    +0.040 A 
ATOM      8  C   UNL     1      -7.993   4.541  -2.764  0.00  0.00    +0.015 A 
ATOM      9  C   UNL     1      -8.790   5.176  -3.694  0.00  0.00    +0.021 A 
ATOM     10  C   UNL     1      -9.854   4.504  -4.271  0.00  0.00    +0.041 A 
ATOM     11  C   UNL     1     -10.123   3.191  -3.923  0.00  0.00    +0.021 A 
ATOM     12  C   UNL     1      -9.330   2.544  -2.998  0.00  0.00    +0.015 A 
ATOM     13 CL   UNL     1     -10.857   5.312  -5.436  0.00  0.00    -0.084 Cl
ENDBRANCH   4   7
ENDBRANCH   1   2
BRANCH   1  14
ATOM     14  S   UNL     1      -3.226   1.628   0.052  0.00  0.00    -0.080 S 
BRANCH  14  24
ATOM     15  C   UNL     1      -0.013   1.086   0.008  0.00  0.00    +0.151 C 
ATOM     16  N   UNL     1      -0.698   1.558   1.213  0.00  0.00    -0.322 N 
ATOM     17  C   UNL     1      -0.112   1.833   2.438  0.00  0.00    +0.069 A 
ATOM     18  C   UNL     1       1.188   1.770   2.917  0.00  0.00    +0.028 A 
ATOM     19  C   UNL     1       1.456   2.121   4.224  0.00  0.00    +0.002 A 
ATOM     20  C   UNL     1       0.433   2.537   5.064  0.00  0.00    +0.002 A 
ATOM     21  C   UNL     1      -0.864   2.606   4.605  0.00  0.00    +0.030 A 
ATOM     22  C   UNL     1      -1.152   2.254   3.284  0.00  0.00    +0.090 A 
ATOM     23  N   UNL     1      -2.299   2.218   2.556  0.00  0.00    -0.222 NA
ATOM     24  C   UNL     1      -2.035   1.815   1.337  0.00  0.00    +0.170 A 
ENDBRANCH  14  24
ENDBRANCH   1  14
TORSDOF 4
