REMARK  Name = ZINC56789115
REMARK  7 active torsions:
REMARK  status: ('A' for Active; 'I' for Inactive)
REMARK    1  A    between atoms: C_1  and  C_2
REMARK    2  A    between atoms: C_2  and  C_4
REMARK    3  A    between atoms: C_2  and  N_14
REMARK    4  A    between atoms: C_4  and  O_5
REMARK    5  A    between atoms: O_5  and  C_6
REMARK    6  A    between atoms: N_17  and  C_18
REMARK    7  A    between atoms: C_21  and  C_24
REMARK                            x       y       z     vdW  Elec       q    Type
REMARK                         _______ _______ _______ _____ _____    ______ ____
ROOT
ATOM      1  N   UNL     1       0.689  -0.471  -1.205  0.00  0.00    -0.293 N 
ATOM      2  C   UNL     1       0.006  -0.610  -2.358  0.00  0.00    +0.304 C 
ATOM      3  O   UNL     1      -1.180  -0.345  -2.398  0.00  0.00    -0.252 OA
ATOM      4  N   UNL     1       0.637  -1.043  -3.467  0.00  0.00    -0.269 N 
ATOM      5  H   UNL     1       1.635  -0.683  -1.173  0.00  0.00    +0.151 HD
ATOM      6  H   UNL     1       1.596  -1.190  -3.454  0.00  0.00    +0.156 HD
ENDROOT
BRANCH   4   7
ATOM      7  C   UNL     1      -0.091  -1.280  -4.639  0.00  0.00    +0.035 A 
ATOM      8  C   UNL     1      -1.173  -0.469  -4.959  0.00  0.00    +0.024 A 
ATOM      9  C   UNL     1      -1.891  -0.700  -6.113  0.00  0.00    +0.012 A 
ATOM     10  C   UNL     1      -1.532  -1.748  -6.958  0.00  0.00    +0.003 A 
ATOM     11  C   UNL     1      -0.446  -2.560  -6.635  0.00  0.00    +0.012 A 
ATOM     12  C   UNL     1       0.273  -2.321  -5.483  0.00  0.00    +0.024 A 
BRANCH  10  13
ATOM     13  C   UNL     1      -2.304  -2.000  -8.201  0.00  0.00    +0.102 A 
ATOM     14  C   UNL     1      -2.001  -3.017  -9.066  0.00  0.00    +0.097 A 
ATOM     15  S   UNL     1      -3.173  -2.824 -10.254  0.00  0.00    +0.029 S 
ATOM     16  N   UNL     1      -3.958  -1.543  -9.653  0.00  0.00    -0.110 NA
ATOM     17  N   UNL     1      -3.344  -1.263  -8.557  0.00  0.00    -0.141 NA
ENDBRANCH  10  13
ENDBRANCH   4   7
BRANCH   1  19
ATOM     18  C   UNL     1      -0.028   1.529   0.006  0.00  0.00    +0.031 C 
ATOM     19  C   UNL     1       0.003  -0.000   0.001  0.00  0.00    +0.109 C 
BRANCH  19  20
ATOM     20  C   UNL     1       0.750  -0.499   1.240  0.00  0.00    +0.251 C 
BRANCH  20  21
ATOM     21  O   UNL     1       2.048   0.097   1.286  0.00  0.00    -0.487 OA
BRANCH  21  22
ATOM     22  C   UNL     1       2.846  -0.244   2.333  0.00  0.00    +0.156 A 
ATOM     23  C   UNL     1       2.392  -1.137   3.292  0.00  0.00    +0.051 A 
ATOM     24  C   UNL     1       3.204  -1.482   4.355  0.00  0.00    +0.042 A 
ATOM     25  C   UNL     1       4.472  -0.936   4.465  0.00  0.00    +0.126 A 
ATOM     26  C   UNL     1       4.928  -0.044   3.510  0.00  0.00    +0.080 A 
ATOM     27  C   UNL     1       4.120   0.299   2.441  0.00  0.00    +0.168 A 
ATOM     28  F   UNL     1       4.568   1.165   1.506  0.00  0.00    -0.202 F 
ATOM     29  F   UNL     1       5.263  -1.275   5.506  0.00  0.00    -0.205 F 
ENDBRANCH  21  22
ENDBRANCH  20  21
ENDBRANCH  19  20
ENDBRANCH   1  19
TORSDOF 6
