REMARK  Name = ZINC04994332
REMARK  15 active torsions:
REMARK  status: ('A' for Active; 'I' for Inactive)
REMARK    1  A    between atoms: C_1  and  C_2
REMARK    2  A    between atoms: C_2  and  O_4
REMARK    3  A    between atoms: O_4  and  C_5
REMARK    4  A    between atoms: C_5  and  C_6
REMARK    5  A    between atoms: C_8  and  O_32
REMARK    6  A    between atoms: C_10  and  O_28
REMARK    7  A    between atoms: C_12  and  N_21
REMARK    8  A    between atoms: C_14  and  O_17
REMARK    9  A    between atoms: O_17  and  C_18
REMARK   10  A    between atoms: C_18  and  C_20
REMARK   11  A    between atoms: C_22  and  C_24
REMARK   12  A    between atoms: O_28  and  C_29
REMARK   13  A    between atoms: C_29  and  C_31
REMARK   14  A    between atoms: O_32  and  C_33
REMARK   15  A    between atoms: C_33  and  C_35
REMARK                            x       y       z     vdW  Elec       q    Type
REMARK                         _______ _______ _______ _____ _____    ______ ____
ROOT
ATOM      1  C   UNL     1       2.873   0.076  -1.732  0.00  0.00    +0.204 C 
ATOM      2  C   UNL     1       2.562  -0.383  -0.304  0.00  0.00    +0.251 C 
ATOM      3  C   UNL     1       2.364   0.847   0.587  0.00  0.00    +0.246 C 
ATOM      4  C   UNL     1       1.248   1.716  -0.001  0.00  0.00    +0.186 C 
ATOM      5  C   UNL     1       1.609   2.093  -1.440  0.00  0.00    +0.335 C 
ATOM      6  O   UNL     1       1.810   0.904  -2.207  0.00  0.00    -0.329 OA
ENDROOT
BRANCH   4   7
ATOM      7  N   UNL     1      -0.011   0.966   0.007  0.00  0.00    -0.300 N 
ATOM      8  C   UNL     1      -1.187   1.624   0.017  0.00  0.00    +0.265 C 
ATOM      9  O   UNL     1      -1.204   2.837   0.023  0.00  0.00    -0.271 OA
ATOM     10  H   UNL     1       0.002  -0.004   0.002  0.00  0.00    +0.149 HD
BRANCH   8  11
ATOM     11  C   UNL     1      -2.482   0.853   0.018  0.00  0.00    +0.266 C 
ATOM     12 CL   UNL     1      -3.868   2.006   0.031  0.00  0.00    -0.074 Cl
ATOM     13 CL   UNL     1      -2.571  -0.177  -1.459  0.00  0.00    -0.074 Cl
ATOM     14 CL   UNL     1      -2.557  -0.193   1.485  0.00  0.00    -0.074 Cl
ENDBRANCH   8  11
ENDBRANCH   4   7
BRANCH   1  15
ATOM     15  C   UNL     1       3.013  -1.146  -2.641  0.00  0.00    +0.267 C 
BRANCH  15  16
ATOM     16  O   UNL     1       3.423  -0.718  -3.967  0.00  0.00    -0.462 OA
BRANCH  16  18
ATOM     17  C   UNL     1       4.016  -1.308  -6.290  0.00  0.00    +0.136 C 
ATOM     18  C   UNL     1       3.592  -1.677  -4.892  0.00  0.00    +0.304 C 
ATOM     19  O   UNL     1       3.404  -2.834  -4.603  0.00  0.00    -0.251 OA
ENDBRANCH  16  18
ENDBRANCH  15  16
ENDBRANCH   1  15
BRANCH   5  20
ATOM     20  O   UNL     1       0.529   2.869  -2.022  0.00  0.00    -0.433 OA
BRANCH  20  21
ATOM     21  C   UNL     1       0.732   3.369  -3.252  0.00  0.00    +0.306 C 
ATOM     22  O   UNL     1       1.778   3.165  -3.821  0.00  0.00    -0.251 OA
ATOM     23  C   UNL     1      -0.344   4.184  -3.921  0.00  0.00    +0.136 C 
ENDBRANCH  20  21
ENDBRANCH   5  20
BRANCH   3  24
ATOM     24  O   UNL     1       1.996   0.422   1.926  0.00  0.00    -0.456 OA
BRANCH  24  25
ATOM     25  C   UNL     1       2.996   0.217   2.797  0.00  0.00    +0.304 C 
ATOM     26  O   UNL     1       4.142   0.387   2.452  0.00  0.00    -0.251 OA
ATOM     27  C   UNL     1       2.691  -0.225   4.205  0.00  0.00    +0.136 C 
ENDBRANCH  24  25
ENDBRANCH   3  24
BRANCH   2  28
ATOM     28  O   UNL     1       3.668  -1.176   0.202  0.00  0.00    -0.455 OA
BRANCH  28  29
ATOM     29  C   UNL     1       3.619  -2.499  -0.016  0.00  0.00    +0.304 C 
ATOM     30  O   UNL     1       2.682  -2.979  -0.610  0.00  0.00    -0.251 OA
ATOM     31  C   UNL     1       4.731  -3.387   0.481  0.00  0.00    +0.136 C 
ENDBRANCH  28  29
ENDBRANCH   2  28
TORSDOF 11
