REMARK  Name = ZINC58511726
REMARK  6 active torsions:
REMARK  status: ('A' for Active; 'I' for Inactive)
REMARK    1  A    between atoms: C_11  and  C_28
REMARK    2  A    between atoms: C_14  and  C_16
REMARK    3  A    between atoms: C_16  and  O_17
REMARK    4  A    between atoms: O_17  and  C_18
REMARK    5  A    between atoms: C_18  and  C_20
REMARK    6  A    between atoms: C_25  and  N_26
REMARK                            x       y       z     vdW  Elec       q    Type
REMARK                         _______ _______ _______ _____ _____    ______ ____
ROOT
ATOM      1  C   UNL     1      -0.041   1.325  -0.005  0.00  0.00    +0.002 A 
ATOM      2  C   UNL     1       1.151   2.026   0.006  0.00  0.00    +0.002 A 
ATOM      3  C   UNL     1       2.357   1.350  -0.004  0.00  0.00    +0.025 A 
ATOM      4  C   UNL     1       2.371  -0.035  -0.032  0.00  0.00    +0.058 A 
ATOM      5  C   UNL     1       1.168  -0.742  -0.061  0.00  0.00    +0.055 A 
ATOM      6  C   UNL     1      -0.036  -0.058  -0.038  0.00  0.00    +0.025 A 
ATOM      7  N   UNL     1       1.198  -2.139  -0.146  0.00  0.00    -0.284 N 
ATOM      8  C   UNL     1       1.980  -2.858   0.688  0.00  0.00    +0.219 C 
ATOM      9  O   UNL     1       2.062  -4.060   0.549  0.00  0.00    -0.275 OA
ATOM     10  C   UNL     1       2.751  -2.177   1.788  0.00  0.00    +0.128 C 
ATOM     11  C   UNL     1       3.966  -1.452   1.207  0.00  0.00    +0.194 C 
ATOM     12  N   UNL     1       3.583  -0.739  -0.012  0.00  0.00    -0.255 N 
ATOM     13  C   UNL     1       4.382  -0.758  -1.097  0.00  0.00    +0.258 C 
ATOM     14  O   UNL     1       5.429  -1.370  -1.068  0.00  0.00    -0.271 OA
ATOM     15  H   UNL     1       0.653  -2.593  -0.808  0.00  0.00    +0.155 HD
ENDROOT
BRANCH  11  16
ATOM     16  C   UNL     1       4.498  -0.450   2.234  0.00  0.00    +0.409 C 
ATOM     17  F   UNL     1       4.872  -1.130   3.398  0.00  0.00    -0.169 F 
ATOM     18  F   UNL     1       5.610   0.214   1.705  0.00  0.00    -0.169 F 
ATOM     19  F   UNL     1       3.499   0.481   2.538  0.00  0.00    -0.169 F 
ENDBRANCH  11  16
BRANCH  13  20
ATOM     20  C   UNL     1       3.976  -0.020  -2.346  0.00  0.00    +0.328 C 
BRANCH  20  21
ATOM     21  O   UNL     1       4.979  -0.190  -3.349  0.00  0.00    -0.452 OA
BRANCH  21  22
ATOM     22  C   UNL     1       4.767   0.412  -4.536  0.00  0.00    +0.341 C 
ATOM     23  O   UNL     1       3.757   1.064  -4.715  0.00  0.00    -0.245 OA
BRANCH  22  24
ATOM     24  C   UNL     1       5.759   0.280  -5.616  0.00  0.00    +0.080 A 
ATOM     25  C   UNL     1       6.977  -0.364  -5.377  0.00  0.00    +0.018 A 
ATOM     26  C   UNL     1       7.900  -0.485  -6.391  0.00  0.00    +0.021 A 
ATOM     27  C   UNL     1       7.629   0.029  -7.652  0.00  0.00    +0.043 A 
ATOM     28  C   UNL     1       6.431   0.667  -7.903  0.00  0.00    +0.043 A 
ATOM     29  C   UNL     1       5.485   0.794  -6.894  0.00  0.00    +0.040 A 
ATOM     30 CL   UNL     1       8.804  -0.131  -8.920  0.00  0.00    -0.083 Cl
BRANCH  29  31
ATOM     31  N   UNL     1       4.277   1.430  -7.145  0.00  0.00    -0.357 N 
ATOM     32  H   UNL     1       3.653   1.592  -6.420  0.00  0.00    +0.142 HD
ATOM     33  H   UNL     1       4.056   1.714  -8.046  0.00  0.00    +0.142 HD
ENDBRANCH  29  31
ENDBRANCH  22  24
ENDBRANCH  21  22
ENDBRANCH  20  21
ENDBRANCH  13  20
TORSDOF 6
