REMARK  Name = ZINC06480150
REMARK  5 active torsions:
REMARK  status: ('A' for Active; 'I' for Inactive)
REMARK    1  A    between atoms: C_1  and  C_2
REMARK    2  A    between atoms: C_5  and  C_8
REMARK    3  A    between atoms: C_11  and  C_13
REMARK    4  A    between atoms: C_26  and  N_30
REMARK    5  A    between atoms: C_27  and  C_28
REMARK                            x       y       z     vdW  Elec       q    Type
REMARK                         _______ _______ _______ _____ _____    ______ ____
ROOT
ATOM      1  C   UNL     1      -0.013   1.086   0.008  0.00  0.00    +0.141 C 
ATOM      2  C   UNL     1      -0.712   1.568   1.250  0.00  0.00    +0.092 A 
ATOM      3  C   UNL     1      -0.042   1.532   2.487  0.00  0.00    +0.262 A 
ATOM      4  O   UNL     1       1.101   1.113   2.555  0.00  0.00    -0.267 OA
ATOM      5  N   UNL     1      -0.672   1.964   3.597  0.00  0.00    -0.275 N 
ATOM      6  H   UNL     1      -0.201   1.940   4.478  0.00  0.00    +0.173 HD
ATOM      7  C   UNL     1      -1.933   2.429   3.526  0.00  0.00    +0.329 A 
ATOM      8  O   UNL     1      -2.487   2.814   4.537  0.00  0.00    -0.247 OA
ATOM      9  N   UNL     1      -2.591   2.472   2.353  0.00  0.00    -0.278 N 
ATOM     10  H   UNL     1      -3.527   2.821   2.322  0.00  0.00    +0.173 HD
ATOM     11  C   UNL     1      -1.985   2.041   1.197  0.00  0.00    +0.214 A 
ATOM     12  O   UNL     1      -2.663   2.092   0.035  0.00  0.00    -0.425 OA
ATOM     13  C   UNL     1      -2.000   2.051  -1.135  0.00  0.00    +0.200 C 
ATOM     14  C   UNL     1      -0.735   1.581  -1.214  0.00  0.00    +0.101 C 
ENDROOT
BRANCH   1  18
ATOM     15  C   UNL     1       3.105   2.990  -0.010  0.00  0.00    +0.135 A 
ATOM     16  C   UNL     1       3.615   1.730  -0.022  0.00  0.00    +0.050 A 
ATOM     17  C   UNL     1       2.517   0.848  -0.012  0.00  0.00    +0.046 A 
ATOM     18  C   UNL     1       1.402   1.605  -0.003  0.00  0.00    +0.119 A 
ATOM     19  O   UNL     1       1.762   2.899   0.001  0.00  0.00    -0.459 OA
BRANCH  15  24
ATOM     20  C   UNL     1       6.157   7.868  -0.010  0.00  0.00    +0.044 C 
ATOM     21  C   UNL     1       5.358   6.591  -0.011  0.00  0.00    -0.050 A 
ATOM     22  C   UNL     1       3.975   6.644   0.002  0.00  0.00    +0.004 A 
ATOM     23  C   UNL     1       3.238   5.478   0.002  0.00  0.00    +0.012 A 
ATOM     24  C   UNL     1       3.889   4.243  -0.011  0.00  0.00    +0.017 A 
ATOM     25  C   UNL     1       5.284   4.197  -0.017  0.00  0.00    +0.012 A 
ATOM     26  C   UNL     1       6.010   5.370  -0.023  0.00  0.00    +0.004 A 
ENDBRANCH  15  24
ENDBRANCH   1  18
BRANCH  13  27
ATOM     27  N   UNL     1      -2.624   2.495  -2.273  0.00  0.00    -0.328 N 
ATOM     28  H   UNL     1      -3.532   2.833  -2.229  0.00  0.00    +0.145 HD
ATOM     29  H   UNL     1      -2.158   2.470  -3.123  0.00  0.00    +0.145 HD
ENDBRANCH  13  27
BRANCH  14  30
ATOM     30  C   UNL     1      -0.074   1.557  -2.484  0.00  0.00    +0.101 C 
ATOM     31  N   UNL     1       0.451   1.537  -3.492  0.00  0.00    -0.191 NA
ENDBRANCH  14  30
TORSDOF 4
