REMARK  Name = ZINC04065342
REMARK  6 active torsions:
REMARK  status: ('A' for Active; 'I' for Inactive)
REMARK    1  A    between atoms: C_1  and  C_2
REMARK    2  A    between atoms: C_7  and  O_10
REMARK    3  A    between atoms: O_10  and  C_11
REMARK    4  A    between atoms: C_11  and  C_13
REMARK    5  A    between atoms: C_14  and  C_31
REMARK    6  A    between atoms: C_19  and  C_21
REMARK                            x       y       z     vdW  Elec       q    Type
REMARK                         _______ _______ _______ _____ _____    ______ ____
ROOT
ATOM      1  C   UNL     1       3.005   0.803  -1.536  0.00  0.00    +0.078 C 
ATOM      2  C   UNL     1       2.981  -0.444  -2.054  0.00  0.00    +0.021 C 
ATOM      3  N   UNL     1       2.766  -1.534  -1.259  0.00  0.00    -0.273 N 
ATOM      4  C   UNL     1       2.566  -1.460   0.063  0.00  0.00    +0.304 C 
ATOM      5  O   UNL     1       2.382  -2.487   0.688  0.00  0.00    -0.252 OA
ATOM      6  N   UNL     1       2.562  -0.286   0.724  0.00  0.00    -0.288 N 
ATOM      7  C   UNL     1       2.785   0.951  -0.044  0.00  0.00    +0.145 C 
ATOM      8  C   UNL     1       3.195  -0.637  -3.533  0.00  0.00    +0.061 C 
ATOM      9  H   UNL     1       2.757  -2.410  -1.675  0.00  0.00    +0.156 HD
ATOM     10  H   UNL     1       2.415  -0.256   1.682  0.00  0.00    +0.151 HD
ENDROOT
BRANCH   7  11
ATOM     11  C   UNL     1       1.591   1.847   0.163  0.00  0.00    -0.005 A 
ATOM     12  C   UNL     1       0.329   1.298   0.288  0.00  0.00    +0.056 A 
ATOM     13  C   UNL     1      -0.770   2.120   0.474  0.00  0.00    +0.167 A 
ATOM     14  C   UNL     1      -0.599   3.501   0.544  0.00  0.00    +0.167 A 
ATOM     15  C   UNL     1       0.668   4.045   0.418  0.00  0.00    +0.065 A 
ATOM     16  C   UNL     1       1.761   3.218   0.228  0.00  0.00    +0.027 A 
ATOM     17 BR   UNL     1       3.490   3.964   0.057  0.00  0.00    -0.050 Br
ATOM     18  O   UNL     1      -1.819   4.082   0.735  0.00  0.00    -0.453 OA
ATOM     19  C   UNL     1      -2.785   3.077   0.364  0.00  0.00    +0.466 C 
ATOM     20  O   UNL     1      -2.098   1.837   0.619  0.00  0.00    -0.453 OA
ENDBRANCH   7  11
BRANCH   1  21
ATOM     21  C   UNL     1       3.227   1.932  -2.358  0.00  0.00    +0.339 C 
ATOM     22  O   UNL     1       2.286   2.602  -2.739  0.00  0.00    -0.245 OA
BRANCH  21  23
ATOM     23  O   UNL     1       4.484   2.266  -2.719  0.00  0.00    -0.458 OA
BRANCH  23  29
ATOM     24  C   UNL     1       7.516   6.032  -3.601  0.00  0.00    +0.007 C 
ATOM     25  C   UNL     1       6.166   5.396  -3.938  0.00  0.00    -0.011 C 
ATOM     26  C   UNL     1       6.112   5.076  -5.434  0.00  0.00    +0.003 C 
ATOM     27  C   UNL     1       4.762   4.440  -5.771  0.00  0.00    +0.004 C 
ATOM     28  C   UNL     1       4.591   3.150  -4.966  0.00  0.00    +0.045 C 
ATOM     29  C   UNL     1       4.644   3.471  -3.471  0.00  0.00    +0.177 C 
ATOM     30  C   UNL     1       5.994   4.107  -3.134  0.00  0.00    +0.048 C 
ENDBRANCH  23  29
ENDBRANCH  21  23
ENDBRANCH   1  21
TORSDOF 4
