REMARK  Name = ZINC37205325
REMARK  9 active torsions:
REMARK  status: ('A' for Active; 'I' for Inactive)
REMARK    1  A    between atoms: C_1  and  O_2
REMARK    2  A    between atoms: O_2  and  C_3
REMARK    3  A    between atoms: C_6  and  S_9
REMARK    4  A    between atoms: S_9  and  N_12
REMARK    5  A    between atoms: C_16  and  C_19
REMARK    6  A    between atoms: N_21  and  C_22
REMARK    7  A    between atoms: C_22  and  C_23
REMARK    8  A    between atoms: C_23  and  C_25
REMARK    9  A    between atoms: C_23  and  N_30
REMARK                            x       y       z     vdW  Elec       q    Type
REMARK                         _______ _______ _______ _____ _____    ______ ____
ROOT
ATOM      1  N   UNL     1      -5.745  -2.946  -1.529  0.00  0.00    -0.176 NA
ATOM      2  C   UNL     1      -6.386  -1.917  -2.359  0.00  0.00    +0.109 C 
ATOM      3  C   UNL     1      -7.604  -2.534  -3.056  0.00  0.00    +0.018 C 
ATOM      4  C   UNL     1      -7.167  -3.781  -3.827  0.00  0.00    +0.015 C 
ATOM      5  C   UNL     1      -6.596  -4.812  -2.851  0.00  0.00    +0.091 C 
ATOM      6  C   UNL     1      -5.362  -4.220  -2.153  0.00  0.00    +0.122 C 
ENDROOT
BRANCH   5   7
ATOM      7  C   UNL     1      -6.197  -6.054  -3.607  0.00  0.00    +0.217 C 
ATOM      8  O   UNL     1      -5.045  -6.432  -3.587  0.00  0.00    -0.275 OA
ATOM      9  N   UNL     1      -7.120  -6.744  -4.305  0.00  0.00    -0.316 N 
ATOM     10  H   UNL     1      -8.042  -6.441  -4.321  0.00  0.00    +0.149 HD
BRANCH   9  11
ATOM     11  C   UNL     1      -6.733  -7.950  -5.040  0.00  0.00    +0.096 C 
BRANCH  11  12
ATOM     12  C   UNL     1      -7.977  -8.595  -5.655  0.00  0.00    +0.016 C 
BRANCH  12  13
ATOM     13  N   UNL     1      -7.609  -9.873  -6.278  0.00  0.00    +0.387 N 
ATOM     14  C   UNL     1      -7.107 -10.819  -5.249  0.00  0.00    -0.078 C 
ATOM     15  C   UNL     1      -7.306 -12.204  -5.913  0.00  0.00    -0.020 C 
ATOM     16  C   UNL     1      -8.642 -12.034  -6.673  0.00  0.00    -0.020 C 
ATOM     17  C   UNL     1      -8.803 -10.515  -6.868  0.00  0.00    -0.078 C 
ATOM     18  H   UNL     1      -6.907  -9.725  -6.988  0.00  0.00    -0.081 HD
ENDBRANCH  12  13
BRANCH  12  19
ATOM     19  C   UNL     1      -8.555  -7.675  -6.699  0.00  0.00    +0.093 A 
ATOM     20  C   UNL     1      -9.603  -6.850  -6.528  0.00  0.00    +0.043 A 
ATOM     21  C   UNL     1      -9.802  -6.178  -7.756  0.00  0.00    +0.041 A 
ATOM     22  C   UNL     1      -8.863  -6.633  -8.605  0.00  0.00    +0.195 A 
ATOM     23  O   UNL     1      -8.107  -7.535  -7.958  0.00  0.00    -0.469 OA
ENDBRANCH  12  19
ENDBRANCH  11  12
ENDBRANCH   9  11
ENDBRANCH   5   7
BRANCH   1  24
ATOM     24  S   UNL     1      -5.454  -2.673   0.078  0.00  0.00    +0.061 S 
ATOM     25  O   UNL     1      -5.369  -3.949   0.698  0.00  0.00    -0.153 OA
ATOM     26  O   UNL     1      -6.384  -1.683   0.497  0.00  0.00    -0.153 OA
BRANCH  24  30
ATOM     27  C   UNL     1      -1.342  -0.803   0.395  0.00  0.00    +0.120 A 
ATOM     28  C   UNL     1      -2.462   0.002   0.249  0.00  0.00    +0.047 A 
ATOM     29  C   UNL     1      -3.715  -0.571   0.153  0.00  0.00    +0.032 A 
ATOM     30  C   UNL     1      -3.854  -1.945   0.201  0.00  0.00    +0.106 A 
ATOM     31  C   UNL     1      -2.740  -2.750   0.347  0.00  0.00    +0.032 A 
ATOM     32  C   UNL     1      -1.483  -2.183   0.438  0.00  0.00    +0.047 A 
BRANCH  27  34
ATOM     33  C   UNL     1      -0.038   1.184   0.439  0.00  0.00    +0.277 C 
ATOM     34  O   UNL     1      -0.108  -0.242   0.490  0.00  0.00    -0.495 OA
ENDBRANCH  27  34
ENDBRANCH  24  30
ENDBRANCH   1  24
TORSDOF 8
