REMARK  Name = ZINC39701189
REMARK  9 active torsions:
REMARK  status: ('A' for Active; 'I' for Inactive)
REMARK    1  A    between atoms: C_1  and  C_2
REMARK    2  A    between atoms: C_4  and  C_12
REMARK    3  A    between atoms: C_5  and  C_11
REMARK    4  A    between atoms: CA_7  and  C_8
REMARK    5  A    between atoms: C_12  and  C_14
REMARK    6  A    between atoms: C_15  and  C_16
REMARK    7  A    between atoms: C_17  and  C_34
REMARK    8  A    between atoms: N_19  and  C_23
REMARK    9  A    between atoms: C_23  and  C_24
REMARK                            x       y       z     vdW  Elec       q    Type
REMARK                         _______ _______ _______ _____ _____    ______ ____
ROOT
ATOM      1  C   UNL     1      -2.128   1.369  -4.666  0.00  0.00    +0.004 C 
ATOM      2  C   UNL     1      -2.561   1.637  -5.923  0.00  0.00    +0.022 C 
ATOM      3  N   UNL     1      -3.687   2.393  -5.907  0.00  0.00    -0.280 N 
ATOM      4  N   UNL     1      -4.085   2.683  -4.636  0.00  0.00    -0.203 NA
ATOM      5  C   UNL     1      -3.114   2.038  -3.730  0.00  0.00    +0.198 C 
ATOM      6 CL   UNL     1      -2.282   3.277  -2.717  0.00  0.00    -0.098 Cl
ATOM      7  C   UNL     1      -1.877   1.158  -7.177  0.00  0.00    +0.062 C 
ATOM      8  H   UNL     1      -4.152   2.691  -6.704  0.00  0.00    +0.166 HD
ENDROOT
BRANCH   1  10
ATOM      9  C   UNL     1      -0.697   0.430  -2.986  0.00  0.00    +0.051 C 
ATOM     10  C   UNL     1      -0.999   0.618  -4.305  0.00  0.00    +0.012 C 
BRANCH   9  11
ATOM     11  C   UNL     1       0.436  -0.324  -2.623  0.00  0.00    +0.184 C 
ATOM     12  O   UNL     1       1.148  -0.809  -3.488  0.00  0.00    -0.288 OA
BRANCH  11  15
ATOM     13  C   UNL     1      -0.019   1.526   0.010  0.00  0.00    +0.019 C 
ATOM     14  C   UNL     1       0.002  -0.004   0.002  0.00  0.00    +0.075 C 
ATOM     15  C   UNL     1       0.762  -0.525  -1.205  0.00  0.00    +0.027 C 
ATOM     16  C   UNL     1       1.805  -1.218  -0.687  0.00  0.00    +0.021 C 
ATOM     17  N   UNL     1       1.806  -1.205   0.645  0.00  0.00    -0.355 N 
ATOM     18  CA  UNL     1       0.812  -0.537   1.168  0.00  0.00    +0.113 C 
ATOM     19  C   UNL     1       2.843  -1.923  -1.522  0.00  0.00    +0.064 C 
ATOM     20  H   UNL     1       2.482  -1.652   1.179  0.00  0.00    +0.165 HD
BRANCH  18  21
ATOM     21  C   UNL     1       0.533  -0.339   2.600  0.00  0.00    +0.399 C 
ATOM     22  O   UNL     1       1.274  -0.828   3.442  0.00  0.00    -0.239 OA
ATOM     23  OXT UNL     1      -0.440   0.316   2.949  0.00  0.00    -0.239 OA
ENDBRANCH  18  21
ENDBRANCH  11  15
ENDBRANCH   9  11
ENDBRANCH   1  10
BRANCH   4  24
ATOM     24  C   UNL     1      -5.444   2.183  -4.383  0.00  0.00    +0.143 C 
BRANCH  24  25
ATOM     25  C   UNL     1      -6.420   2.915  -5.267  0.00  0.00    -0.024 A 
ATOM     26  C   UNL     1      -7.156   3.945  -4.767  0.00  0.00    +0.005 A 
ATOM     27  C   UNL     1      -8.064   4.633  -5.569  0.00  0.00    +0.001 A 
ATOM     28  C   UNL     1      -8.242   4.295  -6.876  0.00  0.00    +0.008 A 
ATOM     29  C   UNL     1      -7.501   3.236  -7.427  0.00  0.00    -0.018 A 
ATOM     30  C   UNL     1      -6.572   2.540  -6.613  0.00  0.00    -0.013 A 
ATOM     31  C   UNL     1      -5.826   1.485  -7.166  0.00  0.00    +0.009 A 
ATOM     32  C   UNL     1      -6.000   1.151  -8.473  0.00  0.00    +0.001 A 
ATOM     33  C   UNL     1      -6.909   1.839  -9.276  0.00  0.00    +0.001 A 
ATOM     34  C   UNL     1      -7.658   2.857  -8.771  0.00  0.00    +0.008 A 
ENDBRANCH  24  25
ENDBRANCH   4  24
TORSDOF 6
