REMARK  Name = ZINC24766472
REMARK  6 active torsions:
REMARK  status: ('A' for Active; 'I' for Inactive)
REMARK    1  A    between atoms: C_1  and  C_2
REMARK    2  A    between atoms: C_5  and  C_9
REMARK    3  A    between atoms: C_6  and  C_8
REMARK    4  A    between atoms: C_10  and  C_11
REMARK    5  A    between atoms: N_16  and  C_19
REMARK    6  A    between atoms: C_22  and  N_25
REMARK                            x       y       z     vdW  Elec       q    Type
REMARK                         _______ _______ _______ _____ _____    ______ ____
ROOT
ATOM      1  C   UNL     1       1.966   7.136  -1.605  0.00  0.00    +0.240 C 
ATOM      2  O   UNL     1       3.041   7.671  -1.409  0.00  0.00    -0.271 OA
ATOM      3  N   UNL     1       1.575   6.105  -0.830  0.00  0.00    -0.295 N 
ATOM      4  C   UNL     1       2.476   5.540   0.185  0.00  0.00    +0.127 C 
ATOM      5  C   UNL     1       2.539   4.021  -0.011  0.00  0.00    +0.124 C 
ATOM      6  N   UNL     1       1.176   3.473  -0.006  0.00  0.00    -0.327 N 
ATOM      7  C   UNL     1       0.386   3.998  -1.128  0.00  0.00    +0.124 C 
ATOM      8  C   UNL     1       0.236   5.515  -0.978  0.00  0.00    +0.127 C 
ENDROOT
BRANCH   6   9
ATOM      9  C   UNL     1       1.197   2.077  -0.018  0.00  0.00    +0.030 A 
ATOM     10  C   UNL     1       0.006   1.362  -0.015  0.00  0.00    +0.025 A 
ATOM     11  C   UNL     1       0.031  -0.019  -0.028  0.00  0.00    +0.034 A 
ATOM     12  C   UNL     1       1.240  -0.690  -0.043  0.00  0.00    +0.126 A 
ATOM     13  C   UNL     1       2.428   0.019  -0.046  0.00  0.00    +0.034 A 
ATOM     14  C   UNL     1       2.410   1.399  -0.032  0.00  0.00    +0.025 A 
BRANCH  12  15
ATOM     15  N   UNL     1       1.263  -2.170  -0.057  0.00  0.00    +0.056 N 
ATOM     16  O   UNL     1       0.217  -2.795  -0.055  0.00  0.00    -0.126 OA
ATOM     17  O   UNL     1       2.327  -2.762  -0.071  0.00  0.00    -0.126 OA
ENDBRANCH  12  15
ENDBRANCH   6   9
BRANCH   1  19
ATOM     18  C   UNL     1       1.531   8.572  -3.525  0.00  0.00    +0.013 C 
ATOM     19  C   UNL     1       1.096   7.613  -2.682  0.00  0.00    +0.068 C 
BRANCH  18  24
ATOM     20  C   UNL     1      -1.881  10.443  -7.756  0.00  0.00    +0.044 C 
ATOM     21  C   UNL     1      -0.987   9.953  -6.647  0.00  0.00    -0.050 A 
ATOM     22  C   UNL     1      -1.437   8.968  -5.784  0.00  0.00    +0.004 A 
ATOM     23  C   UNL     1      -0.623   8.511  -4.770  0.00  0.00    +0.008 A 
ATOM     24  C   UNL     1       0.657   9.051  -4.608  0.00  0.00    -0.022 A 
ATOM     25  C   UNL     1       1.104  10.045  -5.484  0.00  0.00    -0.043 A 
ATOM     26  C   UNL     1       0.280  10.489  -6.496  0.00  0.00    +0.007 A 
ATOM     27  C   UNL     1       2.484  10.629  -5.322  0.00  0.00    +0.044 C 
ENDBRANCH  18  24
ENDBRANCH   1  19
TORSDOF 4
