REMARK  Name = ZINC16455922
REMARK  7 active torsions:
REMARK  status: ('A' for Active; 'I' for Inactive)
REMARK    1  A    between atoms: C_1  and  C_2
REMARK    2  A    between atoms: C_2  and  C_25
REMARK    3  A    between atoms: N_5  and  C_9
REMARK    4  A    between atoms: C_9  and  C_10
REMARK    5  A    between atoms: N_12  and  C_13
REMARK    6  A    between atoms: C_13  and  C_14
REMARK    7  A    between atoms: C_14  and  C_15
REMARK                            x       y       z     vdW  Elec       q    Type
REMARK                         _______ _______ _______ _____ _____    ______ ____
ROOT
ATOM      1  C   UNL     1       3.587   0.574  -0.030  0.00  0.00    +0.213 C 
ENDROOT
BRANCH   1   6
ATOM      2  C   UNL     1      -0.721   2.005  -1.239  0.00  0.00    +0.047 C 
ATOM      3  C   UNL     1      -0.018   1.469   0.010  0.00  0.00    +0.135 C 
ATOM      4  C   UNL     1       1.450   1.845  -0.002  0.00  0.00    +0.251 C 
ATOM      5  O   UNL     1       1.920   2.963  -0.001  0.00  0.00    -0.272 OA
ATOM      6  N   UNL     1       2.125   0.679  -0.015  0.00  0.00    -0.215 N 
ATOM      7  C   UNL     1       1.296  -0.371  -0.012  0.00  0.00    +0.310 C 
ATOM      8  O   UNL     1       1.670  -1.528  -0.022  0.00  0.00    -0.252 OA
ATOM      9  N   UNL     1       0.002  -0.004   0.002  0.00  0.00    -0.281 N 
ATOM     10  H   UNL     1      -0.768  -0.594   0.006  0.00  0.00    +0.152 HD
BRANCH   3  11
ATOM     11  C   UNL     1      -0.687   1.983   1.259  0.00  0.00    -0.015 A 
ATOM     12  C   UNL     1      -0.282   3.182   1.815  0.00  0.00    +0.009 A 
ATOM     13  C   UNL     1      -0.899   3.658   2.957  0.00  0.00    +0.039 A 
ATOM     14  C   UNL     1      -1.914   2.927   3.550  0.00  0.00    +0.123 A 
ATOM     15  C   UNL     1      -2.315   1.723   2.995  0.00  0.00    +0.039 A 
ATOM     16  C   UNL     1      -1.701   1.253   1.850  0.00  0.00    +0.009 A 
ATOM     17  F   UNL     1      -2.513   3.388   4.670  0.00  0.00    -0.205 F 
ENDBRANCH   3  11
ENDBRANCH   1   6
BRANCH   1  18
ATOM     18  C   UNL     1       4.073   0.545  -1.456  0.00  0.00    +0.231 C 
ATOM     19  O   UNL     1       3.278   0.607  -2.369  0.00  0.00    -0.274 OA
ATOM     20  N   UNL     1       5.392   0.451  -1.716  0.00  0.00    -0.314 N 
ATOM     21  H   UNL     1       6.028   0.402  -0.985  0.00  0.00    +0.149 HD
BRANCH  20  22
ATOM     22  C   UNL     1       5.865   0.423  -3.102  0.00  0.00    +0.109 C 
BRANCH  22  23
ATOM     23  C   UNL     1       7.391   0.314  -3.118  0.00  0.00    +0.056 C 
BRANCH  23  24
ATOM     24  C   UNL     1       7.878   0.285  -4.544  0.00  0.00    -0.021 A 
ATOM     25  C   UNL     1       8.147  -0.809  -5.274  0.00  0.00    +0.087 A 
ATOM     26  N   UNL     1       8.566  -0.444  -6.525  0.00  0.00    -0.360 N 
ATOM     27  H   UNL     1       8.818  -1.060  -7.230  0.00  0.00    +0.165 HD
ATOM     28  C   UNL     1       8.578   0.929  -6.632  0.00  0.00    +0.047 A 
ATOM     29  C   UNL     1       8.141   1.446  -5.398  0.00  0.00    +0.003 A 
ATOM     30  C   UNL     1       8.057   2.826  -5.212  0.00  0.00    +0.010 A 
ATOM     31  C   UNL     1       8.390   3.670  -6.234  0.00  0.00    +0.001 A 
ATOM     32  C   UNL     1       8.815   3.166  -7.455  0.00  0.00    +0.002 A 
ATOM     33  C   UNL     1       8.910   1.806  -7.659  0.00  0.00    +0.026 A 
ENDBRANCH  23  24
ENDBRANCH  22  23
ENDBRANCH  20  22
ENDBRANCH   1  18
TORSDOF 6
