REMARK  Name = ZINC16836158
REMARK  12 active torsions:
REMARK  status: ('A' for Active; 'I' for Inactive)
REMARK    1  A    between atoms: C_1  and  C_2
REMARK    2  A    between atoms: C_2  and  C_4
REMARK    3  A    between atoms: C_2  and  O_15
REMARK    4  A    between atoms: N_6  and  C_7
REMARK    5  A    between atoms: C_8  and  C_12
REMARK    6  A    between atoms: O_15  and  C_16
REMARK    7  A    between atoms: C_16  and  C_18
REMARK    8  A    between atoms: C_20  and  S_29
REMARK    9  A    between atoms: C_23  and  N_24
REMARK   10  A    between atoms: S_29  and  N_32
REMARK   11  A    between atoms: N_32  and  C_33
REMARK   12  A    between atoms: N_32  and  C_34
REMARK                            x       y       z     vdW  Elec       q    Type
REMARK                         _______ _______ _______ _____ _____    ______ ____
ROOT
ATOM      1  C   UNL     1      -2.514   3.873  -0.216  0.00  0.00    +0.342 C 
ATOM      2  O   UNL     1      -3.556   3.254  -0.300  0.00  0.00    -0.245 OA
ENDROOT
BRANCH   1   3
ATOM      3  C   UNL     1      -1.236   3.150  -0.097  0.00  0.00    +0.082 A 
ATOM      4  C   UNL     1      -0.027   3.851  -0.111  0.00  0.00    +0.045 A 
ATOM      5  C   UNL     1       1.165   3.169   0.000  0.00  0.00    +0.106 A 
ATOM      6  C   UNL     1       1.172   1.788   0.126  0.00  0.00    +0.030 A 
ATOM      7  C   UNL     1      -0.012   1.081   0.141  0.00  0.00    +0.026 A 
ATOM      8  C   UNL     1      -1.224   1.751   0.025  0.00  0.00    +0.044 A 
BRANCH   8   9
ATOM      9  N   UNL     1      -2.417   1.041   0.034  0.00  0.00    -0.329 N 
ATOM     10  C   UNL     1      -2.403  -0.037  -0.988  0.00  0.00    +0.105 C 
ATOM     11  C   UNL     1      -3.508  -1.006  -0.496  0.00  0.00    +0.020 C 
ATOM     12  C   UNL     1      -3.345  -0.964   1.041  0.00  0.00    +0.020 C 
ATOM     13  C   UNL     1      -2.621   0.364   1.333  0.00  0.00    +0.105 C 
ENDBRANCH   8   9
BRANCH   5  14
ATOM     14  S   UNL     1       2.687   4.056  -0.017  0.00  0.00    +0.060 S 
ATOM     15  O   UNL     1       2.390   5.380   0.403  0.00  0.00    -0.153 OA
ATOM     16  O   UNL     1       3.640   3.240   0.650  0.00  0.00    -0.153 OA
BRANCH  14  17
ATOM     17  N   UNL     1       3.175   4.159  -1.596  0.00  0.00    -0.183 NA
ATOM     18  C   UNL     1       2.755   5.295  -2.420  0.00  0.00    +0.131 C 
ATOM     19  C   UNL     1       4.028   3.115  -2.169  0.00  0.00    +0.131 C 
ENDBRANCH  14  17
ENDBRANCH   5  14
ENDBRANCH   1   3
BRANCH   1  20
ATOM     20  O   UNL     1      -2.527   5.220  -0.231  0.00  0.00    -0.449 OA
BRANCH  20  22
ATOM     21  C   UNL     1      -4.402   6.107   1.045  0.00  0.00    +0.062 C 
ATOM     22  C   UNL     1      -3.822   5.866  -0.350  0.00  0.00    +0.259 C 
BRANCH  22  23
ATOM     23  C   UNL     1      -3.662   7.184  -1.062  0.00  0.00    +0.258 C 
ATOM     24  O   UNL     1      -2.565   7.544  -1.433  0.00  0.00    -0.271 OA
ATOM     25  N   UNL     1      -4.739   7.963  -1.288  0.00  0.00    -0.276 N 
ATOM     26  H   UNL     1      -5.616   7.675  -0.991  0.00  0.00    +0.155 HD
BRANCH  25  27
ATOM     27  C   UNL     1      -4.592   9.176  -1.944  0.00  0.00    +0.084 A 
ATOM     28  C   UNL     1      -5.572  10.105  -2.270  0.00  0.00    +0.065 A 
ATOM     29  C   UNL     1      -5.135  11.297  -2.957  0.00  0.00    +0.022 A 
ATOM     30  C   UNL     1      -3.822  11.401  -3.231  0.00  0.00    +0.048 A 
ATOM     31  S   UNL     1      -3.143   9.896  -2.561  0.00  0.00    -0.081 S 
BRANCH  28  32
ATOM     32  C   UNL     1      -6.982   9.888  -1.929  0.00  0.00    +0.244 C 
ATOM     33  O   UNL     1      -7.318   8.874  -1.346  0.00  0.00    -0.270 OA
ATOM     34  N   UNL     1      -7.906  10.812  -2.261  0.00  0.00    -0.325 N 
ATOM     35  H   UNL     1      -7.638  11.620  -2.725  0.00  0.00    +0.145 HD
ATOM     36  H   UNL     1      -8.838  10.668  -2.036  0.00  0.00    +0.145 HD
ENDBRANCH  28  32
ENDBRANCH  25  27
ENDBRANCH  22  23
ENDBRANCH  20  22
ENDBRANCH   1  20
TORSDOF 9
