REMARK  Name = ZINC33077332
REMARK  9 active torsions:
REMARK  status: ('A' for Active; 'I' for Inactive)
REMARK    1  A    between atoms: C_1  and  C_2
REMARK    2  A    between atoms: C_2  and  C_3
REMARK    3  A    between atoms: N_9  and  C_10
REMARK    4  A    between atoms: C_10  and  C_11
REMARK    5  A    between atoms: C_14  and  C_16
REMARK    6  A    between atoms: C_16  and  N_17
REMARK    7  A    between atoms: N_17  and  S_18
REMARK    8  A    between atoms: S_18  and  C_21
REMARK    9  A    between atoms: C_31  and  C_33
REMARK                            x       y       z     vdW  Elec       q    Type
REMARK                         _______ _______ _______ _____ _____    ______ ____
ROOT
ATOM      1  N   UNL     1       5.607  -2.338  -4.085  0.00  0.00    -0.183 NA
ATOM      2  H   UNL     1       6.472  -1.778  -3.700  0.00  0.00    +0.148 HD
ENDROOT
BRANCH   1   3
ATOM      3  S   UNL     1       4.641  -1.643  -5.237  0.00  0.00    +0.059 S 
ATOM      4  O   UNL     1       4.286  -2.675  -6.146  0.00  0.00    -0.153 OA
ATOM      5  O   UNL     1       5.297  -0.453  -5.653  0.00  0.00    -0.153 OA
BRANCH   3   6
ATOM      6  C   UNL     1       3.152  -1.143  -4.436  0.00  0.00    +0.106 A 
ATOM      7  C   UNL     1       3.056   0.121  -3.885  0.00  0.00    +0.030 A 
ATOM      8  C   UNL     1       1.891   0.511  -3.256  0.00  0.00    +0.026 A 
ATOM      9  C   UNL     1       0.816  -0.366  -3.177  0.00  0.00    +0.040 A 
ATOM     10  C   UNL     1       0.911  -1.633  -3.732  0.00  0.00    -0.024 A 
ATOM     11  C   UNL     1       2.085  -2.016  -4.360  0.00  0.00    +0.034 A 
ATOM     12  C   UNL     1      -0.234  -2.608  -3.670  0.00  0.00    +0.038 C 
ATOM     13  C   UNL     1      -1.201  -2.228  -2.548  0.00  0.00    +0.024 C 
ATOM     14  C   UNL     1      -1.580  -0.749  -2.701  0.00  0.00    +0.114 C 
ATOM     15  N   UNL     1      -0.357   0.048  -2.531  0.00  0.00    -0.271 N 
ATOM     16  C   UNL     1      -0.363   1.158  -1.768  0.00  0.00    +0.217 C 
ATOM     17  O   UNL     1       0.674   1.745  -1.542  0.00  0.00    -0.276 OA
ATOM     18  C   UNL     1      -1.659   1.672  -1.195  0.00  0.00    +0.109 C 
ENDBRANCH   3   6
ENDBRANCH   1   3
BRANCH   1  19
ATOM     19  C   UNL     1       5.190  -3.582  -3.433  0.00  0.00    +0.180 C 
BRANCH  19  23
ATOM     20  C   UNL     1       8.156  -5.403  -2.331  0.00  0.00    +0.089 A 
ATOM     21  C   UNL     1       7.881  -4.736  -1.196  0.00  0.00    +0.043 A 
ATOM     22  C   UNL     1       6.729  -3.957  -1.448  0.00  0.00    +0.046 A 
ATOM     23  C   UNL     1       6.368  -4.195  -2.722  0.00  0.00    +0.121 A 
ATOM     24  O   UNL     1       7.233  -5.076  -3.250  0.00  0.00    -0.465 OA
BRANCH  20  25
ATOM     25  C   UNL     1       9.303  -6.360  -2.535  0.00  0.00    -0.003 C 
BRANCH  25  31
ATOM     26  C   UNL     1       9.933  -8.697  -2.467  0.00  0.00    -0.068 C 
ATOM     27  C   UNL     1       9.511 -10.074  -1.951  0.00  0.00    -0.015 C 
ATOM     28  C   UNL     1       8.205 -10.492  -2.634  0.00  0.00    -0.003 C 
ATOM     29  C   UNL     1       7.134  -9.433  -2.358  0.00  0.00    -0.019 C 
ATOM     30  C   UNL     1       7.624  -8.074  -2.862  0.00  0.00    -0.078 C 
ATOM     31  N   UNL     1       8.875  -7.720  -2.179  0.00  0.00    +0.386 N 
ATOM     32  H   UNL     1       8.684  -7.743  -1.096  0.00  0.00    -0.081 HD
BRANCH  26  34
ATOM     33  C   UNL     1      12.365  -9.199  -2.193  0.00  0.00    +0.002 C 
ATOM     34  C   UNL     1      11.227  -8.267  -1.773  0.00  0.00    -0.019 C 
ENDBRANCH  26  34
ENDBRANCH  25  31
ENDBRANCH  20  25
ENDBRANCH  19  23
ENDBRANCH   1  19
TORSDOF 7
