REMARK  Name = ZINC40310061
REMARK  5 active torsions:
REMARK  status: ('A' for Active; 'I' for Inactive)
REMARK    1  A    between atoms: C_2  and  N_21
REMARK    2  A    between atoms: N_4  and  C_6
REMARK    3  A    between atoms: C_6  and  C_7
REMARK    4  A    between atoms: N_9  and  C_10
REMARK    5  A    between atoms: C_10  and  C_11
REMARK                            x       y       z     vdW  Elec       q    Type
REMARK                         _______ _______ _______ _____ _____    ______ ____
ROOT
ATOM      1  C   UNL     1       1.200  -2.558   1.140  0.00  0.00    +0.235 C 
ATOM      2  O   UNL     1       0.456  -1.982   1.906  0.00  0.00    -0.274 OA
ATOM      3  N   UNL     1       1.488  -3.860   1.332  0.00  0.00    -0.313 N 
ATOM      4  H   UNL     1       2.083  -4.321   0.720  0.00  0.00    +0.149 HD
ENDROOT
BRANCH   1   5
ATOM      5  C   UNL     1       1.802  -1.817  -0.025  0.00  0.00    +0.239 C 
BRANCH   5   9
ATOM      6  C   UNL     1      -0.016   1.304   0.009  0.00  0.00    +0.157 A 
ATOM      7  C   UNL     1       1.309   1.764  -0.001  0.00  0.00    +0.063 A 
ATOM      8  C   UNL     1       2.126   0.681  -0.015  0.00  0.00    +0.131 A 
ATOM      9  N   UNL     1       1.337  -0.427  -0.013  0.00  0.00    -0.261 N 
ATOM     10  N   UNL     1       0.002  -0.004   0.002  0.00  0.00    -0.177 NA
BRANCH   7  11
ATOM     11  N   UNL     1       1.719   3.111   0.002  0.00  0.00    -0.356 N 
ATOM     12  H   UNL     1       1.056   3.820   0.012  0.00  0.00    +0.142 HD
ATOM     13  H   UNL     1       2.664   3.331  -0.006  0.00  0.00    +0.142 HD
ENDBRANCH   7  11
ENDBRANCH   5   9
ENDBRANCH   1   5
BRANCH   3  14
ATOM     14  C   UNL     1       0.903  -4.581   2.465  0.00  0.00    +0.111 C 
BRANCH  14  15
ATOM     15  C   UNL     1       1.388  -6.032   2.452  0.00  0.00    -0.013 C 
ATOM     16  C   UNL     1       0.958  -6.702   1.145  0.00  0.00    +0.012 C 
ATOM     17  C   UNL     1       1.444  -8.153   1.133  0.00  0.00    -0.010 C 
ATOM     18  C   UNL     1       0.832  -8.905   2.316  0.00  0.00    +0.007 C 
ATOM     19  C   UNL     1       1.262  -8.236   3.623  0.00  0.00    -0.010 C 
ATOM     20  C   UNL     1       0.776  -6.785   3.636  0.00  0.00    +0.012 C 
ATOM     21  C   UNL     1       2.787  -8.264   3.734  0.00  0.00    +0.007 C 
ATOM     22  C   UNL     1       3.399  -7.512   2.550  0.00  0.00    -0.010 C 
ATOM     23  C   UNL     1       2.969  -8.181   1.243  0.00  0.00    +0.007 C 
ATOM     24  C   UNL     1       2.913  -6.061   2.563  0.00  0.00    +0.012 C 
ENDBRANCH  14  15
ENDBRANCH   3  14
TORSDOF 5
