REMARK  Name = ZINC39034860
REMARK  8 active torsions:
REMARK  status: ('A' for Active; 'I' for Inactive)
REMARK    1  A    between atoms: C_1  and  C_2
REMARK    2  A    between atoms: C_2  and  C_4
REMARK    3  A    between atoms: C_2  and  N_21
REMARK    4  A    between atoms: C_22  and  C_24
REMARK    5  A    between atoms: C_27  and  C_30
REMARK    6  A    between atoms: C_30  and  C_31
REMARK    7  A    between atoms: C_30  and  C_32
REMARK    8  A    between atoms: C_30  and  C_33
REMARK                            x       y       z     vdW  Elec       q    Type
REMARK                         _______ _______ _______ _____ _____    ______ ____
ROOT
ATOM      1  C   UNL     1      -1.405  -0.526   0.137  0.00  0.00    +0.236 C 
ATOM      2  O   UNL     1      -1.838  -0.828   1.228  0.00  0.00    -0.274 OA
ATOM      3  N   UNL     1      -2.182  -0.659  -0.957  0.00  0.00    -0.300 N 
ATOM      4  C   UNL     1      -1.636  -0.410  -2.298  0.00  0.00    +0.106 C 
ATOM      5  C   UNL     1      -1.907  -1.636  -3.176  0.00  0.00    +0.009 C 
ATOM      6  C   UNL     1      -3.402  -1.956  -3.153  0.00  0.00    -0.037 C 
ATOM      7  C   UNL     1      -3.841  -2.276  -1.724  0.00  0.00    +0.009 C 
ATOM      8  C   UNL     1      -3.589  -1.063  -0.831  0.00  0.00    +0.106 C 
ATOM      9  C   UNL     1      -3.687  -3.154  -4.060  0.00  0.00    +0.140 C 
ATOM     10  C   UNL     1      -5.205  -3.305  -4.082  0.00  0.00    +0.042 C 
ATOM     11  N   UNL     1      -5.447  -4.500  -3.705  0.00  0.00    -0.243 NA
ATOM     12  C   UNL     1      -4.313  -5.150  -3.341  0.00  0.00    +0.216 C 
ATOM     13  N   UNL     1      -3.227  -4.423  -3.494  0.00  0.00    -0.264 NA
ATOM     14  C   UNL     1      -6.107  -2.135  -4.382  0.00  0.00    +0.034 C 
ATOM     15  C   UNL     1      -5.606  -0.978  -3.497  0.00  0.00    -0.076 C 
ATOM     16  N   UNL     1      -4.161  -0.802  -3.656  0.00  0.00    +0.385 N 
ATOM     17  H   UNL     1      -3.874   0.024  -3.152  0.00  0.00    -0.085 HD
ATOM     18  H   UNL     1      -3.953  -0.674  -4.635  0.00  0.00    -0.085 HD
ENDROOT
BRANCH   1  20
ATOM     19  C   UNL     1      -0.033   1.518  -0.163  0.00  0.00    +0.038 C 
ATOM     20  C   UNL     1       0.002  -0.003   0.002  0.00  0.00    +0.156 C 
BRANCH  20  21
ATOM     21  N   UNL     1       0.767  -0.346   1.203  0.00  0.00    -0.300 N 
ATOM     22  C   UNL     1       2.109  -0.452   1.140  0.00  0.00    +0.245 C 
ATOM     23  O   UNL     1       2.685  -0.262   0.086  0.00  0.00    -0.270 OA
ATOM     24  H   UNL     1       0.308  -0.498   2.044  0.00  0.00    +0.150 HD
BRANCH  22  25
ATOM     25  C   UNL     1       2.882  -0.798   2.352  0.00  0.00    +0.037 A 
ATOM     26  C   UNL     1       2.224  -1.022   3.562  0.00  0.00    +0.013 A 
ATOM     27  C   UNL     1       2.950  -1.346   4.689  0.00  0.00    +0.005 A 
ATOM     28  C   UNL     1       4.329  -1.448   4.622  0.00  0.00    -0.042 A 
ATOM     29  C   UNL     1       4.987  -1.226   3.425  0.00  0.00    +0.005 A 
ATOM     30  C   UNL     1       4.272  -0.908   2.289  0.00  0.00    +0.013 A 
BRANCH  28  31
ATOM     31  C   UNL     1       5.116  -1.801   5.857  0.00  0.00    -0.013 C 
ATOM     32  C   UNL     1       4.667  -3.169   6.374  0.00  0.00    +0.015 C 
ATOM     33  C   UNL     1       6.607  -1.849   5.516  0.00  0.00    +0.015 C 
ATOM     34  C   UNL     1       4.874  -0.743   6.936  0.00  0.00    +0.015 C 
ENDBRANCH  28  31
ENDBRANCH  22  25
ENDBRANCH  20  21
ENDBRANCH   1  20
TORSDOF 4
