REMARK  Name = ZINC04874010
REMARK  12 active torsions:
REMARK  status: ('A' for Active; 'I' for Inactive)
REMARK    1  A    between atoms: C_1  and  C_2
REMARK    2  A    between atoms: C_2  and  C_3
REMARK    3  A    between atoms: C_3  and  C_4
REMARK    4  A    between atoms: N_6  and  C_7
REMARK    5  A    between atoms: C_10  and  C_13
REMARK    6  A    between atoms: C_15  and  C_23
REMARK    7  A    between atoms: C_16  and  C_22
REMARK    8  A    between atoms: N_17  and  C_21
REMARK    9  A    between atoms: C_23  and  O_25
REMARK   10  A    between atoms: O_25  and  C_26
REMARK   11  A    between atoms: C_26  and  C_27
REMARK   12  A    between atoms: C_26  and  C_28
REMARK                            x       y       z     vdW  Elec       q    Type
REMARK                         _______ _______ _______ _____ _____    ______ ____
ROOT
ATOM      1  C   UNL     1       0.953   3.145  -0.537  0.00  0.00    +0.143 C 
ATOM      2  C   UNL     1       0.780   1.761  -1.129  0.00  0.00    +0.078 C 
ATOM      3  C   UNL     1       1.886   1.001  -1.285  0.00  0.00    +0.024 C 
ATOM      4  N   UNL     1       3.116   1.464  -0.915  0.00  0.00    -0.262 N 
ATOM      5  C   UNL     1       3.325   2.674  -0.383  0.00  0.00    +0.307 C 
ATOM      6  O   UNL     1       4.458   2.998  -0.085  0.00  0.00    -0.252 OA
ATOM      7  N   UNL     1       2.320   3.546  -0.167  0.00  0.00    -0.288 N 
ATOM      8  C   UNL     1       4.272   0.586  -1.112  0.00  0.00    +0.139 C 
ATOM      9  C   UNL     1       1.759  -0.380  -1.876  0.00  0.00    +0.061 C 
ATOM     10  H   UNL     1       2.494   4.419   0.219  0.00  0.00    +0.151 HD
ENDROOT
BRANCH   1  14
ATOM     11  C   UNL     1      -1.474   3.387   2.973  0.00  0.00    +0.033 A 
ATOM     12  C   UNL     1      -1.921   3.937   1.778  0.00  0.00    +0.023 A 
ATOM     13  C   UNL     1      -1.134   3.857   0.646  0.00  0.00    +0.007 A 
ATOM     14  C   UNL     1       0.097   3.230   0.701  0.00  0.00    -0.022 A 
ATOM     15  C   UNL     1       0.543   2.677   1.887  0.00  0.00    +0.007 A 
ATOM     16  C   UNL     1      -0.237   2.758   3.024  0.00  0.00    +0.023 A 
BRANCH  11  19
ATOM     17  C   UNL     1      -1.692   3.575   5.334  0.00  0.00    +0.217 C 
ATOM     18  O   UNL     1      -0.489   3.705   5.424  0.00  0.00    -0.275 OA
ATOM     19  N   UNL     1      -2.269   3.466   4.121  0.00  0.00    -0.285 N 
ATOM     20  H   UNL     1      -3.236   3.442   4.045  0.00  0.00    +0.155 HD
BRANCH  17  21
ATOM     21  C   UNL     1      -2.540   3.535   6.579  0.00  0.00    +0.096 C 
BRANCH  21  23
ATOM     22  C   UNL     1      -2.506   3.638   9.075  0.00  0.00    +0.004 C 
ATOM     23  C   UNL     1      -1.644   3.679   7.811  0.00  0.00    +0.006 C 
ENDBRANCH  21  23
ENDBRANCH  17  21
ENDBRANCH  11  19
ENDBRANCH   1  14
BRANCH   2  24
ATOM     24  C   UNL     1      -0.495   1.283  -1.512  0.00  0.00    +0.339 C 
ATOM     25  O   UNL     1      -0.599   0.208  -2.073  0.00  0.00    -0.245 OA
BRANCH  24  26
ATOM     26  O   UNL     1      -1.596   2.022  -1.261  0.00  0.00    -0.459 OA
BRANCH  26  27
ATOM     27  C   UNL     1      -2.850   1.481  -1.680  0.00  0.00    +0.171 C 
ATOM     28  C   UNL     1      -3.444   0.635  -0.551  0.00  0.00    +0.052 C 
ATOM     29  C   UNL     1      -3.810   2.623  -2.020  0.00  0.00    +0.052 C 
ENDBRANCH  26  27
ENDBRANCH  24  26
ENDBRANCH   2  24
TORSDOF 7
