REMARK  Name = ZINC35745933
REMARK  14 active torsions:
REMARK  status: ('A' for Active; 'I' for Inactive)
REMARK    1  A    between atoms: C_1  and  C_2
REMARK    2  A    between atoms: C_2  and  C_3
REMARK    3  A    between atoms: C_3  and  C_4
REMARK    4  A    between atoms: C_4  and  C_6
REMARK    5  A    between atoms: C_4  and  O_36
REMARK    6  A    between atoms: C_6  and  N_7
REMARK    7  A    between atoms: N_7  and  C_8
REMARK    8  A    between atoms: N_7  and  C_30
REMARK    9  A    between atoms: C_8  and  C_9
REMARK   10  A    between atoms: C_15  and  C_20
REMARK   11  A    between atoms: C_23  and  O_28
REMARK   12  A    between atoms: C_24  and  O_26
REMARK   13  A    between atoms: O_26  and  C_27
REMARK   14  A    between atoms: O_28  and  C_29
REMARK                            x       y       z     vdW  Elec       q    Type
REMARK                         _______ _______ _______ _____ _____    ______ ____
ROOT
ATOM      1  C   UNL     1       2.373  -6.003   3.539  0.00  0.00    +0.094 A 
ATOM      2  N   UNL     1       2.944  -6.670   4.575  0.00  0.00    -0.312 N 
ATOM      3  H   UNL     1       3.348  -6.166   5.299  0.00  0.00    +0.170 HD
ATOM      4  C   UNL     1       2.961  -8.015   4.617  0.00  0.00    +0.260 A 
ATOM      5  O   UNL     1       3.478  -8.598   5.554  0.00  0.00    -0.267 OA
ATOM      6  C   UNL     1       2.362  -8.750   3.545  0.00  0.00    +0.080 A 
ATOM      7  C   UNL     1       2.254 -10.192   3.363  0.00  0.00    +0.004 A 
ATOM      8  C   UNL     1       1.636 -10.665   2.254  0.00  0.00    +0.056 A 
ATOM      9  S   UNL     1       1.160  -9.183   1.384  0.00  0.00    -0.076 S 
ATOM     10  C   UNL     1       1.796  -7.976   2.518  0.00  0.00    +0.116 A 
ATOM     11  N   UNL     1       1.814  -6.646   2.549  0.00  0.00    -0.229 NA
ENDROOT
BRANCH   7  12
ATOM     12  C   UNL     1       2.810 -11.125   4.372  0.00  0.00    -0.013 A 
ATOM     13  C   UNL     1       4.118 -10.962   4.828  0.00  0.00    +0.012 A 
ATOM     14  C   UNL     1       4.635 -11.830   5.768  0.00  0.00    +0.050 A 
ATOM     15  C   UNL     1       3.857 -12.866   6.261  0.00  0.00    +0.162 A 
ATOM     16  C   UNL     1       2.550 -13.034   5.810  0.00  0.00    +0.162 A 
ATOM     17  C   UNL     1       2.025 -12.163   4.872  0.00  0.00    +0.058 A 
BRANCH  16  18
ATOM     18  O   UNL     1       1.788 -14.051   6.295  0.00  0.00    -0.491 OA
ATOM     19  C   UNL     1       0.457 -14.163   5.787  0.00  0.00    +0.277 C 
ENDBRANCH  16  18
BRANCH  15  20
ATOM     20  O   UNL     1       4.370 -13.721   7.186  0.00  0.00    -0.491 OA
ATOM     21  C   UNL     1       5.717 -13.491   7.604  0.00  0.00    +0.277 C 
ENDBRANCH  15  20
ENDBRANCH   7  12
BRANCH   1  22
ATOM     22  C   UNL     1       2.377  -4.497   3.535  0.00  0.00    -0.003 C 
BRANCH  22  23
ATOM     23  N   UNL     1       1.560  -4.007   2.416  0.00  0.00    +0.388 N 
ATOM     24  H   UNL     1       1.681  -4.616   1.620  0.00  0.00    -0.081 HD
BRANCH  23  25
ATOM     25  C   UNL     1       0.145  -3.994   2.812  0.00  0.00    -0.068 C 
ATOM     26  C   UNL     1      -0.269  -5.393   3.271  0.00  0.00    -0.015 C 
ATOM     27  C   UNL     1      -1.742  -5.379   3.683  0.00  0.00    -0.002 C 
ATOM     28  C   UNL     1      -1.942  -4.386   4.830  0.00  0.00    -0.000 C 
ATOM     29  C   UNL     1      -1.527  -2.987   4.371  0.00  0.00    -0.002 C 
ATOM     30  C   UNL     1      -0.054  -3.001   3.959  0.00  0.00    -0.015 C 
ENDBRANCH  23  25
BRANCH  23  31
ATOM     31  C   UNL     1       1.982  -2.646   2.060  0.00  0.00    -0.046 C 
BRANCH  31  32
ATOM     32  C   UNL     1       1.270  -2.210   0.778  0.00  0.00    +0.098 C 
BRANCH  32  33
ATOM     33  O   UNL     1      -0.123  -2.034   1.044  0.00  0.00    -0.394 OA
ATOM     34  H   UNL     1      -0.319  -1.311   1.655  0.00  0.00    +0.210 HD
ENDBRANCH  32  33
BRANCH  32  35
ATOM     35  C   UNL     1       1.866  -0.889   0.288  0.00  0.00    +0.029 C 
BRANCH  35  37
ATOM     36  C   UNL     1       1.837   0.804  -1.549  0.00  0.00    +0.004 C 
ATOM     37  C   UNL     1       1.241  -0.516  -1.058  0.00  0.00    -0.001 C 
ENDBRANCH  35  37
ENDBRANCH  32  35
ENDBRANCH  31  32
ENDBRANCH  23  31
ENDBRANCH  22  23
ENDBRANCH   1  22
TORSDOF 11
