REMARK  Name = ZINC43166905
REMARK  4 active torsions:
REMARK  status: ('A' for Active; 'I' for Inactive)
REMARK    1  A    between atoms: C_3  and  C_6
REMARK    2  A    between atoms: C_6  and  C_8
REMARK    3  A    between atoms: C_6  and  N_21
REMARK    4  A    between atoms: C_8  and  N_9
REMARK                            x       y       z     vdW  Elec       q    Type
REMARK                         _______ _______ _______ _____ _____    ______ ____
ROOT
ATOM      1  C   UNL     1       4.008   0.399   1.429  0.00  0.00    +0.098 C 
ENDROOT
BRANCH   1   2
ATOM      2  N   UNL     1       5.432   0.059   1.482  0.00  0.00    -0.300 N 
ATOM      3  C   UNL     1       5.994  -0.307   2.651  0.00  0.00    +0.302 C 
ATOM      4  O   UNL     1       5.342  -0.272   3.677  0.00  0.00    -0.253 OA
ATOM      5  N   UNL     1       7.279  -0.713   2.683  0.00  0.00    -0.281 N 
ATOM      6  C   UNL     1       7.869  -1.225   3.929  0.00  0.00    +0.115 C 
ATOM      7  C   UNL     1       8.225  -2.705   3.723  0.00  0.00    +0.062 C 
ATOM      8  C   UNL     1       8.859  -2.862   2.379  0.00  0.00    -0.004 A 
ATOM      9  C   UNL     1       8.838  -1.988   1.337  0.00  0.00    -0.020 A 
ATOM     10  C   UNL     1       9.506  -2.379   0.178  0.00  0.00    +0.013 A 
ATOM     11  C   UNL     1      10.138  -3.574   0.132  0.00  0.00    +0.046 A 
ATOM     12  S   UNL     1       9.813  -4.225   1.764  0.00  0.00    -0.101 S 
ATOM     13  C   UNL     1       8.109  -0.657   1.472  0.00  0.00    +0.145 C 
ATOM     14  H   UNL     1       5.971   0.098   0.676  0.00  0.00    +0.150 HD
ENDBRANCH   1   2
BRANCH   1  15
ATOM     15  C   UNL     1       3.600   0.658  -0.023  0.00  0.00    +0.016 C 
BRANCH  15  16
ATOM     16  N   UNL     1       2.149   0.875  -0.092  0.00  0.00    +0.387 N 
ATOM     17  C   UNL     1       1.709   0.950  -1.508  0.00  0.00    -0.078 C 
ATOM     18  C   UNL     1       0.199   0.610  -1.430  0.00  0.00    -0.020 C 
ATOM     19  C   UNL     1       0.147  -0.478  -0.333  0.00  0.00    -0.020 C 
ATOM     20  C   UNL     1       1.432  -0.280   0.492  0.00  0.00    -0.078 C 
ATOM     21  H   UNL     1       1.899   1.722   0.396  0.00  0.00    -0.081 HD
ENDBRANCH  15  16
BRANCH  15  24
ATOM     22  C   UNL     1       5.745   3.235  -1.552  0.00  0.00    +0.041 A 
ATOM     23  C   UNL     1       5.416   1.882  -1.309  0.00  0.00    +0.043 A 
ATOM     24  C   UNL     1       4.316   1.881  -0.535  0.00  0.00    +0.093 A 
ATOM     25  O   UNL     1       3.963   3.155  -0.297  0.00  0.00    -0.469 OA
ATOM     26  C   UNL     1       4.826   3.980  -0.911  0.00  0.00    +0.195 A 
ENDBRANCH  15  24
ENDBRANCH   1  15
TORSDOF 4
