REMARK  Name = ZINC39597538
REMARK  5 active torsions:
REMARK  status: ('A' for Active; 'I' for Inactive)
REMARK    1  A    between atoms: C_7  and  C_10
REMARK    2  A    between atoms: C_10  and  C_11
REMARK    3  A    between atoms: C_11  and  N_12
REMARK    4  A    between atoms: C_13  and  C_15
REMARK    5  A    between atoms: C_26  and  C_28
REMARK                            x       y       z     vdW  Elec       q    Type
REMARK                         _______ _______ _______ _____ _____    ______ ____
ROOT
ATOM      1  C   UNL     1      -5.925   7.708  -2.244  0.00  0.00    +0.100 C 
ATOM      2  C   UNL     1      -4.786   8.359  -1.427  0.00  0.00    +0.121 C 
ATOM      3  N   UNL     1      -3.867   8.919  -2.446  0.00  0.00    -0.296 N 
ATOM      4  C   UNL     1      -4.765   9.467  -3.491  0.00  0.00    +0.115 C 
ATOM      5  C   UNL     1      -5.910   8.440  -3.596  0.00  0.00    -0.004 C 
ATOM      6  C   UNL     1      -7.239   9.153  -3.826  0.00  0.00    -0.010 C 
ATOM      7  C   UNL     1      -7.222   9.825  -5.202  0.00  0.00    -0.082 C 
ATOM      8  N   UNL     1      -7.001   8.812  -6.240  0.00  0.00    +0.379 N 
ATOM      9  C   UNL     1      -5.680   8.197  -6.067  0.00  0.00    -0.082 C 
ATOM     10  C   UNL     1      -5.632   7.455  -4.728  0.00  0.00    -0.010 C 
ATOM     11  C   UNL     1      -2.520   8.928  -2.428  0.00  0.00    +0.247 C 
ATOM     12  O   UNL     1      -1.920   8.324  -1.559  0.00  0.00    -0.270 OA
ATOM     13  H   UNL     1      -7.714   8.101  -6.172  0.00  0.00    -0.086 HD
ATOM     14  H   UNL     1      -7.051   9.248  -7.149  0.00  0.00    -0.086 HD
ENDROOT
BRANCH  11  15
ATOM     15  C   UNL     1      -1.771   9.670  -3.463  0.00  0.00    +0.038 A 
ATOM     16  C   UNL     1      -2.394  10.693  -4.180  0.00  0.00    +0.014 A 
ATOM     17  C   UNL     1      -1.692  11.383  -5.145  0.00  0.00    +0.022 A 
ATOM     18  C   UNL     1      -0.369  11.063  -5.404  0.00  0.00    +0.059 A 
ATOM     19  C   UNL     1       0.256  10.048  -4.696  0.00  0.00    +0.060 A 
ATOM     20  C   UNL     1      -0.436   9.355  -3.724  0.00  0.00    +0.034 A 
ATOM     21 CL   UNL     1       1.913   9.654  -5.028  0.00  0.00    -0.082 Cl
ATOM     22 CL   UNL     1       0.509  11.935  -6.622  0.00  0.00    -0.082 Cl
ENDBRANCH  11  15
BRANCH   1  24
ATOM     23  N   UNL     1      -6.676   5.392  -2.683  0.00  0.00    -0.315 N 
ATOM     24  C   UNL     1      -5.655   6.238  -2.440  0.00  0.00    +0.218 C 
ATOM     25  O   UNL     1      -4.519   5.817  -2.381  0.00  0.00    -0.275 OA
ATOM     26  H   UNL     1      -7.584   5.729  -2.731  0.00  0.00    +0.149 HD
BRANCH  23  27
ATOM     27  C   UNL     1      -6.414   3.964  -2.874  0.00  0.00    +0.109 C 
BRANCH  27  28
ATOM     28  C   UNL     1      -7.733   3.233  -3.131  0.00  0.00    +0.056 C 
BRANCH  28  35
ATOM     29  C   UNL     1      -7.234  -0.361  -0.163  0.00  0.00    +0.001 A 
ATOM     30  C   UNL     1      -6.990  -1.566  -0.808  0.00  0.00    +0.002 A 
ATOM     31  C   UNL     1      -6.915  -1.624  -2.183  0.00  0.00    +0.026 A 
ATOM     32  C   UNL     1      -7.086  -0.466  -2.934  0.00  0.00    +0.047 A 
ATOM     33  N   UNL     1      -7.069  -0.200  -4.285  0.00  0.00    -0.360 N 
ATOM     34  C   UNL     1      -7.296   1.132  -4.500  0.00  0.00    +0.087 A 
ATOM     35  C   UNL     1      -7.463   1.763  -3.328  0.00  0.00    -0.021 A 
ATOM     36  C   UNL     1      -7.333   0.753  -2.275  0.00  0.00    +0.003 A 
ATOM     37  C   UNL     1      -7.410   0.788  -0.881  0.00  0.00    +0.010 A 
ATOM     38  H   UNL     1      -6.919  -0.859  -4.980  0.00  0.00    +0.165 HD
ENDBRANCH  28  35
ENDBRANCH  27  28
ENDBRANCH  23  27
ENDBRANCH   1  24
TORSDOF 5
