REMARK  Name = ZINC09138409
REMARK  8 active torsions:
REMARK  status: ('A' for Active; 'I' for Inactive)
REMARK    1  A    between atoms: C_1  and  C_2
REMARK    2  A    between atoms: C_4  and  N_12
REMARK    3  A    between atoms: C_13  and  C_15
REMARK    4  A    between atoms: N_17  and  C_18
REMARK    5  A    between atoms: C_18  and  C_19
REMARK    6  A    between atoms: C_19  and  C_21
REMARK    7  A    between atoms: C_19  and  N_71
REMARK    8  A    between atoms: N_30  and  C_31
REMARK                            x       y       z     vdW  Elec       q    Type
REMARK                         _______ _______ _______ _____ _____    ______ ____
ROOT
ATOM      1  C   UNL     1      -8.082   2.083   0.014  0.00  0.00    +0.094 C 
ENDROOT
BRANCH   1   4
ATOM      2  C   UNL     1      -8.389   1.298   2.300  0.00  0.00    +0.299 C 
ATOM      3  O   UNL     1      -7.568   2.116   2.660  0.00  0.00    -0.265 OA
ATOM      4  N   UNL     1      -8.717   1.201   0.997  0.00  0.00    -0.309 N 
ATOM      5  H   UNL     1      -9.374   0.548   0.709  0.00  0.00    +0.149 HD
BRANCH   2   7
ATOM      6  N   UNL     1      -8.709   0.497   4.606  0.00  0.00    -0.277 N 
ATOM      7  C   UNL     1      -9.037   0.400   3.302  0.00  0.00    +0.303 C 
ATOM      8  O   UNL     1      -9.858  -0.418   2.942  0.00  0.00    -0.265 OA
ATOM      9  H   UNL     1      -8.107   1.196   4.904  0.00  0.00    +0.155 HD
BRANCH   6  13
ATOM     10  C   UNL     1     -12.375  -2.415   6.093  0.00  0.00    +0.065 C 
ATOM     11  C   UNL     1     -10.995  -1.841   6.289  0.00  0.00    +0.041 A 
ATOM     12  C   UNL     1     -10.497  -0.946   5.352  0.00  0.00    +0.047 A 
ATOM     13  C   UNL     1      -9.233  -0.406   5.523  0.00  0.00    +0.045 A 
ATOM     14  C   UNL     1      -8.489  -0.808   6.658  0.00  0.00    +0.022 A 
ATOM     15  C   UNL     1      -7.200  -0.313   6.898  0.00  0.00    +0.012 A 
ATOM     16  C   UNL     1      -6.516  -0.724   8.003  0.00  0.00    +0.001 A 
ATOM     17  C   UNL     1      -7.082  -1.631   8.896  0.00  0.00    +0.002 A 
ATOM     18  C   UNL     1      -8.331  -2.131   8.692  0.00  0.00    +0.028 A 
ATOM     19  C   UNL     1      -9.067  -1.730   7.563  0.00  0.00    +0.073 A 
ATOM     20  N   UNL     1     -10.297  -2.206   7.338  0.00  0.00    -0.252 NA
ENDBRANCH   6  13
ENDBRANCH   2   7
ENDBRANCH   1   4
BRANCH   1  21
ATOM     21  C   UNL     1      -8.719   1.859  -1.359  0.00  0.00    -0.020 C 
BRANCH  21  22
ATOM     22  C   UNL     1     -10.162   2.293  -1.319  0.00  0.00    -0.059 A 
ATOM     23  C   UNL     1     -10.486   3.633  -1.426  0.00  0.00    +0.004 A 
ATOM     24  C   UNL     1     -11.806   4.027  -1.387  0.00  0.00    +0.023 A 
ATOM     25  C   UNL     1     -12.822   3.081  -1.241  0.00  0.00    +0.033 A 
ATOM     26  C   UNL     1     -12.493   1.741  -1.140  0.00  0.00    -0.026 A 
ATOM     27  C   UNL     1     -11.163   1.352  -1.183  0.00  0.00    +0.007 A 
ATOM     28  C   UNL     1     -13.543   0.669  -0.991  0.00  0.00    +0.038 C 
ATOM     29  C   UNL     1     -14.873   1.304  -0.583  0.00  0.00    +0.024 C 
ATOM     30  C   UNL     1     -15.123   2.507  -1.501  0.00  0.00    +0.105 C 
ATOM     31  N   UNL     1     -14.136   3.545  -1.194  0.00  0.00    -0.333 N 
ATOM     32  C   UNL     1     -14.313   4.714  -2.064  0.00  0.00    +0.129 C 
ENDBRANCH  21  22
BRANCH  21  38
ATOM     33  C   UNL     1      -8.654   2.551  -3.678  0.00  0.00    -0.078 C 
ATOM     34  C   UNL     1      -7.965   3.495  -4.665  0.00  0.00    -0.019 C 
ATOM     35  C   UNL     1      -6.487   3.113  -4.783  0.00  0.00    -0.004 C 
ATOM     36  C   UNL     1      -5.839   3.175  -3.397  0.00  0.00    -0.019 C 
ATOM     37  C   UNL     1      -6.590   2.240  -2.446  0.00  0.00    -0.078 C 
ATOM     38  N   UNL     1      -8.000   2.676  -2.358  0.00  0.00    +0.385 N 
ATOM     39  H   UNL     1      -8.026   3.660  -2.066  0.00  0.00    -0.081 HD
ENDBRANCH  21  38
ENDBRANCH   1  21
TORSDOF 6
