REMARK  Name = ZINC00695772
REMARK  6 active torsions:
REMARK  status: ('A' for Active; 'I' for Inactive)
REMARK    1  A    between atoms: C_2  and  C_17
REMARK    2  A    between atoms: C_4  and  C_6
REMARK    3  A    between atoms: N_8  and  N_9
REMARK    4  A    between atoms: C_10  and  C_11
REMARK    5  A    between atoms: N_19  and  N_20
REMARK    6  A    between atoms: C_21  and  C_22
REMARK                            x       y       z     vdW  Elec       q    Type
REMARK                         _______ _______ _______ _____ _____    ______ ____
ROOT
ATOM      1  C   UNL     1      -0.017   1.396   0.010  0.00  0.00    +0.055 A 
ATOM      2  C   UNL     1       1.285   1.812  -0.001  0.00  0.00    +0.192 A 
ATOM      3  O   UNL     1       2.077   0.724  -0.014  0.00  0.00    -0.445 OA
ATOM      4  C   UNL     1       1.314  -0.384  -0.013  0.00  0.00    +0.192 A 
ATOM      5  C   UNL     1       0.002  -0.004   0.002  0.00  0.00    +0.055 A 
ENDROOT
BRANCH   4   6
ATOM      6  C   UNL     1       1.809  -1.770  -0.025  0.00  0.00    +0.299 C 
ATOM      7  O   UNL     1       1.022  -2.697  -0.023  0.00  0.00    -0.265 OA
ATOM      8  N   UNL     1       3.135  -2.012  -0.040  0.00  0.00    -0.201 N 
ATOM      9  H   UNL     1       3.763  -1.273  -0.041  0.00  0.00    +0.178 HD
BRANCH   8  10
ATOM     10  N   UNL     1       3.606  -3.332  -0.052  0.00  0.00    -0.192 NA
ATOM     11  C   UNL     1       4.865  -3.562  -0.066  0.00  0.00    +0.106 C 
BRANCH  11  12
ATOM     12  C   UNL     1       5.372  -4.981  -0.079  0.00  0.00    +0.032 C 
ATOM     13  C   UNL     1       6.211  -5.211  -1.337  0.00  0.00    +0.009 C 
ATOM     14  C   UNL     1       6.725  -6.652  -1.351  0.00  0.00    +0.001 C 
ATOM     15  C   UNL     1       7.588  -6.897  -0.111  0.00  0.00    +0.000 C 
ATOM     16  C   UNL     1       6.750  -6.667   1.147  0.00  0.00    +0.001 C 
ATOM     17  C   UNL     1       6.235  -5.226   1.161  0.00  0.00    +0.009 C 
ENDBRANCH  11  12
ENDBRANCH   8  10
ENDBRANCH   4   6
BRANCH   2  18
ATOM     18  C   UNL     1       1.742   3.211   0.002  0.00  0.00    +0.299 C 
ATOM     19  O   UNL     1       0.929   4.116   0.014  0.00  0.00    -0.265 OA
ATOM     20  N   UNL     1       3.061   3.489  -0.009  0.00  0.00    -0.201 N 
ATOM     21  H   UNL     1       3.708   2.767  -0.019  0.00  0.00    +0.178 HD
BRANCH  20  22
ATOM     22  N   UNL     1       3.496   4.820  -0.007  0.00  0.00    -0.192 NA
ATOM     23  C   UNL     1       4.748   5.085  -0.017  0.00  0.00    +0.106 C 
BRANCH  23  24
ATOM     24  C   UNL     1       5.216   6.517  -0.015  0.00  0.00    +0.032 C 
ATOM     25  C   UNL     1       6.049   6.784  -1.271  0.00  0.00    +0.009 C 
ATOM     26  C   UNL     1       6.524   8.238  -1.268  0.00  0.00    +0.001 C 
ATOM     27  C   UNL     1       7.379   8.493  -0.026  0.00  0.00    +0.000 C 
ATOM     28  C   UNL     1       6.547   8.226   1.230  0.00  0.00    +0.001 C 
ATOM     29  C   UNL     1       6.072   6.772   1.228  0.00  0.00    +0.009 C 
ENDBRANCH  23  24
ENDBRANCH  20  22
ENDBRANCH   2  18
TORSDOF 6
