REMARK  Name = ZINC39776593
REMARK  11 active torsions:
REMARK  status: ('A' for Active; 'I' for Inactive)
REMARK    1  A    between atoms: C_1  and  C_2
REMARK    2  A    between atoms: C_2  and  C_3
REMARK    3  A    between atoms: C_3  and  N_4
REMARK    4  A    between atoms: N_4  and  C_5
REMARK    5  A    between atoms: N_4  and  C_8
REMARK    6  A    between atoms: C_5  and  C_6
REMARK    7  A    between atoms: C_6  and  C_7
REMARK    8  A    between atoms: C_8  and  C_9
REMARK    9  A    between atoms: C_9  and  S_10
REMARK   10  A    between atoms: S_10  and  C_11
REMARK   11  A    between atoms: C_18  and  N_23
REMARK                            x       y       z     vdW  Elec       q    Type
REMARK                         _______ _______ _______ _____ _____    ______ ____
ROOT
ATOM      1  C   UNL     1       2.305  -6.464  -3.876  0.00  0.00    +0.207 C 
ATOM      2  N   UNL     1       1.505  -6.975  -2.967  0.00  0.00    -0.227 NA
ATOM      3  C   UNL     1       1.436  -8.421  -2.862  0.00  0.00    +0.252 C 
ATOM      4  C   UNL     1       1.765  -9.008  -4.223  0.00  0.00    +0.117 C 
ATOM      5  C   UNL     1       0.856 -10.014  -4.403  0.00  0.00    +0.027 A 
ATOM      6  C   UNL     1       0.726 -11.003  -5.399  0.00  0.00    +0.034 A 
ATOM      7  C   UNL     1      -0.340 -11.874  -5.291  0.00  0.00    +0.025 A 
ATOM      8  C   UNL     1      -1.289 -11.825  -4.252  0.00  0.00    +0.025 A 
ATOM      9  C   UNL     1      -1.246 -10.918  -3.245  0.00  0.00    +0.028 A 
ATOM     10  C   UNL     1      -0.131  -9.953  -3.279  0.00  0.00    +0.046 A 
ATOM     11  N   UNL     1       0.169  -9.003  -2.468  0.00  0.00    -0.358 N 
ATOM     12  N   UNL     1       2.646  -8.440  -5.040  0.00  0.00    -0.147 NA
ATOM     13  N   UNL     1       2.963  -7.211  -4.793  0.00  0.00    -0.122 NA
ATOM     14  H   UNL     1      -0.370  -8.728  -1.709  0.00  0.00    +0.162 HD
ENDROOT
BRANCH   7  15
ATOM     15  N   UNL     1      -0.483 -12.854  -6.262  0.00  0.00    -0.358 N 
ATOM     16  H   UNL     1       0.155 -12.913  -6.990  0.00  0.00    +0.142 HD
ATOM     17  H   UNL     1      -1.222 -13.480  -6.213  0.00  0.00    +0.142 HD
ENDBRANCH   7  15
BRANCH   1  18
ATOM     18  S   UNL     1       2.525  -4.716  -3.908  0.00  0.00    -0.087 S 
BRANCH  18  19
ATOM     19  C   UNL     1       1.488  -4.118  -2.545  0.00  0.00    +0.059 C 
BRANCH  19  20
ATOM     20  C   UNL     1       1.588  -2.593  -2.459  0.00  0.00    -0.068 C 
BRANCH  20  21
ATOM     21  N   UNL     1       0.657  -2.099  -1.437  0.00  0.00    +0.380 N 
ATOM     22  H   UNL     1      -0.274  -2.432  -1.640  0.00  0.00    -0.082 HD
BRANCH  21  23
ATOM     23  C   UNL     1       1.075  -2.588  -0.116  0.00  0.00    -0.079 C 
BRANCH  23  25
ATOM     24  C   UNL     1       0.473  -2.687   2.307  0.00  0.00    +0.002 C 
ATOM     25  C   UNL     1       0.037  -2.178   0.931  0.00  0.00    -0.022 C 
ENDBRANCH  23  25
ENDBRANCH  21  23
BRANCH  21  26
ATOM     26  C   UNL     1       0.662  -0.630  -1.439  0.00  0.00    -0.079 C 
BRANCH  26  27
ATOM     27  C   UNL     1       0.078  -0.119  -2.757  0.00  0.00    -0.022 C 
ATOM     28  C   UNL     1       0.154   1.409  -2.791  0.00  0.00    +0.002 C 
ENDBRANCH  26  27
ENDBRANCH  21  26
ENDBRANCH  20  21
ENDBRANCH  19  20
ENDBRANCH  18  19
ENDBRANCH   1  18
TORSDOF 9
