REMARK  Name = ZINC06963578
REMARK  6 active torsions:
REMARK  status: ('A' for Active; 'I' for Inactive)
REMARK    1  A    between atoms: C_1  and  C_2
REMARK    2  A    between atoms: C_4  and  N_28
REMARK    3  A    between atoms: C_9  and  C_18
REMARK    4  A    between atoms: C_21  and  C_24
REMARK    5  A    between atoms: C_24  and  O_26
REMARK    6  A    between atoms: O_26  and  C_27
REMARK                            x       y       z     vdW  Elec       q    Type
REMARK                         _______ _______ _______ _____ _____    ______ ____
ROOT
ATOM      1  C   UNL     1      -1.773   2.117   8.456  0.00  0.00    +0.046 C 
ATOM      2  C   UNL     1      -2.969   1.827   7.586  0.00  0.00    -0.027 A 
ATOM      3  C   UNL     1      -3.407   0.529   7.431  0.00  0.00    +0.038 A 
ATOM      4  C   UNL     1      -4.505   0.264   6.633  0.00  0.00    +0.127 A 
ATOM      5  C   UNL     1      -5.160   1.297   5.994  0.00  0.00    +0.038 A 
ATOM      6  C   UNL     1      -4.726   2.608   6.144  0.00  0.00    -0.017 A 
ATOM      7  C   UNL     1      -3.629   2.873   6.941  0.00  0.00    +0.034 A 
ATOM      8  N   UNL     1      -3.166   4.169   7.159  0.00  0.00    -0.336 N 
ATOM      9  C   UNL     1      -3.443   5.025   6.004  0.00  0.00    +0.105 C 
ATOM     10  C   UNL     1      -4.940   5.085   5.749  0.00  0.00    +0.029 C 
ATOM     11  C   UNL     1      -5.489   3.682   5.415  0.00  0.00    +0.049 C 
ATOM     12  C   UNL     1      -6.908   3.726   5.958  0.00  0.00    -0.023 C 
ATOM     13  C   UNL     1      -7.023   4.660   6.868  0.00  0.00    -0.030 C 
ATOM     14  C   UNL     1      -5.700   5.375   7.066  0.00  0.00    +0.033 C 
ATOM     15  H   UNL     1      -2.180   4.159   7.373  0.00  0.00    +0.147 HD
ENDROOT
BRANCH   9  16
ATOM     16  C   UNL     1      -2.750   4.465   4.789  0.00  0.00    -0.027 A 
ATOM     17  C   UNL     1      -1.557   3.778   4.931  0.00  0.00    +0.006 A 
ATOM     18  C   UNL     1      -0.918   3.263   3.823  0.00  0.00    +0.015 A 
ATOM     19  C   UNL     1      -1.477   3.436   2.555  0.00  0.00    +0.059 A 
ATOM     20  C   UNL     1      -2.678   4.135   2.418  0.00  0.00    +0.015 A 
ATOM     21  C   UNL     1      -3.309   4.641   3.535  0.00  0.00    +0.006 A 
BRANCH  19  22
ATOM     22  C   UNL     1      -0.797   2.887   1.364  0.00  0.00    +0.339 C 
ATOM     23  O   UNL     1       0.250   2.284   1.486  0.00  0.00    -0.245 OA
BRANCH  22  24
ATOM     24  O   UNL     1      -1.339   3.056   0.142  0.00  0.00    -0.464 OA
ATOM     25  C   UNL     1      -0.617   2.490  -0.983  0.00  0.00    +0.280 C 
ENDBRANCH  22  24
ENDBRANCH  19  22
ENDBRANCH   9  16
BRANCH   4  26
ATOM     26  N   UNL     1      -4.978  -1.128   6.465  0.00  0.00    +0.056 N 
ATOM     27  O   UNL     1      -5.946  -1.362   5.763  0.00  0.00    -0.126 OA
ATOM     28  O   UNL     1      -4.401  -2.040   7.029  0.00  0.00    -0.126 OA
ENDBRANCH   4  26
TORSDOF 4
