REMARK  Name = ZINC38684920
REMARK  12 active torsions:
REMARK  status: ('A' for Active; 'I' for Inactive)
REMARK    1  A    between atoms: C_1  and  C_2
REMARK    2  A    between atoms: C_2  and  O_3
REMARK    3  A    between atoms: O_3  and  C_4
REMARK    4  A    between atoms: C_8  and  C_10
REMARK    5  A    between atoms: C_15  and  O_24
REMARK    6  A    between atoms: C_19  and  N_23
REMARK    7  A    between atoms: C_20  and  C_21
REMARK    8  A    between atoms: O_24  and  C_25
REMARK    9  A    between atoms: C_25  and  C_27
REMARK   10  A    between atoms: C_30  and  O_33
REMARK   11  A    between atoms: O_33  and  C_34
REMARK   12  A    between atoms: C_34  and  C_35
REMARK                            x       y       z     vdW  Elec       q    Type
REMARK                         _______ _______ _______ _____ _____    ______ ____
ROOT
ATOM      1  C   UNL     1      -4.283  -4.415   0.035  0.00  0.00    +0.098 C 
ATOM      2  C   UNL     1      -4.476  -5.240  -1.209  0.00  0.00    +0.008 A 
ATOM      3  C   UNL     1      -4.802  -4.612  -2.399  0.00  0.00    +0.012 A 
ATOM      4  C   UNL     1      -4.982  -5.353  -3.550  0.00  0.00    +0.047 A 
ATOM      5  C   UNL     1      -4.837  -6.733  -3.517  0.00  0.00    +0.135 A 
ATOM      6  C   UNL     1      -4.511  -7.365  -2.328  0.00  0.00    +0.093 A 
ATOM      7  C   UNL     1      -4.329  -6.618  -1.171  0.00  0.00    +0.138 A 
ATOM      8  O   UNL     1      -4.010  -7.251  -0.015  0.00  0.00    -0.441 OA
ATOM      9  C   UNL     1      -4.207  -6.636   1.163  0.00  0.00    +0.199 C 
ATOM     10  C   UNL     1      -4.343  -5.294   1.252  0.00  0.00    +0.098 C 
ENDROOT
BRANCH   1  15
ATOM     11  C   UNL     1      -1.632  -1.723  -0.047  0.00  0.00    +0.121 A 
ATOM     12  C   UNL     1      -0.473  -2.482  -0.127  0.00  0.00    +0.045 A 
ATOM     13  C   UNL     1      -0.552  -3.861  -0.154  0.00  0.00    +0.004 A 
ATOM     14  C   UNL     1      -1.785  -4.485  -0.101  0.00  0.00    +0.005 A 
ATOM     15  C   UNL     1      -2.942  -3.731  -0.022  0.00  0.00    -0.031 A 
ATOM     16  C   UNL     1      -2.868  -2.352   0.011  0.00  0.00    +0.050 A 
BRANCH  11  17
ATOM     17  O   UNL     1      -1.557  -0.367  -0.020  0.00  0.00    -0.492 OA
BRANCH  17  19
ATOM     18  C   UNL     1      -0.368   1.737  -0.041  0.00  0.00    +0.048 C 
ATOM     19  C   UNL     1      -0.252   0.212  -0.083  0.00  0.00    +0.225 C 
ENDBRANCH  17  19
ENDBRANCH  11  17
ENDBRANCH   1  15
BRANCH   9  20
ATOM     20  N   UNL     1      -4.270  -7.391   2.307  0.00  0.00    -0.328 N 
ATOM     21  H   UNL     1      -4.173  -8.355   2.258  0.00  0.00    +0.145 HD
ATOM     22  H   UNL     1      -4.411  -6.961   3.165  0.00  0.00    +0.145 HD
ENDBRANCH   9  20
BRANCH  10  23
ATOM     23  C   UNL     1      -4.549  -4.699   2.539  0.00  0.00    +0.101 C 
ATOM     24  N   UNL     1      -4.712  -4.227   3.559  0.00  0.00    -0.191 NA
ENDBRANCH  10  23
BRANCH   5  25
ATOM     25  O   UNL     1      -5.014  -7.463  -4.649  0.00  0.00    -0.422 OA
BRANCH  25  26
ATOM     26  C   UNL     1      -6.096  -8.264  -4.723  0.00  0.00    +0.344 C 
ATOM     27  O   UNL     1      -6.932  -8.239  -3.841  0.00  0.00    -0.245 OA
BRANCH  26  28
ATOM     28  C   UNL     1      -6.266  -9.170  -5.874  0.00  0.00    +0.060 A 
ATOM     29  C   UNL     1      -5.303  -9.204  -6.887  0.00  0.00    +0.018 A 
ATOM     30  C   UNL     1      -5.465 -10.052  -7.960  0.00  0.00    +0.046 A 
ATOM     31  C   UNL     1      -6.585 -10.873  -8.036  0.00  0.00    +0.121 A 
ATOM     32  C   UNL     1      -7.545 -10.841  -7.031  0.00  0.00    +0.046 A 
ATOM     33  C   UNL     1      -7.387 -10.001  -5.952  0.00  0.00    +0.018 A 
BRANCH  31  34
ATOM     34  O   UNL     1      -6.741 -11.707  -9.095  0.00  0.00    -0.488 OA
BRANCH  34  35
ATOM     35  C   UNL     1      -7.914 -12.523  -9.111  0.00  0.00    +0.256 C 
BRANCH  35  36
ATOM     36  C   UNL     1      -7.915 -13.376 -10.353  0.00  0.00    +0.006 C 
ATOM     37  C   UNL     1      -8.219 -14.648 -10.274  0.00  0.00    +0.007 C 
ENDBRANCH  35  36
ENDBRANCH  34  35
ENDBRANCH  31  34
ENDBRANCH  26  28
ENDBRANCH  25  26
ENDBRANCH   5  25
TORSDOF 11
