REMARK  Name = ZINC14458191
REMARK  8 active torsions:
REMARK  status: ('A' for Active; 'I' for Inactive)
REMARK    1  A    between atoms: C_1  and  C_2
REMARK    2  A    between atoms: C_2  and  N_3
REMARK    3  A    between atoms: N_3  and  C_4
REMARK    4  A    between atoms: C_10  and  C_12
REMARK    5  A    between atoms: C_25  and  C_28
REMARK    6  A    between atoms: C_29  and  C_36
REMARK    7  A    between atoms: C_31  and  C_35
REMARK    8  A    between atoms: C_33  and  C_34
REMARK                            x       y       z     vdW  Elec       q    Type
REMARK                         _______ _______ _______ _____ _____    ______ ____
ROOT
ATOM      1  C   UNL     1       7.535   1.020   3.232  0.00  0.00    +0.038 A 
ATOM      2  C   UNL     1       6.270   1.117   3.821  0.00  0.00    +0.015 A 
ATOM      3  C   UNL     1       5.321   1.936   3.257  0.00  0.00    +0.024 A 
ATOM      4  C   UNL     1       5.618   2.667   2.108  0.00  0.00    +0.031 A 
ATOM      5  C   UNL     1       6.867   2.575   1.514  0.00  0.00    -0.019 A 
ATOM      6  C   UNL     1       7.825   1.752   2.080  0.00  0.00    +0.019 A 
ATOM      7  C   UNL     1       7.239   3.335   0.269  0.00  0.00    +0.049 C 
ATOM      8  C   UNL     1       7.610   2.312  -0.797  0.00  0.00    -0.023 C 
ATOM      9  C   UNL     1       6.585   2.071  -1.576  0.00  0.00    -0.030 C 
ATOM     10  C   UNL     1       5.386   2.898  -1.147  0.00  0.00    +0.033 C 
ATOM     11  C   UNL     1       6.032   4.060  -0.356  0.00  0.00    +0.029 C 
ATOM     12  C   UNL     1       5.081   4.596   0.697  0.00  0.00    +0.105 C 
ATOM     13  N   UNL     1       4.640   3.498   1.565  0.00  0.00    -0.336 N 
ATOM     14  H   UNL     1       3.700   3.357   1.755  0.00  0.00    +0.147 HD
ENDROOT
BRANCH  12  15
ATOM     15  C   UNL     1       5.786   5.639   1.525  0.00  0.00    -0.021 A 
ATOM     16  C   UNL     1       5.844   5.507   2.900  0.00  0.00    -0.045 A 
ATOM     17  C   UNL     1       6.495   6.461   3.659  0.00  0.00    +0.007 A 
ATOM     18  C   UNL     1       7.079   7.553   3.045  0.00  0.00    -0.050 A 
ATOM     19  C   UNL     1       7.016   7.688   1.670  0.00  0.00    +0.007 A 
ATOM     20  C   UNL     1       6.370   6.731   0.910  0.00  0.00    -0.045 A 
ATOM     21  C   UNL     1       6.301   6.878  -0.588  0.00  0.00    +0.044 C 
ATOM     22  C   UNL     1       7.784   8.596   3.873  0.00  0.00    +0.044 C 
ATOM     23  C   UNL     1       5.203   4.319   3.570  0.00  0.00    +0.044 C 
ENDBRANCH  12  15
BRANCH   1  25
ATOM     24  N   UNL     1       8.681   0.065   5.169  0.00  0.00    -0.268 N 
ATOM     25  C   UNL     1       8.562   0.146   3.829  0.00  0.00    +0.251 C 
ATOM     26  O   UNL     1       9.301  -0.501   3.113  0.00  0.00    -0.270 OA
BRANCH  24  27
ATOM     27  C   UNL     1       9.752  -0.636   5.735  0.00  0.00    +0.037 A 
ATOM     28  C   UNL     1       9.813  -0.821   7.110  0.00  0.00    +0.023 A 
ATOM     29  C   UNL     1      10.869  -1.518   7.665  0.00  0.00    +0.002 A 
ATOM     30  C   UNL     1      11.869  -2.021   6.854  0.00  0.00    +0.000 A 
ATOM     31  C   UNL     1      11.814  -1.834   5.485  0.00  0.00    +0.002 A 
ATOM     32  C   UNL     1      10.758  -1.143   4.923  0.00  0.00    +0.023 A 
ENDBRANCH  24  27
BRANCH  24  34
ATOM     33  C   UNL     1       6.862  -0.360   6.748  0.00  0.00    +0.025 C 
ATOM     34  C   UNL     1       7.690   0.710   6.034  0.00  0.00    +0.110 C 
ENDBRANCH  24  34
ENDBRANCH   1  25
TORSDOF 4
