REMARK  Name = ZINC04308492
REMARK  8 active torsions:
REMARK  status: ('A' for Active; 'I' for Inactive)
REMARK    1  A    between atoms: C_1  and  C_2
REMARK    2  A    between atoms: C_2  and  C_3
REMARK    3  A    between atoms: C_12  and  C_13
REMARK    4  A    between atoms: C_13  and  C_15
REMARK    5  A    between atoms: C_15  and  N_16
REMARK    6  A    between atoms: C_19  and  C_23
REMARK    7  A    between atoms: C_19  and  C_25
REMARK    8  A    between atoms: C_23  and  C_24
REMARK                            x       y       z     vdW  Elec       q    Type
REMARK                         _______ _______ _______ _____ _____    ______ ____
ROOT
ATOM      1  N   UNL     1       2.407   1.044  -0.015  0.00  0.00    -0.216 N 
ATOM      2  C   UNL     1       2.978   0.566  -1.138  0.00  0.00    +0.251 C 
ATOM      3  O   UNL     1       2.669   0.820  -2.283  0.00  0.00    -0.272 OA
ATOM      4  C   UNL     1       4.088  -0.355  -0.673  0.00  0.00    +0.138 C 
ATOM      5  N   UNL     1       4.006  -0.282   0.796  0.00  0.00    -0.281 N 
ATOM      6  C   UNL     1       2.999   0.562   1.083  0.00  0.00    +0.310 C 
ATOM      7  O   UNL     1       2.662   0.852   2.215  0.00  0.00    -0.252 OA
ATOM      8  H   UNL     1       4.570  -0.749   1.432  0.00  0.00    +0.152 HD
ENDROOT
BRANCH   4   9
ATOM      9  C   UNL     1       5.426   0.141  -1.157  0.00  0.00    -0.015 A 
ATOM     10  C   UNL     1       5.928  -0.297  -2.369  0.00  0.00    +0.009 A 
ATOM     11  C   UNL     1       7.152   0.161  -2.817  0.00  0.00    +0.039 A 
ATOM     12  C   UNL     1       7.882   1.050  -2.046  0.00  0.00    +0.123 A 
ATOM     13  C   UNL     1       7.381   1.484  -0.831  0.00  0.00    +0.039 A 
ATOM     14  C   UNL     1       6.154   1.029  -0.388  0.00  0.00    +0.009 A 
ATOM     15  F   UNL     1       9.082   1.494  -2.480  0.00  0.00    -0.205 F 
ENDBRANCH   4   9
BRANCH   4  16
ATOM     16  C   UNL     1       3.839  -1.785  -1.156  0.00  0.00    +0.037 C 
ATOM     17  C   UNL     1       2.500  -2.283  -0.607  0.00  0.00    +0.007 C 
ENDBRANCH   4  16
BRANCH   1  18
ATOM     18  C   UNL     1       1.280   1.981   0.001  0.00  0.00    +0.197 C 
BRANCH  18  19
ATOM     19  C   UNL     1      -0.014   1.210   0.009  0.00  0.00    +0.183 C 
ATOM     20  O   UNL     1       0.002  -0.004   0.002  0.00  0.00    -0.290 OA
BRANCH  19  30
ATOM     21  C   UNL     1      -4.866   2.133   0.037  0.00  0.00    -0.024 A 
ATOM     22  C   UNL     1      -5.327   0.835   0.032  0.00  0.00    +0.005 A 
ATOM     23  C   UNL     1      -4.439  -0.231   0.023  0.00  0.00    +0.001 A 
ATOM     24  C   UNL     1      -3.080  -0.002   0.017  0.00  0.00    +0.011 A 
ATOM     25  C   UNL     1      -2.601   1.304   0.015  0.00  0.00    +0.010 A 
ATOM     26  C   UNL     1      -3.498   2.384   0.032  0.00  0.00    +0.050 A 
ATOM     27  N   UNL     1      -2.753   3.546   0.034  0.00  0.00    -0.360 N 
ATOM     28  H   UNL     1      -3.128   4.441   0.041  0.00  0.00    +0.165 HD
ATOM     29  C   UNL     1      -1.436   3.268   0.026  0.00  0.00    +0.095 A 
ATOM     30  C   UNL     1      -1.251   1.902   0.018  0.00  0.00    +0.044 A 
BRANCH  21  32
ATOM     31  C   UNL     1      -6.085   3.757  -1.386  0.00  0.00    +0.009 C 
ATOM     32  C   UNL     1      -5.843   3.281   0.047  0.00  0.00    +0.034 C 
ENDBRANCH  21  32
ENDBRANCH  19  30
ENDBRANCH  18  19
ENDBRANCH   1  18
TORSDOF 6
