REMARK  Name = ZINC63403979
REMARK  11 active torsions:
REMARK  status: ('A' for Active; 'I' for Inactive)
REMARK    1  A    between atoms: C_1  and  C_2
REMARK    2  A    between atoms: C_2  and  C_4
REMARK    3  A    between atoms: C_2  and  S_16
REMARK    4  A    between atoms: N_6  and  C_7
REMARK    5  A    between atoms: C_10  and  N_13
REMARK    6  A    between atoms: N_13  and  C_14
REMARK    7  A    between atoms: N_13  and  C_15
REMARK    8  A    between atoms: S_16  and  C_17
REMARK    9  A    between atoms: C_21  and  C_30
REMARK   10  A    between atoms: N_22  and  C_23
REMARK   11  A    between atoms: C_23  and  C_24
REMARK                            x       y       z     vdW  Elec       q    Type
REMARK                         _______ _______ _______ _____ _____    ______ ____
ROOT
ATOM      1  C   UNL     1       2.382  -0.098  -1.311  0.00  0.00    +0.237 C 
ATOM      2  N   UNL     1       2.287   1.359  -1.126  0.00  0.00    -0.237 N 
ATOM      3  N   UNL     1       2.759   1.629   0.164  0.00  0.00    -0.169 NA
ATOM      4  C   UNL     1       3.123   0.532   0.774  0.00  0.00    +0.147 C 
ATOM      5  N   UNL     1       2.936  -0.592  -0.040  0.00  0.00    -0.283 N 
ATOM      6  H   UNL     1       1.961   2.006  -1.772  0.00  0.00    +0.171 HD
ENDROOT
BRANCH   4   7
ATOM      7  C   UNL     1       3.637   0.487   2.079  0.00  0.00    +0.022 C 
ATOM      8  C   UNL     1       3.751   1.548   2.978  0.00  0.00    +0.006 A 
ATOM      9  C   UNL     1       3.413   2.914   2.888  0.00  0.00    +0.010 A 
ATOM     10  C   UNL     1       3.639   3.736   3.945  0.00  0.00    +0.001 A 
ATOM     11  C   UNL     1       4.203   3.263   5.131  0.00  0.00    +0.002 A 
ATOM     12  C   UNL     1       4.552   1.962   5.288  0.00  0.00    +0.026 A 
ATOM     13  C   UNL     1       4.345   1.043   4.227  0.00  0.00    +0.043 A 
ATOM     14  N   UNL     1       4.593  -0.248   4.131  0.00  0.00    -0.380 N 
ATOM     15  C   UNL     1       4.179  -0.724   2.807  0.00  0.00    +0.152 C 
ATOM     16  H   UNL     1       4.984  -0.798   4.827  0.00  0.00    +0.160 HD
ENDBRANCH   4   7
BRANCH   1  17
ATOM     17  S   UNL     1       0.740  -0.810  -1.606  0.00  0.00    -0.106 S 
BRANCH  17  19
ATOM     18  C   UNL     1      -0.370   1.224  -0.152  0.00  0.00    +0.029 C 
ATOM     19  C   UNL     1      -0.226  -0.299  -0.158  0.00  0.00    +0.133 C 
BRANCH  19  20
ATOM     20  C   UNL     1      -1.592  -0.932  -0.217  0.00  0.00    +0.230 C 
ATOM     21  O   UNL     1      -2.025  -1.345  -1.272  0.00  0.00    -0.274 OA
ATOM     22  N   UNL     1      -2.334  -1.040   0.903  0.00  0.00    -0.285 N 
ATOM     23  H   UNL     1      -1.963  -0.772   1.759  0.00  0.00    +0.155 HD
BRANCH  22  24
ATOM     24  C   UNL     1      -3.642  -1.539   0.833  0.00  0.00    +0.034 A 
ATOM     25  C   UNL     1      -4.626  -1.028   1.669  0.00  0.00    +0.025 A 
ATOM     26  C   UNL     1      -5.914  -1.520   1.599  0.00  0.00    +0.025 A 
ATOM     27  C   UNL     1      -6.226  -2.525   0.693  0.00  0.00    +0.029 A 
ATOM     28  C   UNL     1      -5.241  -3.036  -0.143  0.00  0.00    +0.025 A 
ATOM     29  C   UNL     1      -3.954  -2.541  -0.077  0.00  0.00    +0.025 A 
BRANCH  27  30
ATOM     30  N   UNL     1      -7.531  -3.023   0.622  0.00  0.00    -0.336 N 
ATOM     31  C   UNL     1      -8.569  -2.485   1.504  0.00  0.00    +0.129 C 
ATOM     32  C   UNL     1      -7.860  -4.083  -0.334  0.00  0.00    +0.129 C 
ENDBRANCH  27  30
ENDBRANCH  22  24
ENDBRANCH  19  20
ENDBRANCH  17  19
ENDBRANCH   1  17
BRANCH   5  33
ATOM     33  C   UNL     1       3.233  -1.985   0.304  0.00  0.00    +0.140 C 
BRANCH  33  34
ATOM     34  C   UNL     1       2.057  -2.579   1.083  0.00  0.00    +0.136 C 
ATOM     35  C   UNL     1       2.416  -3.999   1.571  0.00  0.00    +0.035 C 
ATOM     36  C   UNL     1       1.081  -4.766   1.366  0.00  0.00    +0.031 C 
ATOM     37  C   UNL     1       0.535  -4.071   0.093  0.00  0.00    +0.160 C 
ATOM     38  O   UNL     1       0.914  -2.689   0.227  0.00  0.00    -0.375 OA
ENDBRANCH  33  34
ENDBRANCH   5  33
TORSDOF 8
