REMARK  Name = ZINC44442012
REMARK  5 active torsions:
REMARK  status: ('A' for Active; 'I' for Inactive)
REMARK    1  A    between atoms: C_1  and  N_2
REMARK    2  A    between atoms: C_3  and  C_11
REMARK    3  A    between atoms: N_13  and  C_14
REMARK    4  A    between atoms: C_14  and  C_15
REMARK    5  A    between atoms: C_18  and  C_21
REMARK                            x       y       z     vdW  Elec       q    Type
REMARK                         _______ _______ _______ _____ _____    ______ ____
ROOT
ATOM      1  C   UNL     1       0.114   2.702  -4.481  0.00  0.00    +0.006 C 
ATOM      2  C   UNL     1      -1.036   3.407  -3.760  0.00  0.00    +0.006 C 
ATOM      3  C   UNL     1      -2.367   2.981  -4.383  0.00  0.00    +0.011 C 
ATOM      4  C   UNL     1      -2.382   3.364  -5.864  0.00  0.00    +0.055 C 
ATOM      5  C   UNL     1      -1.232   2.659  -6.585  0.00  0.00    +0.011 C 
ATOM      6  C   UNL     1       0.099   3.085  -5.962  0.00  0.00    +0.006 C 
ENDROOT
BRANCH   4   7
ATOM      7  C   UNL     1      -3.693   2.943  -6.478  0.00  0.00    +0.111 A 
ATOM      8  N   UNL     1      -3.963   1.702  -6.965  0.00  0.00    -0.342 N 
ATOM      9  H   UNL     1      -3.357   0.945  -6.978  0.00  0.00    +0.167 HD
ATOM     10  C   UNL     1      -5.260   1.720  -7.437  0.00  0.00    +0.066 A 
ATOM     11  C   UNL     1      -6.084   0.776  -8.036  0.00  0.00    +0.028 A 
ATOM     12  C   UNL     1      -7.367   1.123  -8.400  0.00  0.00    +0.002 A 
ATOM     13  C   UNL     1      -7.840   2.408  -8.174  0.00  0.00    +0.002 A 
ATOM     14  C   UNL     1      -7.043   3.350  -7.586  0.00  0.00    +0.030 A 
ATOM     15  C   UNL     1      -5.739   3.021  -7.208  0.00  0.00    +0.089 A 
ATOM     16  N   UNL     1      -4.733   3.713  -6.615  0.00  0.00    -0.232 NA
ENDBRANCH   4   7
BRANCH   1  17
ATOM     17  C   UNL     1      -0.051   1.187  -4.344  0.00  0.00    +0.108 C 
BRANCH  17  20
ATOM     18  C   UNL     1      -0.026  -0.487  -2.575  0.00  0.00    +0.263 C 
ATOM     19  O   UNL     1      -0.140  -1.350  -3.426  0.00  0.00    -0.269 OA
ATOM     20  N   UNL     1       0.083   0.806  -2.936  0.00  0.00    -0.310 N 
ATOM     21  H   UNL     1       0.251   1.485  -2.264  0.00  0.00    +0.149 HD
BRANCH  18  24
ATOM     22  C   UNL     1      -2.450  -0.581  -0.704  0.00  0.00    +0.173 C 
ATOM     23  N   UNL     1      -1.075  -0.903  -0.312  0.00  0.00    -0.261 N 
ATOM     24  C   UNL     1      -0.008  -0.856  -1.157  0.00  0.00    +0.131 A 
ATOM     25  C   UNL     1       1.110  -1.230  -0.400  0.00  0.00    +0.032 A 
ATOM     26  C   UNL     1       2.482  -1.391  -0.630  0.00  0.00    +0.012 A 
ATOM     27  C   UNL     1       3.290  -1.783   0.391  0.00  0.00    +0.001 A 
ATOM     28  C   UNL     1       2.786  -2.032   1.668  0.00  0.00    +0.002 A 
ATOM     29  C   UNL     1       1.466  -1.895   1.956  0.00  0.00    +0.030 A 
ATOM     30  C   UNL     1       0.572  -1.490   0.944  0.00  0.00    +0.093 A 
ATOM     31  N   UNL     1      -0.727  -1.258   0.872  0.00  0.00    -0.171 NA
ENDBRANCH  18  24
ENDBRANCH  17  20
ENDBRANCH   1  17
TORSDOF 4
