REMARK  Name = ZINC09536258
REMARK  9 active torsions:
REMARK  status: ('A' for Active; 'I' for Inactive)
REMARK    1  A    between atoms: C_1  and  C_2
REMARK    2  A    between atoms: C_5  and  C_32
REMARK    3  A    between atoms: C_5  and  C_33
REMARK    4  A    between atoms: N_11  and  C_15
REMARK    5  A    between atoms: C_15  and  C_16
REMARK    6  A    between atoms: N_18  and  C_19
REMARK    7  A    between atoms: C_19  and  C_20
REMARK    8  A    between atoms: C_25  and  C_26
REMARK    9  A    between atoms: C_26  and  N_69
REMARK                            x       y       z     vdW  Elec       q    Type
REMARK                         _______ _______ _______ _____ _____    ______ ____
ROOT
ATOM      1  C   UNL     1       3.381   5.258   0.772  0.00  0.00    +0.231 C 
ATOM      2  O   UNL     1       3.993   5.455  -0.256  0.00  0.00    -0.274 OA
ATOM      3  N   UNL     1       2.251   4.523   0.754  0.00  0.00    -0.310 N 
ATOM      4  H   UNL     1       1.762   4.365   1.576  0.00  0.00    +0.149 HD
ENDROOT
BRANCH   1   5
ATOM      5  C   UNL     1       3.882   5.836   2.070  0.00  0.00    +0.213 C 
BRANCH   5  15
ATOM      6  C   UNL     1       9.832   7.745  -1.277  0.00  0.00    +0.007 C 
ATOM      7  C   UNL     1       9.018   8.062  -0.021  0.00  0.00    -0.011 C 
ATOM      8  C   UNL     1       9.967   8.298   1.156  0.00  0.00    +0.009 C 
ATOM      9  C   UNL     1       9.155   8.624   2.411  0.00  0.00    -0.032 C 
ATOM     10  C   UNL     1       8.232   7.448   2.740  0.00  0.00    +0.041 C 
ATOM     11  C   UNL     1       7.298   7.189   1.563  0.00  0.00    +0.113 C 
ATOM     12  C   UNL     1       8.094   6.884   0.299  0.00  0.00    +0.038 C 
ATOM     13  C   UNL     1       6.353   6.054   1.884  0.00  0.00    +0.247 C 
ATOM     14  O   UNL     1       6.646   4.905   2.139  0.00  0.00    -0.273 OA
ATOM     15  N   UNL     1       5.116   6.588   1.826  0.00  0.00    -0.215 N 
ATOM     16  C   UNL     1       5.155   7.891   1.522  0.00  0.00    +0.310 C 
ATOM     17  O   UNL     1       4.166   8.590   1.416  0.00  0.00    -0.252 OA
ATOM     18  N   UNL     1       6.412   8.340   1.347  0.00  0.00    -0.285 N 
ATOM     19  C   UNL     1       8.315   9.879   2.164  0.00  0.00    +0.011 C 
ATOM     20  C   UNL     1      10.107   8.870   3.584  0.00  0.00    +0.011 C 
ATOM     21  H   UNL     1       6.680   9.245   1.123  0.00  0.00    +0.151 HD
ENDBRANCH   5  15
ENDBRANCH   1   5
BRANCH   3  22
ATOM     22  C   UNL     1       1.763   3.961  -0.508  0.00  0.00    +0.139 C 
BRANCH  22  23
ATOM     23  C   UNL     1       0.495   3.188  -0.257  0.00  0.00    -0.029 A 
ATOM     24  C   UNL     1       0.536   1.811  -0.142  0.00  0.00    +0.005 A 
ATOM     25  C   UNL     1      -0.628   1.101   0.089  0.00  0.00    +0.000 A 
ATOM     26  C   UNL     1      -1.834   1.769   0.199  0.00  0.00    +0.000 A 
ATOM     27  C   UNL     1      -1.874   3.146   0.089  0.00  0.00    +0.002 A 
ATOM     28  C   UNL     1      -0.710   3.855  -0.142  0.00  0.00    -0.059 A 
BRANCH  28  29
ATOM     29  C   UNL     1      -0.755   5.356  -0.267  0.00  0.00    -0.042 C 
BRANCH  29  35
ATOM     30  C   UNL     1      -1.348   5.791   2.041  0.00  0.00    -0.050 C 
ATOM     31  C   UNL     1      -0.837   6.388   3.355  0.00  0.00    +0.141 C 
ATOM     32  O   UNL     1      -0.503   7.763   3.150  0.00  0.00    -0.383 OA
ATOM     33  C   UNL     1       0.490   7.971   2.142  0.00  0.00    +0.141 C 
ATOM     34  C   UNL     1      -0.008   7.390   0.816  0.00  0.00    -0.050 C 
ATOM     35  N   UNL     1      -0.304   5.955   1.008  0.00  0.00    +0.385 N 
ATOM     36  H   UNL     1       0.550   5.476   1.317  0.00  0.00    -0.081 HD
ENDBRANCH  29  35
ENDBRANCH  28  29
ENDBRANCH  22  23
ENDBRANCH   3  22
TORSDOF 6
