REMARK  Name = ZINC18119523
REMARK  3 active torsions:
REMARK  status: ('A' for Active; 'I' for Inactive)
REMARK    1  A    between atoms: C_3  and  N_9
REMARK    2  A    between atoms: C_15  and  C_16
REMARK    3  A    between atoms: C_17  and  C_18
REMARK                            x       y       z     vdW  Elec       q    Type
REMARK                         _______ _______ _______ _____ _____    ______ ____
ROOT
ATOM      1  N   UNL     1       3.563   2.107  -0.021  0.00  0.00    -0.224 NA
ATOM      2  C   UNL     1       3.690   3.189   0.715  0.00  0.00    +0.166 C 
ATOM      3  N   UNL     1       2.768   3.776   1.559  0.00  0.00    -0.260 N 
ATOM      4  C   UNL     1       3.082   4.874   2.223  0.00  0.00    +0.256 C 
ATOM      5  O   UNL     1       2.279   5.402   2.971  0.00  0.00    -0.269 OA
ATOM      6  C   UNL     1       4.385   5.426   2.043  0.00  0.00    +0.077 C 
ATOM      7  C   UNL     1       4.944   6.547   2.615  0.00  0.00    +0.020 C 
ATOM      8  S   UNL     1       5.102   4.270   0.884  0.00  0.00    -0.049 S 
ATOM      9  H   UNL     1       1.888   3.381   1.664  0.00  0.00    +0.157 HD
ENDROOT
BRANCH   1  12
ATOM     10  C   UNL     1      -0.017   1.379   0.010  0.00  0.00    +0.004 A 
ATOM     11  C   UNL     1       1.166   2.089   0.002  0.00  0.00    +0.029 A 
ATOM     12  C   UNL     1       2.386   1.409  -0.013  0.00  0.00    +0.086 A 
ATOM     13  C   UNL     1       2.399   0.011  -0.021  0.00  0.00    +0.085 A 
ATOM     14  C   UNL     1       1.207  -0.687  -0.013  0.00  0.00    +0.061 A 
ATOM     15  C   UNL     1       0.002  -0.004   0.002  0.00  0.00    +0.021 A 
ATOM     16 CL   UNL     1       1.220  -2.423  -0.023  0.00  0.00    -0.082 Cl
ATOM     17 CL   UNL     1       3.909  -0.845  -0.040  0.00  0.00    -0.080 Cl
ENDBRANCH   1  12
BRANCH   7  18
ATOM     18  C   UNL     1       6.260   6.917   2.295  0.00  0.00    +0.005 C 
ATOM     19  C   UNL     1       6.812   8.025   2.860  0.00  0.00    +0.046 C 
BRANCH  19  20
ATOM     20  C   UNL     1       8.138   8.397   2.538  0.00  0.00    +0.128 A 
ATOM     21  C   UNL     1       8.822   9.487   3.038  0.00  0.00    +0.049 A 
ATOM     22  C   UNL     1      10.095   9.465   2.448  0.00  0.00    +0.042 A 
ATOM     23  C   UNL     1      10.139   8.390   1.631  0.00  0.00    +0.195 A 
ATOM     24  O   UNL     1       8.963   7.747   1.690  0.00  0.00    -0.464 OA
ENDBRANCH  19  20
ENDBRANCH   7  18
TORSDOF 3
