REMARK  Name = ZINC23867425
REMARK  11 active torsions:
REMARK  status: ('A' for Active; 'I' for Inactive)
REMARK    1  A    between atoms: C_1  and  C_2
REMARK    2  A    between atoms: C_2  and  C_3
REMARK    3  A    between atoms: C_3  and  C_4
REMARK    4  A    between atoms: C_4  and  N_5
REMARK    5  A    between atoms: C_15  and  S_16
REMARK    6  A    between atoms: S_16  and  C_17
REMARK    7  A    between atoms: C_17  and  C_19
REMARK    8  A    between atoms: C_17  and  C_20
REMARK    9  A    between atoms: N_22  and  C_23
REMARK   10  A    between atoms: C_23  and  C_24
REMARK   11  A    between atoms: N_26  and  C_27
REMARK                            x       y       z     vdW  Elec       q    Type
REMARK                         _______ _______ _______ _____ _____    ______ ____
ROOT
ATOM      1  C   UNL     1       5.308   8.025   0.516  0.00  0.00    +0.137 C 
ATOM      2  C   UNL     1       5.877   8.199  -0.893  0.00  0.00    +0.029 C 
ENDROOT
BRANCH   1   3
ATOM      3  C   UNL     1       3.895   7.507   0.427  0.00  0.00    +0.227 C 
ATOM      4  O   UNL     1       2.962   8.281   0.459  0.00  0.00    -0.275 OA
ATOM      5  N   UNL     1       3.669   6.183   0.312  0.00  0.00    -0.306 N 
ATOM      6  H   UNL     1       4.516   5.481   0.283  0.00  0.00    +0.149 HD
BRANCH   5   7
ATOM      7  C   UNL     1       2.296   5.679   0.225  0.00  0.00    +0.200 C 
BRANCH   7   8
ATOM      8  C   UNL     1       2.319   4.177   0.104  0.00  0.00    +0.234 C 
ATOM      9  O   UNL     1       3.378   3.586   0.091  0.00  0.00    -0.274 OA
ATOM     10  N   UNL     1       1.163   3.491   0.009  0.00  0.00    -0.282 N 
ATOM     11  H   UNL     1       0.208   4.031  -0.071  0.00  0.00    +0.155 HD
BRANCH  10  12
ATOM     12  C   UNL     1       1.178   2.090   0.013  0.00  0.00    +0.072 A 
ATOM     13  C   UNL     1       2.230   1.407   0.608  0.00  0.00    +0.029 A 
ATOM     14  C   UNL     1       2.244   0.026   0.611  0.00  0.00    +0.043 A 
ATOM     15  C   UNL     1       1.210  -0.680   0.022  0.00  0.00    +0.161 A 
ATOM     16  C   UNL     1       0.156  -0.003  -0.574  0.00  0.00    +0.195 A 
ATOM     17  C   UNL     1       0.139   1.381  -0.579  0.00  0.00    +0.182 A 
ATOM     18  F   UNL     1      -0.884   2.043  -1.163  0.00  0.00    -0.200 F 
ATOM     19  F   UNL     1      -0.852  -0.694  -1.149  0.00  0.00    -0.199 F 
ATOM     20  F   UNL     1       1.226  -2.031   0.026  0.00  0.00    -0.202 F 
ENDBRANCH  10  12
ENDBRANCH   7   8
ENDBRANCH   5   7
ENDBRANCH   1   3
BRANCH   1  21
ATOM     21  S   UNL     1       5.312   9.621   1.370  0.00  0.00    -0.075 S 
BRANCH  21  32
ATOM     22  N   UNL     1       7.482  11.059   2.066  0.00  0.00    -0.287 N 
ATOM     23  C   UNL     1       8.806  11.323   2.163  0.00  0.00    +0.262 A 
ATOM     24  O   UNL     1       9.210  12.341   2.695  0.00  0.00    -0.267 OA
ATOM     25  C   UNL     1       9.737  10.334   1.603  0.00  0.00    +0.065 A 
ATOM     26  C   UNL     1      11.119  10.512   1.653  0.00  0.00    +0.015 A 
ATOM     27  C   UNL     1      11.941   9.560   1.117  0.00  0.00    +0.001 A 
ATOM     28  C   UNL     1      11.415   8.420   0.525  0.00  0.00    +0.002 A 
ATOM     29  C   UNL     1      10.064   8.219   0.462  0.00  0.00    +0.028 A 
ATOM     30  C   UNL     1       9.197   9.175   1.001  0.00  0.00    +0.079 A 
ATOM     31  N   UNL     1       7.859   9.014   0.966  0.00  0.00    -0.223 NA
ATOM     32  C   UNL     1       7.047   9.912   1.467  0.00  0.00    +0.173 A 
BRANCH  22  33
ATOM     33  C   UNL     1       6.509  12.011   2.608  0.00  0.00    +0.127 C 
BRANCH  33  34
ATOM     34  C   UNL     1       6.213  11.662   4.068  0.00  0.00    +0.021 C 
BRANCH  34  36
ATOM     35  C   UNL     1       4.901  12.307   6.095  0.00  0.00    +0.004 C 
ATOM     36  C   UNL     1       5.197  12.656   4.635  0.00  0.00    -0.002 C 
ENDBRANCH  34  36
ENDBRANCH  33  34
ENDBRANCH  22  33
ENDBRANCH  21  32
ENDBRANCH   1  21
TORSDOF 9
