REMARK  Name = ZINC64613201
REMARK  4 active torsions:
REMARK  status: ('A' for Active; 'I' for Inactive)
REMARK    1  A    between atoms: C_1  and  C_2
REMARK    2  A    between atoms: C_6  and  C_8
REMARK    3  A    between atoms: C_11  and  C_14
REMARK    4  A    between atoms: C_17  and  C_20
REMARK                            x       y       z     vdW  Elec       q    Type
REMARK                         _______ _______ _______ _____ _____    ______ ____
ROOT
ATOM      1  C   UNL     1       0.053  -2.845   2.460  0.00  0.00    +0.168 C 
ATOM      2  N   UNL     1       0.045  -2.297   3.631  0.00  0.00    -0.067 NA
ATOM      3  O   UNL     1       0.065  -3.280   4.649  0.00  0.00    -0.367 OA
ATOM      4  C   UNL     1       0.086  -4.554   3.987  0.00  0.00    +0.322 C 
ATOM      5  N   UNL     1       0.072  -4.225   2.553  0.00  0.00    -0.287 N 
ATOM      6  H   UNL     1       0.077  -4.855   1.815  0.00  0.00    +0.151 HD
ENDROOT
BRANCH   1  12
ATOM      7  C   UNL     1      -0.018   1.503   0.010  0.00  0.00    +0.044 C 
ATOM      8  C   UNL     1       0.002  -0.004   0.002  0.00  0.00    -0.050 A 
ATOM      9  C   UNL     1       0.006  -0.688  -1.201  0.00  0.00    +0.003 A 
ATOM     10  C   UNL     1       0.025  -2.071  -1.217  0.00  0.00    +0.001 A 
ATOM     11  C   UNL     1       0.040  -2.777  -0.031  0.00  0.00    +0.011 A 
ATOM     12  C   UNL     1       0.036  -2.094   1.185  0.00  0.00    +0.018 A 
ATOM     13  C   UNL     1       0.023  -0.699   1.194  0.00  0.00    +0.014 A 
ENDBRANCH   1  12
BRANCH   4  14
ATOM     14  C   UNL     1      -1.154  -5.369   4.359  0.00  0.00    +0.215 C 
ATOM     15  C   UNL     1      -1.221  -5.591   5.859  0.00  0.00    +0.037 C 
ATOM     16  C   UNL     1      -2.368  -4.986   6.224  0.00  0.00    +0.091 C 
ATOM     17  N   UNL     1      -2.982  -4.441   5.141  0.00  0.00    -0.154 NA
ATOM     18  N   UNL     1      -2.381  -4.608   4.073  0.00  0.00    -0.174 NA
BRANCH  16  19
ATOM     19  C   UNL     1      -2.888  -4.925   7.612  0.00  0.00    +0.002 A 
ATOM     20  C   UNL     1      -2.174  -5.515   8.653  0.00  0.00    +0.011 A 
ATOM     21  C   UNL     1      -2.663  -5.455   9.942  0.00  0.00    +0.020 A 
ATOM     22  C   UNL     1      -3.860  -4.810  10.202  0.00  0.00    +0.041 A 
ATOM     23  C   UNL     1      -4.573  -4.223   9.171  0.00  0.00    +0.020 A 
ATOM     24  C   UNL     1      -4.090  -4.272   7.879  0.00  0.00    +0.011 A 
ATOM     25 CL   UNL     1      -4.470  -4.739  11.826  0.00  0.00    -0.084 Cl
ENDBRANCH  16  19
ENDBRANCH   4  14
TORSDOF 3
