REMARK  Name = ZINC19892406
REMARK  17 active torsions:
REMARK  status: ('A' for Active; 'I' for Inactive)
REMARK    1  A    between atoms: C_1  and  C_2
REMARK    2  A    between atoms: C_2  and  C_3
REMARK    3  A    between atoms: C_3  and  C_4
REMARK    4  A    between atoms: C_4  and  O_5
REMARK    5  A    between atoms: O_5  and  C_6
REMARK    6  A    between atoms: C_6  and  C_8
REMARK    7  A    between atoms: C_9  and  C_41
REMARK    8  A    between atoms: C_13  and  C_15
REMARK    9  A    between atoms: C_17  and  O_23
REMARK   10  A    between atoms: C_20  and  O_21
REMARK   11  A    between atoms: O_21  and  C_22
REMARK   12  A    between atoms: O_23  and  C_24
REMARK   13  A    between atoms: C_28  and  C_31
REMARK   14  A    between atoms: C_34  and  O_39
REMARK   15  A    between atoms: C_35  and  O_37
REMARK   16  A    between atoms: O_37  and  C_38
REMARK   17  A    between atoms: O_39  and  C_40
REMARK                            x       y       z     vdW  Elec       q    Type
REMARK                         _______ _______ _______ _____ _____    ______ ____
ROOT
ATOM      1  C   UNL     1       1.375   2.061   0.000  0.00  0.00    +0.065 C 
ATOM      2  C   UNL     1       2.432   1.302   0.335  0.00  0.00    +0.016 C 
ATOM      3  N   UNL     1       2.260  -0.007   0.690  0.00  0.00    -0.321 N 
ATOM      4  C   UNL     1       1.119  -0.680   0.344  0.00  0.00    +0.016 C 
ATOM      5  C   UNL     1       0.002  -0.004   0.002  0.00  0.00    +0.024 C 
ATOM      6  C   UNL     1      -0.018   1.504   0.010  0.00  0.00    +0.096 C 
ATOM      7  C   UNL     1      -1.171  -0.683  -0.372  0.00  0.00    +0.162 C 
ATOM      8  O   UNL     1      -2.162  -0.044  -0.664  0.00  0.00    -0.292 OA
ATOM      9  C   UNL     1      -1.221  -2.186  -0.416  0.00  0.00    +0.088 C 
ATOM     10  C   UNL     1       0.182  -2.723  -0.715  0.00  0.00    +0.032 C 
ATOM     11  C   UNL     1       1.143  -2.189   0.350  0.00  0.00    +0.059 C 
ATOM     12  C   UNL     1       3.816   1.897   0.321  0.00  0.00    +0.061 C 
ATOM     13  H   UNL     1       3.043  -0.530   1.259  0.00  0.00    +0.152 HD
ENDROOT
BRANCH   6  14
ATOM     14  C   UNL     1      -0.734   1.982   1.248  0.00  0.00    +0.010 A 
ATOM     15  C   UNL     1      -0.256   1.639   2.498  0.00  0.00    +0.053 A 
ATOM     16  C   UNL     1      -0.911   2.083   3.636  0.00  0.00    +0.121 A 
ATOM     17  C   UNL     1      -2.053   2.863   3.520  0.00  0.00    +0.049 A 
ATOM     18  C   UNL     1      -2.533   3.202   2.270  0.00  0.00    +0.049 A 
ATOM     19  C   UNL     1      -1.874   2.762   1.131  0.00  0.00    +0.124 A 
BRANCH  19  20
ATOM     20  O   UNL     1      -2.347   3.096  -0.099  0.00  0.00    -0.495 OA
ATOM     21  C   UNL     1      -3.526   3.902  -0.144  0.00  0.00    +0.277 C 
ENDBRANCH  19  20
BRANCH  16  22
ATOM     22  O   UNL     1      -0.438   1.749   4.867  0.00  0.00    -0.495 OA
ATOM     23  C   UNL     1      -1.167   2.236   5.996  0.00  0.00    +0.277 C 
ENDBRANCH  16  22
ENDBRANCH   6  14
BRANCH  10  24
ATOM     24  C   UNL     1       0.168  -4.229  -0.673  0.00  0.00    -0.040 A 
ATOM     25  C   UNL     1      -0.219  -4.884   0.481  0.00  0.00    +0.008 A 
ATOM     26  C   UNL     1      -0.234  -6.265   0.524  0.00  0.00    +0.049 A 
ATOM     27  C   UNL     1       0.138  -6.997  -0.592  0.00  0.00    +0.161 A 
ATOM     28  C   UNL     1       0.527  -6.338  -1.754  0.00  0.00    +0.162 A 
ATOM     29  C   UNL     1       0.535  -4.953  -1.792  0.00  0.00    +0.053 A 
BRANCH  28  30
ATOM     30  O   UNL     1       0.894  -7.052  -2.853  0.00  0.00    -0.491 OA
ATOM     31  C   UNL     1       1.281  -6.309  -4.010  0.00  0.00    +0.277 C 
ENDBRANCH  28  30
BRANCH  27  32
ATOM     32  O   UNL     1       0.124  -8.356  -0.552  0.00  0.00    -0.491 OA
ATOM     33  C   UNL     1      -0.285  -8.965   0.675  0.00  0.00    +0.277 C 
ENDBRANCH  27  32
ENDBRANCH  10  24
BRANCH   1  34
ATOM     34  C   UNL     1       1.580   3.411  -0.370  0.00  0.00    +0.338 C 
ATOM     35  O   UNL     1       2.705   3.874  -0.382  0.00  0.00    -0.245 OA
BRANCH  34  36
ATOM     36  O   UNL     1       0.527   4.184  -0.709  0.00  0.00    -0.461 OA
BRANCH  36  37
ATOM     37  C   UNL     1       0.807   5.538  -1.072  0.00  0.00    +0.232 C 
BRANCH  37  38
ATOM     38  C   UNL     1      -0.499   6.253  -1.422  0.00  0.00    +0.041 C 
BRANCH  38  40
ATOM     39  C   UNL     1      -1.506   8.417  -2.161  0.00  0.00    +0.004 C 
ATOM     40  C   UNL     1      -0.199   7.702  -1.811  0.00  0.00    -0.000 C 
ENDBRANCH  38  40
ENDBRANCH  37  38
ENDBRANCH  36  37
ENDBRANCH  34  36
ENDBRANCH   1  34
TORSDOF 11
