REMARK  Name = ZINC14072608
REMARK  16 active torsions:
REMARK  status: ('A' for Active; 'I' for Inactive)
REMARK    1  A    between atoms: C_1  and  C_2
REMARK    2  A    between atoms: C_2  and  C_3
REMARK    3  A    between atoms: C_6  and  C_9
REMARK    4  A    between atoms: C_9  and  C_11
REMARK    5  A    between atoms: C_9  and  N_33
REMARK    6  A    between atoms: C_11  and  N_12
REMARK    7  A    between atoms: C_13  and  C_15
REMARK    8  A    between atoms: C_15  and  C_16
REMARK    9  A    between atoms: C_16  and  C_17
REMARK   10  A    between atoms: C_21  and  S_27
REMARK   11  A    between atoms: N_25  and  C_26
REMARK   12  A    between atoms: S_27  and  N_30
REMARK   13  A    between atoms: N_30  and  C_31
REMARK   14  A    between atoms: N_30  and  C_32
REMARK   15  A    between atoms: N_33  and  C_34
REMARK   16  A    between atoms: N_33  and  C_35
REMARK                            x       y       z     vdW  Elec       q    Type
REMARK                         _______ _______ _______ _____ _____    ______ ____
ROOT
ATOM      1  N   UNL     1      -7.650  -2.098  -0.485  0.00  0.00    -0.317 N 
ATOM      2  C   UNL     1      -8.803  -1.476  -0.803  0.00  0.00    +0.213 C 
ATOM      3  O   UNL     1      -8.843  -0.265  -0.861  0.00  0.00    -0.276 OA
ATOM      4  H   UNL     1      -7.618  -3.066  -0.439  0.00  0.00    +0.149 HD
ENDROOT
BRANCH   1   5
ATOM      5  C   UNL     1      -6.445  -1.311  -0.210  0.00  0.00    +0.093 C 
BRANCH   5   6
ATOM      6  C   UNL     1      -5.264  -2.254   0.029  0.00  0.00    -0.021 C 
BRANCH   6  10
ATOM      7  C   UNL     1      -5.975  -4.569   3.547  0.00  0.00    -0.048 A 
ATOM      8  C   UNL     1      -6.208  -5.118   2.300  0.00  0.00    +0.004 A 
ATOM      9  C   UNL     1      -5.978  -4.369   1.161  0.00  0.00    +0.002 A 
ATOM     10  C   UNL     1      -5.516  -3.071   1.270  0.00  0.00    -0.059 A 
ATOM     11  C   UNL     1      -5.284  -2.521   2.517  0.00  0.00    +0.002 A 
ATOM     12  C   UNL     1      -5.518  -3.269   3.656  0.00  0.00    +0.004 A 
BRANCH   7  14
ATOM     13  C   UNL     1      -7.672  -5.187   5.247  0.00  0.00    +0.009 C 
ATOM     14  C   UNL     1      -6.226  -5.386   4.789  0.00  0.00    +0.032 C 
ENDBRANCH   7  14
ENDBRANCH   6  10
BRANCH   6  15
ATOM     15  N   UNL     1      -4.036  -1.467   0.201  0.00  0.00    +0.382 N 
ATOM     16  C   UNL     1      -2.910  -2.369   0.475  0.00  0.00    -0.096 C 
ATOM     17  C   UNL     1      -3.766  -0.705  -1.026  0.00  0.00    -0.096 C 
ATOM     18  H   UNL     1      -4.151  -0.829   0.974  0.00  0.00    -0.082 HD
ENDBRANCH   6  15
ENDBRANCH   5   6
ENDBRANCH   1   5
BRANCH   2  19
ATOM     19  C   UNL     1     -10.042  -2.285  -1.086  0.00  0.00    +0.103 C 
BRANCH  19  20
ATOM     20  C   UNL     1     -11.201  -1.343  -1.418  0.00  0.00    +0.083 C 
BRANCH  20  21
ATOM     21  C   UNL     1     -12.441  -2.152  -1.702  0.00  0.00    +0.111 A 
ATOM     22  N   UNL     1     -12.788  -2.598  -2.874  0.00  0.00    -0.232 NA
ATOM     23  C   UNL     1     -13.955  -3.286  -2.773  0.00  0.00    +0.091 A 
ATOM     24  C   UNL     1     -14.759  -3.959  -3.696  0.00  0.00    +0.058 A 
ATOM     25  C   UNL     1     -15.907  -4.571  -3.280  0.00  0.00    +0.108 A 
ATOM     26  C   UNL     1     -16.285  -4.533  -1.945  0.00  0.00    +0.030 A 
ATOM     27  C   UNL     1     -15.507  -3.876  -1.017  0.00  0.00    +0.030 A 
ATOM     28  C   UNL     1     -14.337  -3.247  -1.422  0.00  0.00    +0.069 A 
ATOM     29  N   UNL     1     -13.357  -2.528  -0.768  0.00  0.00    -0.331 N 
ATOM     30  C   UNL     1     -13.312  -2.224   0.664  0.00  0.00    +0.150 C 
BRANCH  25  31
ATOM     31  S   UNL     1     -16.917  -5.418  -4.449  0.00  0.00    +0.060 S 
ATOM     32  O   UNL     1     -18.229  -5.451  -3.904  0.00  0.00    -0.153 OA
ATOM     33  O   UNL     1     -16.634  -4.847  -5.719  0.00  0.00    -0.153 OA
BRANCH  31  34
ATOM     34  N   UNL     1     -16.389  -6.987  -4.507  0.00  0.00    -0.183 NA
ATOM     35  C   UNL     1     -16.968  -7.988  -3.608  0.00  0.00    +0.131 C 
ATOM     36  C   UNL     1     -15.343  -7.373  -5.458  0.00  0.00    +0.131 C 
ENDBRANCH  31  34
ENDBRANCH  25  31
ENDBRANCH  20  21
ENDBRANCH  19  20
ENDBRANCH   2  19
TORSDOF 10
