REMARK  Name = ZINC04192168
REMARK  9 active torsions:
REMARK  status: ('A' for Active; 'I' for Inactive)
REMARK    1  A    between atoms: C_1  and  C_2
REMARK    2  A    between atoms: C_7  and  C_8
REMARK    3  A    between atoms: C_13  and  C_21
REMARK    4  A    between atoms: C_13  and  C_22
REMARK    5  A    between atoms: C_15  and  S_17
REMARK    6  A    between atoms: S_17  and  C_18
REMARK    7  A    between atoms: C_18  and  C_19
REMARK    8  A    between atoms: C_26  and  C_31
REMARK    9  A    between atoms: C_28  and  O_30
REMARK                            x       y       z     vdW  Elec       q    Type
REMARK                         _______ _______ _______ _____ _____    ______ ____
ROOT
ATOM      1  C   UNL     1       0.319   0.431   2.548  0.00  0.00    +0.059 C 
ATOM      2  C   UNL     1      -0.804   0.140   3.546  0.00  0.00    +0.084 C 
ATOM      3  C   UNL     1      -0.373   0.664   4.923  0.00  0.00    +0.186 C 
ATOM      4  C   UNL     1       0.008   2.141   4.801  0.00  0.00    +0.096 C 
ATOM      5  C   UNL     1       0.191   2.715   6.214  0.00  0.00    +0.034 C 
ATOM      6  N   UNL     1      -1.086   2.547   6.925  0.00  0.00    -0.320 N 
ATOM      7  C   UNL     1      -1.770   1.361   6.783  0.00  0.00    +0.131 C 
ATOM      8  N   UNL     1      -1.468   0.495   5.872  0.00  0.00    -0.331 N 
ATOM      9  C   UNL     1       0.548   4.200   6.130  0.00  0.00    +0.031 C 
ATOM     10  C   UNL     1       1.298   1.954   6.946  0.00  0.00    +0.031 C 
ATOM     11  O   UNL     1       0.763  -0.086   5.354  0.00  0.00    -0.466 OA
ATOM     12  C   UNL     1       1.790  -0.248   4.481  0.00  0.00    +0.131 A 
ATOM     13  C   UNL     1       1.637  -0.019   3.124  0.00  0.00    +0.005 A 
ATOM     14  C   UNL     1       2.710  -0.202   2.268  0.00  0.00    -0.040 A 
ATOM     15  C   UNL     1       3.934  -0.610   2.759  0.00  0.00    +0.049 A 
ATOM     16  C   UNL     1       4.093  -0.839   4.118  0.00  0.00    +0.121 A 
ATOM     17  C   UNL     1       3.023  -0.656   4.976  0.00  0.00    +0.091 A 
ATOM     18  C   UNL     1       2.541   0.047   0.791  0.00  0.00    +0.044 C 
ATOM     19  H   UNL     1      -1.439   3.258   7.484  0.00  0.00    +0.148 HD
ATOM     20  H   UNL     1      -2.000  -0.315   5.817  0.00  0.00    +0.165 HD
ENDROOT
BRANCH   1  27
ATOM     21  C   UNL     1      -0.283   1.897   0.132  0.00  0.00    +0.044 C 
ATOM     22  C   UNL     1      -0.235   0.391   0.108  0.00  0.00    -0.047 A 
ATOM     23  C   UNL     1      -0.474  -0.290  -1.072  0.00  0.00    +0.003 A 
ATOM     24  C   UNL     1      -0.429  -1.671  -1.094  0.00  0.00    +0.000 A 
ATOM     25  C   UNL     1      -0.147  -2.372   0.063  0.00  0.00    +0.000 A 
ATOM     26  C   UNL     1       0.093  -1.692   1.242  0.00  0.00    +0.004 A 
ATOM     27  C   UNL     1       0.053  -0.310   1.264  0.00  0.00    -0.037 A 
ENDBRANCH   1  27
BRANCH  16  28
ATOM     28  O   UNL     1       5.296  -1.239   4.606  0.00  0.00    -0.507 OA
ATOM     29  H   UNL     1       5.879  -0.511   4.861  0.00  0.00    +0.292 HD
ENDBRANCH  16  28
BRANCH   7  30
ATOM     30  S   UNL     1      -3.103   1.012   7.881  0.00  0.00    -0.089 S 
BRANCH  30  31
ATOM     31  C   UNL     1      -3.170   2.464   8.966  0.00  0.00    +0.103 C 
BRANCH  31  32
ATOM     32  C   UNL     1      -4.283   2.292   9.967  0.00  0.00    -0.023 C 
ATOM     33  C   UNL     1      -4.007   2.188  11.243  0.00  0.00    +0.005 C 
ENDBRANCH  31  32
ENDBRANCH  30  31
ENDBRANCH   7  30
TORSDOF 5
