REMARK  Name = ZINC14475669
REMARK  8 active torsions:
REMARK  status: ('A' for Active; 'I' for Inactive)
REMARK    1  A    between atoms: C_4  and  C_7
REMARK    2  A    between atoms: C_7  and  C_8
REMARK    3  A    between atoms: C_8  and  N_9
REMARK    4  A    between atoms: N_9  and  S_10
REMARK    5  A    between atoms: S_10  and  C_13
REMARK    6  A    between atoms: C_26  and  C_29
REMARK    7  A    between atoms: C_31  and  N_36
REMARK    8  A    between atoms: C_34  and  O_35
REMARK                            x       y       z     vdW  Elec       q    Type
REMARK                         _______ _______ _______ _____ _____    ______ ____
ROOT
ATOM      1  C   UNL     1       1.297   5.298   1.438  0.00  0.00    +0.106 A 
ATOM      2  C   UNL     1       2.609   5.436   1.852  0.00  0.00    +0.030 A 
ATOM      3  C   UNL     1       3.505   4.402   1.675  0.00  0.00    +0.025 A 
ATOM      4  C   UNL     1       3.098   3.215   1.079  0.00  0.00    +0.031 A 
ATOM      5  C   UNL     1       1.772   3.087   0.649  0.00  0.00    -0.018 A 
ATOM      6  C   UNL     1       0.883   4.123   0.837  0.00  0.00    +0.034 A 
ATOM      7  C   UNL     1       1.385   1.817  -0.001  0.00  0.00    +0.049 C 
ATOM      8  C   UNL     1      -0.016   1.323   0.009  0.00  0.00    -0.023 C 
ATOM      9  C   UNL     1       0.002  -0.004   0.002  0.00  0.00    -0.030 C 
ATOM     10  C   UNL     1       1.447  -0.508   0.020  0.00  0.00    +0.033 C 
ATOM     11  C   UNL     1       2.174   0.665   0.691  0.00  0.00    +0.029 C 
ATOM     12  C   UNL     1       3.628   0.886   0.311  0.00  0.00    +0.108 C 
ATOM     13  N   UNL     1       4.015   2.166   0.944  0.00  0.00    -0.336 N 
ATOM     14  H   UNL     1       5.040   2.307   1.318  0.00  0.00    +0.147 HD
ENDROOT
BRANCH  12  15
ATOM     15  C   UNL     1       4.481  -0.236   0.844  0.00  0.00    +0.017 A 
ATOM     16  C   UNL     1       5.132  -0.096   2.054  0.00  0.00    +0.041 A 
ATOM     17  C   UNL     1       5.911  -1.127   2.545  0.00  0.00    +0.127 A 
ATOM     18  C   UNL     1       6.049  -2.297   1.822  0.00  0.00    +0.036 A 
ATOM     19  C   UNL     1       5.404  -2.441   0.609  0.00  0.00    +0.048 A 
ATOM     20  C   UNL     1       4.617  -1.410   0.116  0.00  0.00    +0.122 A 
BRANCH  17  21
ATOM     21  N   UNL     1       6.603  -0.976   3.845  0.00  0.00    +0.056 N 
ATOM     22  O   UNL     1       7.294  -1.882   4.276  0.00  0.00    -0.126 OA
ATOM     23  O   UNL     1       6.482   0.055   4.483  0.00  0.00    -0.126 OA
ENDBRANCH  17  21
BRANCH  20  24
ATOM     24  O   UNL     1       3.982  -1.548  -1.077  0.00  0.00    -0.506 OA
ATOM     25  H   UNL     1       4.091  -2.479  -1.653  0.00  0.00    +0.292 HD
ENDBRANCH  20  24
ENDBRANCH  12  15
BRANCH   1  26
ATOM     26  S   UNL     1       0.154   6.617   1.675  0.00  0.00    +0.058 S 
ATOM     27  O   UNL     1       0.922   7.809   1.765  0.00  0.00    -0.153 OA
ATOM     28  O   UNL     1      -0.874   6.443   0.709  0.00  0.00    -0.153 OA
BRANCH  26  29
ATOM     29  N   UNL     1      -0.549   6.394   3.158  0.00  0.00    -0.190 NA
ATOM     30  H   UNL     1      -1.582   6.020   3.213  0.00  0.00    +0.148 HD
BRANCH  29  31
ATOM     31  C   UNL     1       0.263   6.484   4.375  0.00  0.00    +0.110 C 
BRANCH  31  32
ATOM     32  C   UNL     1      -0.655   6.616   5.592  0.00  0.00    +0.052 C 
BRANCH  32  36
ATOM     33  C   UNL     1       1.712   6.877   9.138  0.00  0.00    +0.000 A 
ATOM     34  C   UNL     1       1.359   8.027   8.457  0.00  0.00    +0.000 A 
ATOM     35  C   UNL     1       0.592   7.942   7.309  0.00  0.00    +0.003 A 
ATOM     36  C   UNL     1       0.180   6.708   6.843  0.00  0.00    -0.046 A 
ATOM     37  C   UNL     1       0.530   5.559   7.527  0.00  0.00    +0.003 A 
ATOM     38  C   UNL     1       1.300   5.643   8.672  0.00  0.00    +0.000 A 
ENDBRANCH  32  36
ENDBRANCH  31  32
ENDBRANCH  29  31
ENDBRANCH  26  29
ENDBRANCH   1  26
TORSDOF 8
