REMARK  Name = ZINC08896815
REMARK  7 active torsions:
REMARK  status: ('A' for Active; 'I' for Inactive)
REMARK    1  A    between atoms: C_1  and  C_2
REMARK    2  A    between atoms: C_3  and  C_28
REMARK    3  A    between atoms: C_9  and  S_13
REMARK    4  A    between atoms: S_13  and  C_14
REMARK    5  A    between atoms: C_14  and  C_15
REMARK    6  A    between atoms: N_17  and  C_18
REMARK    7  A    between atoms: C_19  and  C_26
REMARK                            x       y       z     vdW  Elec       q    Type
REMARK                         _______ _______ _______ _____ _____    ______ ____
ROOT
ATOM      1  C   UNL     1       8.066   1.366  -0.068  0.00  0.00    +0.052 C 
ATOM      2  C   UNL     1       6.570   1.552  -0.052  0.00  0.00    -0.003 A 
ATOM      3  C   UNL     1       5.869   2.710  -0.039  0.00  0.00    +0.007 A 
ATOM      4  C   UNL     1       4.411   2.648  -0.026  0.00  0.00    +0.080 A 
ATOM      5  C   UNL     1       3.462   3.716  -0.011  0.00  0.00    +0.261 A 
ATOM      6  O   UNL     1       3.839   4.876  -0.009  0.00  0.00    -0.267 OA
ATOM      7  N   UNL     1       2.148   3.427  -0.006  0.00  0.00    -0.301 N 
ATOM      8  H   UNL     1       1.502   4.150   0.000  0.00  0.00    +0.171 HD
ATOM      9  C   UNL     1       1.708   2.135  -0.003  0.00  0.00    +0.170 A 
ATOM     10  N   UNL     1       2.562   1.131  -0.016  0.00  0.00    -0.216 NA
ATOM     11  C   UNL     1       3.871   1.350  -0.028  0.00  0.00    +0.117 A 
ATOM     12  S   UNL     1       5.302   0.300  -0.047  0.00  0.00    -0.073 S 
ENDROOT
BRANCH   3  13
ATOM     13  C   UNL     1       6.569   4.016  -0.040  0.00  0.00    -0.016 A 
ATOM     14  C   UNL     1       6.456   4.871   1.056  0.00  0.00    +0.008 A 
ATOM     15  C   UNL     1       7.115   6.083   1.053  0.00  0.00    +0.001 A 
ATOM     16  C   UNL     1       7.876   6.457  -0.040  0.00  0.00    +0.000 A 
ATOM     17  C   UNL     1       7.988   5.616  -1.132  0.00  0.00    +0.001 A 
ATOM     18  C   UNL     1       7.338   4.398  -1.138  0.00  0.00    +0.008 A 
ENDBRANCH   3  13
BRANCH   9  19
ATOM     19  S   UNL     1      -0.022   1.806   0.012  0.00  0.00    -0.078 S 
BRANCH  19  20
ATOM     20  C   UNL     1       0.002  -0.004   0.002  0.00  0.00    +0.173 C 
BRANCH  20  21
ATOM     21  C   UNL     1      -1.412  -0.526   0.013  0.00  0.00    +0.228 C 
ATOM     22  O   UNL     1      -2.344   0.250   0.026  0.00  0.00    -0.275 OA
ATOM     23  N   UNL     1      -1.640  -1.854   0.008  0.00  0.00    -0.278 N 
ATOM     24  H   UNL     1      -0.894  -2.474  -0.003  0.00  0.00    +0.155 HD
BRANCH  23  25
ATOM     25  C   UNL     1      -2.942  -2.334   0.018  0.00  0.00    +0.090 A 
ATOM     26  C   UNL     1      -3.374  -3.649   0.009  0.00  0.00    +0.084 A 
ATOM     27  C   UNL     1      -4.816  -3.889   0.027  0.00  0.00    -0.018 A 
ATOM     28  C   UNL     1      -5.579  -2.781   0.041  0.00  0.00    -0.004 A 
ATOM     29  S   UNL     1      -4.420  -1.435   0.036  0.00  0.00    -0.077 S 
ATOM     30  C   UNL     1      -7.048  -3.108   0.056  0.00  0.00    +0.043 C 
ATOM     31  C   UNL     1      -7.112  -4.590   0.487  0.00  0.00    +0.010 C 
ATOM     32  C   UNL     1      -5.735  -5.111   0.028  0.00  0.00    +0.037 C 
BRANCH  26  33
ATOM     33  C   UNL     1      -2.441  -4.735  -0.012  0.00  0.00    +0.102 C 
ATOM     34  N   UNL     1      -1.701  -5.597  -0.029  0.00  0.00    -0.191 NA
ENDBRANCH  26  33
ENDBRANCH  23  25
ENDBRANCH  20  21
ENDBRANCH  19  20
ENDBRANCH   9  19
TORSDOF 6
