REMARK  Name = ZINC39711170
REMARK  14 active torsions:
REMARK  status: ('A' for Active; 'I' for Inactive)
REMARK    1  A    between atoms: C_1  and  C_2
REMARK    2  A    between atoms: C_2  and  C_3
REMARK    3  A    between atoms: C_3  and  C_4
REMARK    4  A    between atoms: C_3  and  C_5
REMARK    5  A    between atoms: C_3  and  N_6
REMARK    6  A    between atoms: C_7  and  C_12
REMARK    7  A    between atoms: C_12  and  C_14
REMARK    8  A    between atoms: C_12  and  N_28
REMARK    9  A    between atoms: C_18  and  C_27
REMARK   10  A    between atoms: C_20  and  C_26
REMARK   11  A    between atoms: N_28  and  C_29
REMARK   12  A    between atoms: N_28  and  C_37
REMARK   13  A    between atoms: C_29  and  C_30
REMARK   14  A    between atoms: C_37  and  C_38
REMARK                            x       y       z     vdW  Elec       q    Type
REMARK                         _______ _______ _______ _____ _____    ______ ____
ROOT
ATOM      1  C   UNL     1       2.115  -1.027  -3.998  0.00  0.00    -0.010 C 
ENDROOT
BRANCH   1   2
ATOM      2  C   UNL     1       2.342  -0.348  -5.351  0.00  0.00    +0.088 C 
ATOM      3  C   UNL     1       3.824  -0.052  -5.479  0.00  0.00    -0.006 C 
ATOM      4  C   UNL     1       4.186   1.248  -5.674  0.00  0.00    -0.004 A 
ATOM      5  C   UNL     1       5.595   1.622  -5.808  0.00  0.00    -0.042 A 
ATOM      6  C   UNL     1       5.909   2.929  -6.000  0.00  0.00    +0.007 A 
ATOM      7  C   UNL     1       4.921   3.911  -6.072  0.00  0.00    -0.048 A 
ATOM      8  C   UNL     1       3.597   3.629  -5.954  0.00  0.00    +0.027 A 
ATOM      9  C   UNL     1       3.164   2.306  -5.754  0.00  0.00    +0.041 A 
ATOM     10  N   UNL     1       1.863   2.040  -5.641  0.00  0.00    -0.285 N 
ATOM     11  C   UNL     1       1.389   0.822  -5.449  0.00  0.00    +0.223 C 
ATOM     12  O   UNL     1       0.190   0.642  -5.353  0.00  0.00    -0.275 OA
ATOM     13  C   UNL     1       5.339   5.343  -6.286  0.00  0.00    +0.044 C 
ATOM     14  C   UNL     1       6.677   0.576  -5.733  0.00  0.00    +0.044 C 
ATOM     15  H   UNL     1       1.234   2.777  -5.702  0.00  0.00    +0.155 HD
ENDBRANCH   1   2
BRANCH   1  17
ATOM     16  N   UNL     1       0.399  -2.297  -5.247  0.00  0.00    -0.211 N 
ATOM     17  C   UNL     1       0.713  -1.639  -3.964  0.00  0.00    +0.183 C 
ATOM     18  N   UNL     1      -0.318  -0.587  -3.873  0.00  0.00    -0.229 N 
ATOM     19  N   UNL     1      -1.095  -0.711  -5.031  0.00  0.00    -0.064 NA
ATOM     20  N   UNL     1      -0.710  -1.617  -5.765  0.00  0.00    -0.061 NA
ATOM     21  H   UNL     1      -0.434   0.058  -3.158  0.00  0.00    +0.172 HD
BRANCH  16  22
ATOM     22  C   UNL     1       1.106  -3.426  -5.856  0.00  0.00    +0.050 C 
ATOM     23  C   UNL     1       0.797  -4.704  -5.073  0.00  0.00    +0.033 C 
ATOM     24  C   UNL     1       2.613  -3.161  -5.824  0.00  0.00    +0.033 C 
BRANCH  22  26
ATOM     25  C   UNL     1       1.291  -4.846  -7.903  0.00  0.00    +0.006 C 
ATOM     26  C   UNL     1       0.647  -3.593  -7.306  0.00  0.00    +0.023 C 
ENDBRANCH  22  26
ENDBRANCH  16  22
ENDBRANCH   1  17
BRANCH   1  27
ATOM     27  N   UNL     1       3.115  -2.085  -3.807  0.00  0.00    +0.392 N 
ATOM     28  H   UNL     1       3.350  -2.492  -4.700  0.00  0.00    -0.080 HD
BRANCH  27  29
ATOM     29  C   UNL     1       2.567  -3.124  -2.925  0.00  0.00    -0.042 C 
BRANCH  29  30
ATOM     30  C   UNL     1       2.621  -2.649  -1.496  0.00  0.00    -0.064 A 
ATOM     31  C   UNL     1       3.717  -2.951  -0.709  0.00  0.00    +0.004 A 
ATOM     32  C   UNL     1       3.768  -2.516   0.602  0.00  0.00    +0.038 A 
ATOM     33  C   UNL     1       2.721  -1.777   1.127  0.00  0.00    +0.123 A 
ATOM     34  C   UNL     1       1.624  -1.475   0.338  0.00  0.00    +0.038 A 
ATOM     35  C   UNL     1       1.578  -1.907  -0.975  0.00  0.00    +0.004 A 
ATOM     36  F   UNL     1       2.769  -1.351   2.408  0.00  0.00    -0.205 F 
ENDBRANCH  29  30
ENDBRANCH  27  29
BRANCH  27  37
ATOM     37  C   UNL     1       4.323  -1.512  -3.198  0.00  0.00    -0.002 C 
BRANCH  37  38
ATOM     38  C   UNL     1       5.469  -2.479  -3.349  0.00  0.00    +0.089 A 
ATOM     39  C   UNL     1       6.365  -2.486  -4.353  0.00  0.00    +0.042 A 
ATOM     40  C   UNL     1       7.256  -3.554  -4.099  0.00  0.00    +0.041 A 
ATOM     41  C   UNL     1       6.852  -4.135  -2.955  0.00  0.00    +0.195 A 
ATOM     42  O   UNL     1       5.773  -3.477  -2.502  0.00  0.00    -0.470 OA
ENDBRANCH  37  38
ENDBRANCH  27  37
ENDBRANCH   1  27
TORSDOF 9
