REMARK  Name = ZINC37037412
REMARK  5 active torsions:
REMARK  status: ('A' for Active; 'I' for Inactive)
REMARK    1  A    between atoms: C_5  and  N_7
REMARK    2  A    between atoms: C_8  and  C_10
REMARK    3  A    between atoms: C_10  and  S_11
REMARK    4  A    between atoms: S_11  and  C_12
REMARK    5  A    between atoms: C_17  and  N_18
REMARK                            x       y       z     vdW  Elec       q    Type
REMARK                         _______ _______ _______ _____ _____    ______ ____
ROOT
ATOM      1  C   UNL     1       0.119  -4.276   0.194  0.00  0.00    +0.170 C 
ENDROOT
BRANCH   1   3
ATOM      2  N   UNL     1       1.237  -2.080  -0.021  0.00  0.00    -0.284 N 
ATOM      3  C   UNL     1       0.086  -2.773   0.088  0.00  0.00    +0.227 C 
ATOM      4  O   UNL     1      -0.976  -2.187   0.102  0.00  0.00    -0.275 OA
ATOM      5  H   UNL     1       2.080  -2.551  -0.113  0.00  0.00    +0.155 HD
BRANCH   2  10
ATOM      6  C   UNL     1       0.154   1.372   0.637  0.00  0.00    +0.002 A 
ATOM      7  C   UNL     1       1.174   2.086   0.035  0.00  0.00    +0.001 A 
ATOM      8  C   UNL     1       2.215   1.421  -0.586  0.00  0.00    +0.016 A 
ATOM      9  C   UNL     1       2.239   0.039  -0.607  0.00  0.00    +0.035 A 
ATOM     10  C   UNL     1       1.216  -0.681  -0.002  0.00  0.00    +0.047 A 
ATOM     11  C   UNL     1       0.172  -0.009   0.620  0.00  0.00    +0.024 A 
ATOM     12  I   UNL     1       3.816  -0.969  -1.548  0.00  0.00    -0.042 I 
ENDBRANCH   2  10
ENDBRANCH   1   3
BRANCH   1  13
ATOM     13  S   UNL     1      -1.576  -4.909   0.327  0.00  0.00    -0.114 S 
BRANCH  13  14
ATOM     14  C   UNL     1      -1.370  -6.656   0.441  0.00  0.00    +0.029 A 
ATOM     15  C   UNL     1      -0.098  -7.209   0.419  0.00  0.00    +0.018 A 
ATOM     16  C   UNL     1       0.061  -8.579   0.508  0.00  0.00    +0.021 A 
ATOM     17  C   UNL     1      -1.045  -9.403   0.619  0.00  0.00    +0.043 A 
ATOM     18  C   UNL     1      -2.318  -8.859   0.641  0.00  0.00    +0.043 A 
ATOM     19  C   UNL     1      -2.486  -7.485   0.558  0.00  0.00    +0.040 A 
ATOM     20 CL   UNL     1      -0.837 -11.123   0.729  0.00  0.00    -0.083 Cl
BRANCH  19  21
ATOM     21  N   UNL     1      -3.772  -6.932   0.586  0.00  0.00    -0.357 N 
ATOM     22  H   UNL     1      -3.888  -5.971   0.523  0.00  0.00    +0.142 HD
ATOM     23  H   UNL     1      -4.546  -7.510   0.667  0.00  0.00    +0.142 HD
ENDBRANCH  19  21
ENDBRANCH  13  14
ENDBRANCH   1  13
TORSDOF 5
