REMARK  Name = ZINC43919368
REMARK  13 active torsions:
REMARK  status: ('A' for Active; 'I' for Inactive)
REMARK    1  A    between atoms: C_1  and  C_2
REMARK    2  A    between atoms: C_2  and  C_4
REMARK    3  A    between atoms: C_2  and  C_11
REMARK    4  A    between atoms: C_4  and  C_5
REMARK    5  A    between atoms: C_5  and  C_6
REMARK    6  A    between atoms: C_6  and  C_7
REMARK    7  A    between atoms: C_7  and  C_8
REMARK    8  A    between atoms: C_7  and  C_9
REMARK    9  A    between atoms: C_7  and  O_10
REMARK   10  A    between atoms: C_17  and  C_35
REMARK   11  A    between atoms: C_22  and  C_23
REMARK   12  A    between atoms: C_26  and  O_34
REMARK   13  A    between atoms: C_29  and  O_33
REMARK                            x       y       z     vdW  Elec       q    Type
REMARK                         _______ _______ _______ _____ _____    ______ ____
ROOT
ATOM      1  C   UNL     1      -1.498  -0.401   0.040  0.00  0.00    -0.002 C 
ATOM      2  C   UNL     1      -2.284  -0.036  -1.247  0.00  0.00    +0.005 C 
ATOM      3  C   UNL     1      -2.728  -1.383  -1.884  0.00  0.00    +0.009 C 
ATOM      4  C   UNL     1      -1.701  -2.373  -1.331  0.00  0.00    +0.021 C 
ATOM      5  C   UNL     1      -1.603  -1.913   0.154  0.00  0.00    -0.022 C 
ATOM      6  C   UNL     1      -0.459  -2.666   0.793  0.00  0.00    +0.008 C 
ATOM      7  C   UNL     1      -0.869  -4.145   0.881  0.00  0.00    +0.005 C 
ATOM      8  C   UNL     1      -1.176  -4.731  -0.496  0.00  0.00    +0.031 C 
ATOM      9  C   UNL     1      -2.110  -3.816  -1.291  0.00  0.00    -0.066 C 
ATOM     10  C   UNL     1      -3.213  -4.262  -1.890  0.00  0.00    -0.000 C 
ATOM     11  C   UNL     1      -2.900  -2.276   0.880  0.00  0.00    +0.012 C 
ENDROOT
BRANCH  10  12
ATOM     12  C   UNL     1      -3.563  -5.683  -1.817  0.00  0.00    +0.004 C 
ATOM     13  C   UNL     1      -4.680  -6.135  -2.424  0.00  0.00    -0.040 C 
ATOM     14  C   UNL     1      -5.596  -5.206  -3.196  0.00  0.00    +0.067 C 
ATOM     15  C   UNL     1      -7.041  -5.494  -2.775  0.00  0.00    +0.122 C 
ATOM     16  C   UNL     1      -7.373  -6.963  -3.036  0.00  0.00    +0.067 C 
ATOM     17  C   UNL     1      -6.534  -7.857  -2.117  0.00  0.00    +0.147 C 
ATOM     18  C   UNL     1      -5.066  -7.560  -2.373  0.00  0.00    -0.023 C 
ATOM     19  C   UNL     1      -4.171  -8.533  -2.542  0.00  0.00    +0.015 C 
BRANCH  17  20
ATOM     20  O   UNL     1      -6.855  -7.579  -0.752  0.00  0.00    -0.387 OA
ATOM     21  H   UNL     1      -6.359  -8.111  -0.115  0.00  0.00    +0.210 HD
ENDBRANCH  17  20
BRANCH  15  22
ATOM     22  O   UNL     1      -7.929  -4.666  -3.529  0.00  0.00    -0.391 OA
ATOM     23  H   UNL     1      -7.780  -3.718  -3.409  0.00  0.00    +0.210 HD
ENDBRANCH  15  22
ENDBRANCH  10  12
BRANCH   1  25
ATOM     24  C   UNL     1       0.548  -0.557  -1.386  0.00  0.00    +0.008 C 
ATOM     25  C   UNL     1      -0.034   0.022  -0.095  0.00  0.00    -0.010 C 
BRANCH  25  26
ATOM     26  C   UNL     1       0.055   1.549  -0.135  0.00  0.00    +0.003 C 
BRANCH  26  27
ATOM     27  C   UNL     1       1.524   1.975  -0.119  0.00  0.00    +0.003 C 
BRANCH  27  28
ATOM     28  C   UNL     1       1.613   3.502  -0.159  0.00  0.00    +0.034 C 
BRANCH  28  29
ATOM     29  C   UNL     1       3.082   3.929  -0.143  0.00  0.00    +0.061 C 
ATOM     30  C   UNL     1       3.796   3.344  -1.363  0.00  0.00    +0.041 C 
ATOM     31  C   UNL     1       3.171   5.455  -0.183  0.00  0.00    +0.041 C 
BRANCH  29  32
ATOM     32  O   UNL     1       3.704   3.447   1.050  0.00  0.00    -0.389 OA
ATOM     33  H   UNL     1       3.302   3.778   1.865  0.00  0.00    +0.210 HD
ENDBRANCH  29  32
ENDBRANCH  28  29
ENDBRANCH  27  28
ENDBRANCH  26  27
ENDBRANCH  25  26
ENDBRANCH   1  25
TORSDOF 9
