REMARK  Name = ZINC40252975
REMARK  6 active torsions:
REMARK  status: ('A' for Active; 'I' for Inactive)
REMARK    1  A    between atoms: C_8  and  C_26
REMARK    2  A    between atoms: N_9  and  C_10
REMARK    3  A    between atoms: C_10  and  C_11
REMARK    4  A    between atoms: N_13  and  C_14
REMARK    5  A    between atoms: N_13  and  C_20
REMARK    6  A    between atoms: N_31  and  C_33
REMARK                            x       y       z     vdW  Elec       q    Type
REMARK                         _______ _______ _______ _____ _____    ______ ____
ROOT
ATOM      1  C   UNL     1       0.692   2.497  -0.469  0.00  0.00    +0.002 A 
ATOM      2  C   UNL     1       2.026   2.877  -0.517  0.00  0.00    +0.002 A 
ATOM      3  C   UNL     1       3.025   1.935  -0.392  0.00  0.00    +0.028 A 
ATOM      4  C   UNL     1       2.693   0.599  -0.217  0.00  0.00    +0.069 A 
ATOM      5  C   UNL     1       1.342   0.215  -0.168  0.00  0.00    +0.089 A 
ATOM      6  C   UNL     1       0.346   1.187  -0.297  0.00  0.00    +0.030 A 
ATOM      7  N   UNL     1       1.320  -1.131   0.009  0.00  0.00    -0.232 NA
ATOM      8  C   UNL     1       2.538  -1.585   0.070  0.00  0.00    +0.116 A 
ATOM      9  N   UNL     1       3.425  -0.562  -0.064  0.00  0.00    -0.318 N 
ENDROOT
BRANCH   8  10
ATOM     10  C   UNL     1       2.912  -3.032   0.261  0.00  0.00    +0.082 C 
ATOM     11  C   UNL     1       2.258  -3.920  -0.824  0.00  0.00    +0.109 C 
ATOM     12  C   UNL     1       1.895  -5.193  -0.091  0.00  0.00    +0.221 C 
ATOM     13  O   UNL     1       1.620  -6.247  -0.625  0.00  0.00    -0.275 OA
ATOM     14  N   UNL     1       1.922  -4.986   1.236  0.00  0.00    -0.268 N 
ATOM     15  C   UNL     1       2.284  -3.599   1.553  0.00  0.00    +0.125 C 
BRANCH  14  16
ATOM     16  C   UNL     1       1.642  -5.968   2.195  0.00  0.00    +0.072 A 
ATOM     17  C   UNL     1       2.664  -6.759   2.700  0.00  0.00    +0.026 A 
ATOM     18  C   UNL     1       2.385  -7.727   3.645  0.00  0.00    +0.002 A 
ATOM     19  C   UNL     1       1.089  -7.909   4.090  0.00  0.00    +0.003 A 
ATOM     20  C   UNL     1       0.066  -7.123   3.590  0.00  0.00    +0.040 A 
ATOM     21  C   UNL     1       0.340  -6.149   2.647  0.00  0.00    +0.145 A 
ATOM     22  F   UNL     1      -0.658  -5.378   2.163  0.00  0.00    -0.204 F 
ENDBRANCH  14  16
ENDBRANCH   8  10
BRANCH   9  23
ATOM     23  C   UNL     1       4.885  -0.671  -0.048  0.00  0.00    +0.219 C 
BRANCH  23  24
ATOM     24  C   UNL     1       5.385  -0.524   1.366  0.00  0.00    +0.236 C 
ATOM     25  O   UNL     1       4.602  -0.553   2.292  0.00  0.00    -0.274 OA
ATOM     26  N   UNL     1       6.702  -0.361   1.602  0.00  0.00    -0.294 N 
BRANCH  26  27
ATOM     27  C   UNL     1       7.207  -0.373   2.977  0.00  0.00    +0.076 C 
ATOM     28  C   UNL     1       6.879  -1.718   3.629  0.00  0.00    +0.022 C 
ATOM     29  C   UNL     1       7.407  -1.730   5.065  0.00  0.00    +0.002 C 
ATOM     30  C   UNL     1       6.746  -0.603   5.861  0.00  0.00    +0.000 C 
ATOM     31  C   UNL     1       7.074   0.742   5.209  0.00  0.00    +0.002 C 
ATOM     32  C   UNL     1       6.546   0.754   3.773  0.00  0.00    +0.022 C 
ENDBRANCH  26  27
BRANCH  26  33
ATOM     33  C   UNL     1       7.628  -0.171   0.483  0.00  0.00    +0.076 C 
ATOM     34  C   UNL     1       7.320   1.155  -0.215  0.00  0.00    +0.022 C 
ATOM     35  C   UNL     1       8.287   1.353  -1.384  0.00  0.00    +0.002 C 
ATOM     36  C   UNL     1       8.127   0.203  -2.380  0.00  0.00    +0.000 C 
ATOM     37  C   UNL     1       8.435  -1.123  -1.682  0.00  0.00    +0.002 C 
ATOM     38  C   UNL     1       7.468  -1.321  -0.513  0.00  0.00    +0.022 C 
ENDBRANCH  26  33
ENDBRANCH  23  24
ENDBRANCH   9  23
TORSDOF 6
