REMARK  Name = ZINC20731328
REMARK  11 active torsions:
REMARK  status: ('A' for Active; 'I' for Inactive)
REMARK    1  A    between atoms: C_1  and  O_2
REMARK    2  A    between atoms: O_2  and  C_3
REMARK    3  A    between atoms: C_6  and  C_10
REMARK    4  A    between atoms: N_23  and  C_24
REMARK    5  A    between atoms: C_24  and  C_26
REMARK    6  A    between atoms: C_24  and  C_30
REMARK    7  A    between atoms: C_26  and  C_27
REMARK    8  A    between atoms: C_27  and  S_28
REMARK    9  A    between atoms: S_28  and  C_29
REMARK   10  A    between atoms: C_30  and  O_32
REMARK   11  A    between atoms: O_32  and  C_33
REMARK                            x       y       z     vdW  Elec       q    Type
REMARK                         _______ _______ _______ _____ _____    ______ ____
ROOT
ATOM      1  C   UNL     1      -4.979  -2.620   0.039  0.00  0.00    +0.159 C 
ATOM      2  C   UNL     1      -5.395  -2.949  -1.372  0.00  0.00    +0.064 A 
ATOM      3  C   UNL     1      -6.397  -2.328  -2.031  0.00  0.00    +0.066 A 
ATOM      4  N   UNL     1      -6.481  -2.869  -3.251  0.00  0.00    -0.240 NA
ATOM      5  C   UNL     1      -5.573  -3.802  -3.371  0.00  0.00    +0.197 A 
ATOM      6  N   UNL     1      -4.875  -3.881  -2.215  0.00  0.00    -0.346 N 
ATOM      7  H   UNL     1      -4.142  -4.488  -2.023  0.00  0.00    +0.167 HD
ATOM      8  C   UNL     1      -7.247  -1.227  -1.448  0.00  0.00    +0.076 C 
ATOM      9  C   UNL     1      -6.527  -0.639  -0.228  0.00  0.00    +0.116 C 
ATOM     10  N   UNL     1      -6.014  -1.737   0.608  0.00  0.00    -0.273 N 
ATOM     11  C   UNL     1      -6.478  -1.932   1.858  0.00  0.00    +0.304 C 
ATOM     12  O   UNL     1      -7.391  -1.248   2.281  0.00  0.00    -0.253 OA
ATOM     13  N   UNL     1      -5.931  -2.884   2.639  0.00  0.00    -0.286 N 
ATOM     14  H   UNL     1      -5.157  -3.380   2.329  0.00  0.00    +0.151 HD
ENDROOT
BRANCH   1  18
ATOM     15  C   UNL     1      -1.206  -0.608   0.012  0.00  0.00    +0.123 A 
ATOM     16  C   UNL     1      -1.934  -0.740  -1.162  0.00  0.00    +0.046 A 
ATOM     17  C   UNL     1      -3.152  -1.391  -1.151  0.00  0.00    +0.012 A 
ATOM     18  C   UNL     1      -3.649  -1.911   0.030  0.00  0.00    +0.014 A 
ATOM     19  C   UNL     1      -2.926  -1.781   1.204  0.00  0.00    +0.132 A 
ATOM     20  C   UNL     1      -1.702  -1.135   1.195  0.00  0.00    +0.084 A 
ATOM     21  F   UNL     1      -3.413  -2.290   2.357  0.00  0.00    -0.205 F 
BRANCH  15  23
ATOM     22  C   UNL     1       0.441   0.549  -1.252  0.00  0.00    +0.277 C 
ATOM     23  O   UNL     1      -0.008   0.032   0.002  0.00  0.00    -0.495 OA
ENDBRANCH  15  23
ENDBRANCH   1  18
BRANCH  13  24
ATOM     24  C   UNL     1      -6.506  -3.171   3.956  0.00  0.00    +0.184 C 
BRANCH  24  25
ATOM     25  C   UNL     1      -5.936  -2.214   4.971  0.00  0.00    +0.327 C 
ATOM     26  O   UNL     1      -5.132  -1.379   4.630  0.00  0.00    -0.249 OA
BRANCH  25  27
ATOM     27  O   UNL     1      -6.321  -2.289   6.255  0.00  0.00    -0.467 OA
ATOM     28  C   UNL     1      -5.740  -1.351   7.163  0.00  0.00    +0.280 C 
ENDBRANCH  25  27
ENDBRANCH  24  25
BRANCH  24  29
ATOM     29  C   UNL     1      -6.164  -4.606   4.360  0.00  0.00    +0.044 C 
BRANCH  29  30
ATOM     30  C   UNL     1      -6.847  -5.582   3.400  0.00  0.00    +0.071 C 
BRANCH  30  31
ATOM     31  S   UNL     1      -6.443  -7.284   3.879  0.00  0.00    -0.164 S 
ATOM     32  C   UNL     1      -7.317  -8.303   2.659  0.00  0.00    +0.084 C 
ENDBRANCH  30  31
ENDBRANCH  29  30
ENDBRANCH  24  29
ENDBRANCH  13  24
TORSDOF 8
