REMARK  Name = ZINC39751497
REMARK  11 active torsions:
REMARK  status: ('A' for Active; 'I' for Inactive)
REMARK    1  A    between atoms: C_1  and  C_2
REMARK    2  A    between atoms: C_8  and  C_10
REMARK    3  A    between atoms: C_10  and  C_12
REMARK    4  A    between atoms: C_10  and  S_13
REMARK    5  A    between atoms: S_13  and  C_14
REMARK    6  A    between atoms: C_17  and  C_22
REMARK    7  A    between atoms: N_18  and  C_19
REMARK    8  A    between atoms: C_19  and  C_20
REMARK    9  A    between atoms: C_22  and  C_24
REMARK   10  A    between atoms: C_22  and  N_25
REMARK   11  A    between atoms: C_26  and  C_28
REMARK                            x       y       z     vdW  Elec       q    Type
REMARK                         _______ _______ _______ _____ _____    ______ ____
ROOT
ATOM      1  C   UNL     1      -0.539  -9.001  -0.203  0.00  0.00    +0.193 A 
ATOM      2  N   UNL     1      -0.235  -9.307   1.036  0.00  0.00    -0.122 NA
ATOM      3  N   UNL     1      -0.390 -10.568   1.226  0.00  0.00    -0.132 NA
ATOM      4  C   UNL     1      -0.800 -11.138   0.128  0.00  0.00    +0.155 A 
ATOM      5  N   UNL     1      -0.916 -10.159  -0.820  0.00  0.00    -0.301 N 
ENDROOT
BRANCH   4   6
ATOM      6  C   UNL     1      -1.098 -12.603  -0.061  0.00  0.00    +0.138 C 
ATOM      7  C   UNL     1       0.215 -13.384  -0.147  0.00  0.00    +0.036 C 
BRANCH   6   8
ATOM      8  N   UNL     1      -1.883 -13.092   1.076  0.00  0.00    -0.302 N 
ATOM      9  C   UNL     1      -2.681 -14.168   0.930  0.00  0.00    +0.245 C 
ATOM     10  O   UNL     1      -2.751 -14.732  -0.144  0.00  0.00    -0.270 OA
ATOM     11  H   UNL     1      -1.827 -12.642   1.933  0.00  0.00    +0.150 HD
BRANCH   9  12
ATOM     12  C   UNL     1      -3.473 -14.661   2.077  0.00  0.00    +0.037 A 
ATOM     13  C   UNL     1      -3.400 -14.011   3.310  0.00  0.00    +0.014 A 
ATOM     14  C   UNL     1      -4.141 -14.476   4.376  0.00  0.00    +0.021 A 
ATOM     15  C   UNL     1      -4.956 -15.585   4.225  0.00  0.00    +0.041 A 
ATOM     16  C   UNL     1      -5.033 -16.234   3.004  0.00  0.00    +0.021 A 
ATOM     17  C   UNL     1      -4.301 -15.775   1.929  0.00  0.00    +0.014 A 
ATOM     18 CL   UNL     1      -5.886 -16.165   5.572  0.00  0.00    -0.084 Cl
ENDBRANCH   9  12
ENDBRANCH   6   8
ENDBRANCH   4   6
BRANCH   1  19
ATOM     19  S   UNL     1      -0.482  -7.397  -0.931  0.00  0.00    -0.074 S 
BRANCH  19  20
ATOM     20  C   UNL     1       0.093  -6.325   0.415  0.00  0.00    +0.137 C 
ATOM     21  C   UNL     1       1.521  -6.715   0.803  0.00  0.00    +0.029 C 
BRANCH  20  29
ATOM     22  C   UNL     1      -0.018   1.503   0.010  0.00  0.00    +0.075 C 
ATOM     23  C   UNL     1       0.002  -0.004   0.002  0.00  0.00    +0.101 A 
ATOM     24  N   UNL     1       0.010  -0.844  -1.014  0.00  0.00    -0.145 NA
ATOM     25  N   UNL     1       0.028  -2.086  -0.784  0.00  0.00    -0.126 NA
ATOM     26  C   UNL     1       0.040  -2.568   0.443  0.00  0.00    +0.188 A 
ATOM     27  S   UNL     1       0.031  -1.158   1.367  0.00  0.00    -0.036 S 
ATOM     28  N   UNL     1       0.060  -3.893   0.865  0.00  0.00    -0.262 N 
ATOM     29  C   UNL     1       0.071  -4.889  -0.043  0.00  0.00    +0.232 C 
ATOM     30  O   UNL     1       0.063  -4.630  -1.227  0.00  0.00    -0.274 OA
ATOM     31  H   UNL     1       0.067  -4.100   1.813  0.00  0.00    +0.157 HD
ENDBRANCH  20  29
ENDBRANCH  19  20
ENDBRANCH   1  19
BRANCH   5  32
ATOM     32  C   UNL     1      -1.349 -10.320  -2.210  0.00  0.00    +0.152 C 
BRANCH  32  33
ATOM     33  C   UNL     1      -0.152 -10.604  -3.080  0.00  0.00    -0.013 C 
ATOM     34  C   UNL     1      -0.132 -11.671  -3.840  0.00  0.00    +0.005 C 
ENDBRANCH  32  33
ENDBRANCH   5  32
TORSDOF 8
