REMARK  Name = ZINC40570146
REMARK  11 active torsions:
REMARK  status: ('A' for Active; 'I' for Inactive)
REMARK    1  A    between atoms: C_1  and  C_2
REMARK    2  A    between atoms: C_5  and  O_8
REMARK    3  A    between atoms: O_8  and  C_9
REMARK    4  A    between atoms: C_9  and  C_11
REMARK    5  A    between atoms: C_12  and  N_35
REMARK    6  A    between atoms: C_14  and  C_25
REMARK    7  A    between atoms: N_22  and  C_24
REMARK    8  A    between atoms: C_28  and  O_33
REMARK    9  A    between atoms: C_29  and  O_31
REMARK   10  A    between atoms: O_31  and  C_32
REMARK   11  A    between atoms: O_33  and  C_34
REMARK                            x       y       z     vdW  Elec       q    Type
REMARK                         _______ _______ _______ _____ _____    ______ ____
ROOT
ATOM      1  C   UNL     1       1.275  -6.177   1.159  0.00  0.00    +0.120 A 
ATOM      2  C   UNL     1       0.979  -6.952   2.263  0.00  0.00    +0.056 A 
ATOM      3  C   UNL     1       0.603  -8.337   2.050  0.00  0.00    +0.037 A 
ATOM      4  C   UNL     1       0.258  -9.328   3.016  0.00  0.00    -0.003 A 
ATOM      5  C   UNL     1      -0.075 -10.610   2.585  0.00  0.00    -0.034 A 
ATOM      6  C   UNL     1      -0.069 -10.906   1.236  0.00  0.00    +0.043 A 
ATOM      7  N   UNL     1       0.255  -9.978   0.349  0.00  0.00    -0.244 NA
ATOM      8  C   UNL     1       0.577  -8.754   0.701  0.00  0.00    +0.112 A 
ATOM      9  S   UNL     1       1.044  -7.300  -0.205  0.00  0.00    -0.060 S 
ATOM     10  C   UNL     1      -0.432 -12.282   0.734  0.00  0.00    +0.037 C 
ATOM     11  C   UNL     1      -0.372 -13.286   1.885  0.00  0.00    -0.073 C 
ATOM     12  N   UNL     1      -1.161 -12.758   3.009  0.00  0.00    +0.381 N 
ATOM     13  C   UNL     1      -0.433 -11.643   3.621  0.00  0.00    -0.041 C 
ATOM     14  C   UNL     1      -1.368 -13.817   4.005  0.00  0.00    -0.096 C 
ATOM     15  H   UNL     1      -2.054 -12.432   2.671  0.00  0.00    -0.082 HD
ENDROOT
BRANCH   4  16
ATOM     16  C   UNL     1       0.254  -8.998   4.459  0.00  0.00    -0.013 A 
ATOM     17  C   UNL     1      -0.750  -8.185   4.987  0.00  0.00    +0.012 A 
ATOM     18  C   UNL     1      -0.752  -7.878   6.332  0.00  0.00    +0.050 A 
ATOM     19  C   UNL     1       0.241  -8.376   7.162  0.00  0.00    +0.162 A 
ATOM     20  C   UNL     1       1.245  -9.189   6.641  0.00  0.00    +0.162 A 
ATOM     21  C   UNL     1       1.250  -9.504   5.295  0.00  0.00    +0.058 A 
BRANCH  20  22
ATOM     22  O   UNL     1       2.218  -9.676   7.457  0.00  0.00    -0.491 OA
ATOM     23  C   UNL     1       3.216 -10.503   6.854  0.00  0.00    +0.277 C 
ENDBRANCH  20  22
BRANCH  19  24
ATOM     24  O   UNL     1       0.235  -8.070   8.486  0.00  0.00    -0.491 OA
ATOM     25  C   UNL     1      -0.823  -7.231   8.954  0.00  0.00    +0.277 C 
ENDBRANCH  19  24
ENDBRANCH   4  16
BRANCH   2  26
ATOM     26  N   UNL     1       1.041  -6.420   3.543  0.00  0.00    -0.356 N 
ATOM     27  H   UNL     1       1.076  -5.458   3.667  0.00  0.00    +0.142 HD
ATOM     28  H   UNL     1       1.049  -7.009   4.313  0.00  0.00    +0.142 HD
ENDBRANCH   2  26
BRANCH   1  29
ATOM     29  C   UNL     1       1.662  -4.817   1.121  0.00  0.00    +0.353 C 
ATOM     30  O   UNL     1       1.774  -4.186   2.156  0.00  0.00    -0.244 OA
BRANCH  29  31
ATOM     31  O   UNL     1       1.907  -4.219  -0.065  0.00  0.00    -0.422 OA
BRANCH  31  36
ATOM     32  C   UNL     1       3.884   1.055  -0.005  0.00  0.00    +0.044 C 
ATOM     33  C   UNL     1       3.355  -0.356  -0.021  0.00  0.00    -0.050 A 
ATOM     34  C   UNL     1       4.201  -1.413   0.258  0.00  0.00    +0.007 A 
ATOM     35  C   UNL     1       3.719  -2.707   0.244  0.00  0.00    +0.046 A 
ATOM     36  C   UNL     1       2.384  -2.946  -0.050  0.00  0.00    +0.132 A 
ATOM     37  C   UNL     1       1.537  -1.883  -0.330  0.00  0.00    +0.046 A 
ATOM     38  C   UNL     1       2.023  -0.591  -0.310  0.00  0.00    +0.007 A 
ENDBRANCH  31  36
ENDBRANCH  29  31
ENDBRANCH   1  29
TORSDOF 7
