REMARK  Name = ZINC42073470
REMARK  6 active torsions:
REMARK  status: ('A' for Active; 'I' for Inactive)
REMARK    1  A    between atoms: C_1  and  C_2
REMARK    2  A    between atoms: C_4  and  C_22
REMARK    3  A    between atoms: C_6  and  N_8
REMARK    4  A    between atoms: N_8  and  C_9
REMARK    5  A    between atoms: C_13  and  C_21
REMARK    6  A    between atoms: C_15  and  C_20
REMARK                            x       y       z     vdW  Elec       q    Type
REMARK                         _______ _______ _______ _____ _____    ______ ____
ROOT
ATOM      1  C   UNL     1       0.048  -2.073   3.665  0.00  0.00    +0.190 C 
ATOM      2  C   UNL     1       0.620  -2.937   4.765  0.00  0.00    +0.003 A 
ATOM      3  C   UNL     1       1.854  -3.518   4.954  0.00  0.00    +0.011 A 
ATOM      4  C   UNL     1       2.095  -4.274   6.087  0.00  0.00    -0.050 A 
ATOM      5  C   UNL     1       1.094  -4.444   7.026  0.00  0.00    +0.008 A 
ATOM      6  C   UNL     1      -0.143  -3.864   6.840  0.00  0.00    -0.029 A 
ATOM      7  C   UNL     1      -0.393  -3.100   5.701  0.00  0.00    +0.042 A 
ATOM      8  N   UNL     1      -1.542  -2.423   5.291  0.00  0.00    -0.283 N 
ATOM      9  C   UNL     1      -1.371  -1.794   4.112  0.00  0.00    +0.242 C 
ATOM     10  O   UNL     1      -2.196  -1.130   3.520  0.00  0.00    -0.273 OA
ATOM     11  C   UNL     1      -1.227  -4.056   7.869  0.00  0.00    +0.045 C 
ATOM     12  C   UNL     1       3.444  -4.912   6.298  0.00  0.00    +0.044 C 
ATOM     13  H   UNL     1      -2.369  -2.405   5.797  0.00  0.00    +0.155 HD
ENDROOT
BRANCH   1  14
ATOM     14  N   UNL     1       0.051  -2.796   2.390  0.00  0.00    -0.329 N 
ATOM     15  H   UNL     1       0.064  -3.766   2.383  0.00  0.00    +0.147 HD
BRANCH  14  21
ATOM     16  C   UNL     1      -0.018   1.503   0.010  0.00  0.00    +0.044 C 
ATOM     17  C   UNL     1       0.002  -0.004   0.002  0.00  0.00    -0.048 A 
ATOM     18  C   UNL     1       0.006  -0.688  -1.200  0.00  0.00    +0.006 A 
ATOM     19  C   UNL     1       0.024  -2.071  -1.212  0.00  0.00    -0.048 A 
ATOM     20  C   UNL     1       0.039  -2.773  -0.023  0.00  0.00    +0.026 A 
ATOM     21  C   UNL     1       0.036  -2.089   1.186  0.00  0.00    +0.028 A 
ATOM     22  C   UNL     1       0.023  -0.700   1.195  0.00  0.00    +0.026 A 
ATOM     23  C   UNL     1       0.027  -2.812  -2.524  0.00  0.00    +0.044 C 
ENDBRANCH  14  21
ENDBRANCH   1  14
TORSDOF 2
