REMARK  Name = ZINC37536200
REMARK  3 active torsions:
REMARK  status: ('A' for Active; 'I' for Inactive)
REMARK    1  A    between atoms: C_1  and  C_2
REMARK    2  A    between atoms: C_13  and  O_15
REMARK    3  A    between atoms: C_20  and  C_29
REMARK                            x       y       z     vdW  Elec       q    Type
REMARK                         _______ _______ _______ _____ _____    ______ ____
ROOT
ATOM      1  C   UNL     1      -0.019   1.526   0.010  0.00  0.00    +0.014 C 
ATOM      2  C   UNL     1       0.002  -0.004   0.002  0.00  0.00    -0.003 C 
ATOM      3  C   UNL     1       0.628  -0.479  -1.289  0.00  0.00    +0.010 C 
ATOM      4  C   UNL     1       0.823  -1.995  -1.283  0.00  0.00    +0.005 C 
ATOM      5  C   UNL     1       1.729  -2.365  -0.103  0.00  0.00    -0.001 C 
ATOM      6  C   UNL     1       1.025  -1.971   1.194  0.00  0.00    -0.004 C 
ATOM      7  C   UNL     1       0.749  -0.499   1.253  0.00  0.00    +0.001 C 
ATOM      8  C   UNL     1      -0.323  -0.286   2.363  0.00  0.00    +0.007 C 
ATOM      9  C   UNL     1      -1.647  -0.698   1.684  0.00  0.00    +0.032 C 
ATOM     10  C   UNL     1      -1.433  -0.521   0.167  0.00  0.00    +0.121 C 
ATOM     11  C   UNL     1       1.872  -2.379   2.401  0.00  0.00    +0.004 C 
ATOM     12  C   UNL     1       2.130  -3.888   2.372  0.00  0.00    +0.005 C 
ATOM     13  C   UNL     1       2.853  -4.241   1.073  0.00  0.00    +0.001 C 
ATOM     14  C   UNL     1       1.963  -3.885  -0.122  0.00  0.00    -0.022 C 
ATOM     15  C   UNL     1       0.600  -4.573   0.049  0.00  0.00    +0.045 C 
ATOM     16  C   UNL     1       0.823  -6.027   0.376  0.00  0.00    -0.006 A 
ATOM     17  C   UNL     1      -0.095  -7.072   0.296  0.00  0.00    +0.138 A 
ATOM     18  N   UNL     1       0.508  -8.173   0.673  0.00  0.00    -0.182 NA
ATOM     19  N   UNL     1       1.834  -7.857   1.004  0.00  0.00    -0.281 N 
ATOM     20  H   UNL     1       2.509  -8.480   1.315  0.00  0.00    +0.189 HD
ATOM     21  C   UNL     1       2.002  -6.538   0.813  0.00  0.00    +0.040 A 
ATOM     22  C   UNL     1       3.208  -5.726   1.039  0.00  0.00    +0.059 C 
ATOM     23  C   UNL     1       2.627  -4.301  -1.436  0.00  0.00    +0.012 C 
ENDROOT
BRANCH  10  24
ATOM     24  O   UNL     1      -1.585  -1.775  -0.502  0.00  0.00    -0.391 OA
ATOM     25  H   UNL     1      -2.472  -2.153  -0.433  0.00  0.00    +0.210 HD
ENDBRANCH  10  24
TORSDOF 1
