REMARK  Name = ZINC03429165
REMARK  9 active torsions:
REMARK  status: ('A' for Active; 'I' for Inactive)
REMARK    1  A    between atoms: C_1  and  C_2
REMARK    2  A    between atoms: C_3  and  C_29
REMARK    3  A    between atoms: C_7  and  S_12
REMARK    4  A    between atoms: C_9  and  C_11
REMARK    5  A    between atoms: S_12  and  C_13
REMARK    6  A    between atoms: C_13  and  C_14
REMARK    7  A    between atoms: N_16  and  C_17
REMARK    8  A    between atoms: C_19  and  C_26
REMARK    9  A    between atoms: C_21  and  C_23
REMARK                            x       y       z     vdW  Elec       q    Type
REMARK                         _______ _______ _______ _____ _____    ______ ____
ROOT
ATOM      1  C   UNL     1       0.444   3.010   5.137  0.00  0.00    +0.227 C 
ATOM      2  O   UNL     1       0.346   3.886   4.304  0.00  0.00    -0.275 OA
ATOM      3  N   UNL     1       0.579   3.332   6.439  0.00  0.00    -0.285 N 
ATOM      4  H   UNL     1       0.735   2.636   7.097  0.00  0.00    +0.155 HD
ENDROOT
BRANCH   3   5
ATOM      5  C   UNL     1       0.493   4.669   6.843  0.00  0.00    +0.035 A 
ATOM      6  C   UNL     1      -0.372   5.535   6.190  0.00  0.00    +0.036 A 
ATOM      7  C   UNL     1      -0.459   6.870   6.590  0.00  0.00    +0.039 A 
ATOM      8  C   UNL     1       0.323   7.332   7.646  0.00  0.00    +0.026 A 
ATOM      9  C   UNL     1       1.191   6.459   8.299  0.00  0.00    +0.039 A 
ATOM     10  C   UNL     1       1.270   5.125   7.898  0.00  0.00    +0.036 A 
BRANCH   9  11
ATOM     11  C   UNL     1       2.024   6.946   9.420  0.00  0.00    +0.242 C 
ATOM     12  O   UNL     1       2.781   6.184   9.990  0.00  0.00    -0.270 OA
ATOM     13  N   UNL     1       1.944   8.233   9.810  0.00  0.00    -0.325 N 
ATOM     14  H   UNL     1       1.340   8.841   9.356  0.00  0.00    +0.145 HD
ATOM     15  H   UNL     1       2.491   8.552  10.546  0.00  0.00    +0.145 HD
ENDBRANCH   9  11
BRANCH   7  16
ATOM     16  C   UNL     1      -1.382   7.792   5.893  0.00  0.00    +0.242 C 
ATOM     17  O   UNL     1      -2.064   7.388   4.972  0.00  0.00    -0.270 OA
ATOM     18  N   UNL     1      -1.466   9.080   6.280  0.00  0.00    -0.325 N 
ATOM     19  H   UNL     1      -0.921   9.402   7.015  0.00  0.00    +0.145 HD
ATOM     20  H   UNL     1      -2.071   9.685   5.823  0.00  0.00    +0.145 HD
ENDBRANCH   7  16
ENDBRANCH   3   5
BRANCH   1  21
ATOM     21  C   UNL     1       0.415   1.563   4.717  0.00  0.00    +0.171 C 
BRANCH  21  22
ATOM     22  S   UNL     1       0.225   1.461   2.916  0.00  0.00    -0.096 S 
BRANCH  22  29
ATOM     23  C   UNL     1      -0.085   1.496   0.019  0.00  0.00    +0.045 C 
ATOM     24  C   UNL     1      -0.069  -0.011   0.012  0.00  0.00    -0.029 A 
ATOM     25  C   UNL     1      -0.179  -0.686  -1.142  0.00  0.00    -0.008 A 
ATOM     26  S   UNL     1      -0.108  -2.393  -0.634  0.00  0.00    -0.074 S 
ATOM     27  C   UNL     1       0.068  -2.154   1.114  0.00  0.00    +0.113 A 
ATOM     28  C   UNL     1       0.072  -0.749   1.255  0.00  0.00    +0.043 A 
ATOM     29  C   UNL     1       0.209  -0.270   2.587  0.00  0.00    +0.109 A 
ATOM     30  N   UNL     1       0.324  -1.142   3.578  0.00  0.00    -0.225 NA
ATOM     31  C   UNL     1       0.317  -2.446   3.371  0.00  0.00    +0.128 A 
ATOM     32  N   UNL     1       0.183  -2.950   2.159  0.00  0.00    -0.225 NA
ATOM     33  C   UNL     1       0.453  -3.379   4.546  0.00  0.00    +0.088 C 
ATOM     34  C   UNL     1      -0.328  -0.132  -2.535  0.00  0.00    +0.052 C 
ENDBRANCH  22  29
ENDBRANCH  21  22
ENDBRANCH   1  21
TORSDOF 6
