REMARK  Name = ZINC08951338
REMARK  9 active torsions:
REMARK  status: ('A' for Active; 'I' for Inactive)
REMARK    1  A    between atoms: C_1  and  C_2
REMARK    2  A    between atoms: C_4  and  C_27
REMARK    3  A    between atoms: N_5  and  C_7
REMARK    4  A    between atoms: C_7  and  C_8
REMARK    5  A    between atoms: C_10  and  C_16
REMARK    6  A    between atoms: C_13  and  O_14
REMARK    7  A    between atoms: O_14  and  C_15
REMARK    8  A    between atoms: N_17  and  N_18
REMARK    9  A    between atoms: C_19  and  C_21
REMARK                            x       y       z     vdW  Elec       q    Type
REMARK                         _______ _______ _______ _____ _____    ______ ____
ROOT
ATOM      1  C   UNL     1       1.481  -3.682   1.774  0.00  0.00    +0.016 A 
ATOM      2  C   UNL     1       2.106  -4.633   0.998  0.00  0.00    +0.018 A 
ATOM      3  C   UNL     1       3.430  -4.991   1.266  0.00  0.00    -0.005 A 
ATOM      4  C   UNL     1       4.114  -4.382   2.322  0.00  0.00    +0.013 A 
ATOM      5  C   UNL     1       3.481  -3.432   3.093  0.00  0.00    +0.046 A 
ATOM      6  C   UNL     1       2.166  -3.075   2.819  0.00  0.00    +0.125 A 
ENDROOT
BRANCH   6   7
ATOM      7  O   UNL     1       1.548  -2.134   3.578  0.00  0.00    -0.495 OA
ATOM      8  C   UNL     1       2.310  -1.550   4.637  0.00  0.00    +0.277 C 
ENDBRANCH   6   7
BRANCH   3   9
ATOM      9  C   UNL     1       4.103  -6.008   0.438  0.00  0.00    +0.138 C 
ATOM     10  N   UNL     1       5.333  -6.339   0.689  0.00  0.00    -0.187 NA
BRANCH  10  11
ATOM     11  N   UNL     1       5.973  -7.306  -0.097  0.00  0.00    -0.202 N 
ATOM     12  C   UNL     1       7.250  -7.650   0.163  0.00  0.00    +0.283 C 
ATOM     13  O   UNL     1       7.847  -7.120   1.081  0.00  0.00    -0.267 OA
ATOM     14  H   UNL     1       5.497  -7.728  -0.830  0.00  0.00    +0.178 HD
BRANCH  12  15
ATOM     15  C   UNL     1       7.924  -8.669  -0.666  0.00  0.00    +0.148 A 
ATOM     16  C   UNL     1       9.251  -9.136  -0.513  0.00  0.00    +0.054 A 
ATOM     17  C   UNL     1       9.425 -10.057  -1.489  0.00  0.00    +0.105 A 
ATOM     18  N   UNL     1       8.268 -10.131  -2.180  0.00  0.00    -0.284 N 
ATOM     19  H   UNL     1       8.111 -10.715  -2.939  0.00  0.00    +0.188 HD
ATOM     20  N   UNL     1       7.402  -9.321  -1.686  0.00  0.00    -0.169 NA
ENDBRANCH  12  15
ENDBRANCH  10  11
ENDBRANCH   3   9
BRANCH   1  21
ATOM     21  C   UNL     1       0.053  -3.295   1.486  0.00  0.00    +0.182 C 
BRANCH  21  26
ATOM     22  C   UNL     1      -0.018   1.503   0.010  0.00  0.00    +0.068 C 
ATOM     23  C   UNL     1       0.002  -0.004   0.002  0.00  0.00    +0.074 A 
ATOM     24  C   UNL     1       0.008  -0.818  -1.136  0.00  0.00    +0.061 A 
ATOM     25  C   UNL     1       0.027  -2.108  -0.725  0.00  0.00    +0.051 A 
ATOM     26  N   UNL     1       0.034  -2.109   0.625  0.00  0.00    -0.263 N 
ATOM     27  N   UNL     1       0.023  -0.777   1.058  0.00  0.00    -0.175 NA
ATOM     28  C   UNL     1       0.039  -3.324  -1.615  0.00  0.00    +0.066 C 
ATOM     29 BR   UNL     1      -0.009  -0.222  -2.930  0.00  0.00    -0.047 Br
ENDBRANCH  21  26
ENDBRANCH   1  21
TORSDOF 6
