REMARK  Name = ZINC43759909
REMARK  4 active torsions:
REMARK  status: ('A' for Active; 'I' for Inactive)
REMARK    1  A    between atoms: C_1  and  O_2
REMARK    2  A    between atoms: O_2  and  C_3
REMARK    3  A    between atoms: C_3  and  C_5
REMARK    4  A    between atoms: C_31  and  O_33
REMARK                            x       y       z     vdW  Elec       q    Type
REMARK                         _______ _______ _______ _____ _____    ______ ____
ROOT
ATOM      1  C   UNL     1      -1.244  -2.135   0.003  0.00  0.00    +0.129 C 
ATOM      2  C   UNL     1      -2.706  -2.589   0.012  0.00  0.00    +0.006 C 
ATOM      3  C   UNL     1      -3.397  -2.066  -1.254  0.00  0.00    -0.005 C 
ATOM      4  C   UNL     1      -2.715  -2.683  -2.476  0.00  0.00    -0.020 C 
ATOM      5  C   UNL     1      -3.366  -2.182  -3.741  0.00  0.00    +0.006 A 
ATOM      6  C   UNL     1      -3.634  -2.991  -4.793  0.00  0.00    -0.022 A 
ATOM      7  C   UNL     1      -4.251  -2.174  -5.814  0.00  0.00    +0.003 A 
ATOM      8  C   UNL     1      -4.735  -2.456  -7.095  0.00  0.00    +0.010 A 
ATOM      9  C   UNL     1      -5.268  -1.407  -7.803  0.00  0.00    +0.001 A 
ATOM     10  C   UNL     1      -5.329  -0.124  -7.284  0.00  0.00    +0.002 A 
ATOM     11  C   UNL     1      -4.859   0.184  -6.020  0.00  0.00    +0.026 A 
ATOM     12  C   UNL     1      -4.313  -0.861  -5.277  0.00  0.00    +0.047 A 
ATOM     13  N   UNL     1      -3.770  -0.907  -4.024  0.00  0.00    -0.359 N 
ATOM     14  H   UNL     1      -3.684  -0.148  -3.425  0.00  0.00    +0.166 HD
ATOM     15  C   UNL     1      -3.311  -4.464  -4.811  0.00  0.00    +0.019 C 
ATOM     16  C   UNL     1      -2.338  -4.750  -3.658  0.00  0.00    -0.073 C 
ATOM     17  N   UNL     1      -2.849  -4.146  -2.423  0.00  0.00    +0.386 N 
ATOM     18  C   UNL     1      -2.124  -4.663  -1.257  0.00  0.00    -0.073 C 
ATOM     19  C   UNL     1      -2.768  -4.117   0.033  0.00  0.00    -0.010 C 
ATOM     20  C   UNL     1      -2.044  -4.653   1.267  0.00  0.00    +0.061 C 
ATOM     21  C   UNL     1      -0.584  -4.197   1.247  0.00  0.00    +0.047 C 
ATOM     22  C   UNL     1      -0.530  -2.679   1.241  0.00  0.00    +0.130 C 
ATOM     23 BR   UNL     1      -2.920  -3.970   2.889  0.00  0.00    -0.088 Br
ATOM     24  H   UNL     1      -3.825  -4.382  -2.323  0.00  0.00    -0.081 HD
ENDROOT
BRANCH   1  25
ATOM     25  C   UNL     1      -1.185  -0.630   0.010  0.00  0.00    +0.313 C 
ATOM     26  O   UNL     1      -2.208   0.015   0.023  0.00  0.00    -0.250 OA
BRANCH  25  28
ATOM     27  C   UNL     1      -0.017   1.425   0.010  0.00  0.00    +0.280 C 
ATOM     28  O   UNL     1       0.002  -0.004   0.002  0.00  0.00    -0.468 OA
ENDBRANCH  25  28
ENDBRANCH   1  25
BRANCH  22  29
ATOM     29  O   UNL     1       0.833  -2.248   1.233  0.00  0.00    -0.391 OA
ATOM     30  H   UNL     1       1.347  -2.556   1.992  0.00  0.00    +0.210 HD
ENDBRANCH  22  29
TORSDOF 3
