REMARK  Name = ZINC35502448
REMARK  4 active torsions:
REMARK  status: ('A' for Active; 'I' for Inactive)
REMARK    1  A    between atoms: C_1  and  N_2
REMARK    2  A    between atoms: N_2  and  C_3
REMARK    3  A    between atoms: C_3  and  C_5
REMARK    4  A    between atoms: C_3  and  C_13
REMARK                            x       y       z     vdW  Elec       q    Type
REMARK                         _______ _______ _______ _____ _____    ______ ____
ROOT
ATOM      1  C   UNL     1       0.690  -0.478  -1.207  0.00  0.00    -0.007 C 
ENDROOT
BRANCH   1   2
ATOM      2  C   UNL     1       0.585  -1.974  -1.357  0.00  0.00    -0.037 A 
ATOM      3  C   UNL     1       1.713  -2.762  -1.226  0.00  0.00    +0.023 A 
ATOM      4  C   UNL     1       1.618  -4.135  -1.364  0.00  0.00    +0.041 A 
ATOM      5  C   UNL     1       0.393  -4.719  -1.633  0.00  0.00    +0.021 A 
ATOM      6  C   UNL     1      -0.735  -3.932  -1.764  0.00  0.00    +0.021 A 
ATOM      7  C   UNL     1      -0.640  -2.559  -1.620  0.00  0.00    +0.043 A 
ATOM      8 CL   UNL     1      -2.058  -1.569  -1.777  0.00  0.00    -0.083 Cl
ATOM      9 CL   UNL     1       3.034  -5.125  -1.200  0.00  0.00    -0.084 Cl
ENDBRANCH   1   2
BRANCH   1  10
ATOM     10  C   UNL     1       2.131  -0.059  -1.337  0.00  0.00    -0.030 A 
ATOM     11  C   UNL     1       2.928   0.074  -0.213  0.00  0.00    +0.031 A 
ATOM     12  C   UNL     1       4.221   0.452  -0.366  0.00  0.00    +0.080 A 
ATOM     13  S   UNL     1       4.347   0.632  -2.138  0.00  0.00    -0.065 S 
ATOM     14  C   UNL     1       2.670   0.187  -2.557  0.00  0.00    +0.081 A 
ATOM     15 CL   UNL     1       1.921   0.095  -4.120  0.00  0.00    -0.076 Cl
ATOM     16 CL   UNL     1       5.439   0.697   0.847  0.00  0.00    -0.076 Cl
ENDBRANCH   1  10
BRANCH   1  18
ATOM     17  C   UNL     1       0.172   1.384   0.215  0.00  0.00    -0.099 C 
ATOM     18  N   UNL     1       0.182  -0.082   0.114  0.00  0.00    +0.385 N 
ATOM     19  H   UNL     1       0.778  -0.464   0.832  0.00  0.00    -0.085 HD
ATOM     20  H   UNL     1      -0.756  -0.433   0.233  0.00  0.00    -0.085 HD
ENDBRANCH   1  18
TORSDOF 3
