REMARK  Name = ZINC39662312
REMARK  7 active torsions:
REMARK  status: ('A' for Active; 'I' for Inactive)
REMARK    1  A    between atoms: C_4  and  C_7
REMARK    2  A    between atoms: C_7  and  C_9
REMARK    3  A    between atoms: C_7  and  N_11
REMARK    4  A    between atoms: C_12  and  C_14
REMARK    5  A    between atoms: C_25  and  C_27
REMARK    6  A    between atoms: C_30  and  O_33
REMARK    7  A    between atoms: O_33  and  C_34
REMARK                            x       y       z     vdW  Elec       q    Type
REMARK                         _______ _______ _______ _____ _____    ______ ____
ROOT
ATOM      1  C   UNL     1       4.324  -4.078  -2.759  0.00  0.00    +0.100 C 
ATOM      2  C   UNL     1       3.439  -3.429  -3.846  0.00  0.00    +0.121 C 
ATOM      3  N   UNL     1       4.396  -2.954  -4.873  0.00  0.00    -0.296 N 
ATOM      4  C   UNL     1       5.418  -4.025  -4.948  0.00  0.00    +0.115 C 
ATOM      5  C   UNL     1       5.620  -4.472  -3.486  0.00  0.00    -0.004 C 
ATOM      6  C   UNL     1       5.827  -5.982  -3.419  0.00  0.00    -0.010 C 
ATOM      7  C   UNL     1       7.151  -6.342  -4.098  0.00  0.00    -0.082 C 
ATOM      8  N   UNL     1       8.254  -5.646  -3.424  0.00  0.00    +0.379 N 
ATOM      9  C   UNL     1       8.096  -4.195  -3.575  0.00  0.00    -0.082 C 
ATOM     10  C   UNL     1       6.812  -3.744  -2.873  0.00  0.00    -0.010 C 
ATOM     11  C   UNL     1       4.348  -1.807  -5.579  0.00  0.00    +0.247 C 
ATOM     12  O   UNL     1       3.512  -0.965  -5.315  0.00  0.00    -0.270 OA
ATOM     13  H   UNL     1       8.251  -5.884  -2.444  0.00  0.00    -0.086 HD
ATOM     14  H   UNL     1       9.130  -5.932  -3.834  0.00  0.00    -0.086 HD
ENDROOT
BRANCH  11  15
ATOM     15  C   UNL     1       5.312  -1.573  -6.672  0.00  0.00    +0.037 A 
ATOM     16  C   UNL     1       5.966  -2.651  -7.273  0.00  0.00    +0.016 A 
ATOM     17  C   UNL     1       6.864  -2.429  -8.293  0.00  0.00    +0.047 A 
ATOM     18  C   UNL     1       7.120  -1.133  -8.725  0.00  0.00    +0.130 A 
ATOM     19  C   UNL     1       6.471  -0.057  -8.131  0.00  0.00    +0.047 A 
ATOM     20  C   UNL     1       5.568  -0.272  -7.114  0.00  0.00    +0.016 A 
BRANCH  18  21
ATOM     21  O   UNL     1       8.006  -0.917  -9.730  0.00  0.00    -0.406 OA
BRANCH  21  22
ATOM     22  C   UNL     1       8.222   0.439 -10.125  0.00  0.00    +0.575 C 
ATOM     23  F   UNL     1       8.705   1.171  -9.035  0.00  0.00    -0.133 F 
ATOM     24  F   UNL     1       9.158   0.478 -11.165  0.00  0.00    -0.133 F 
ATOM     25  F   UNL     1       7.015   0.995 -10.563  0.00  0.00    -0.133 F 
ENDBRANCH  21  22
ENDBRANCH  18  21
ENDBRANCH  11  15
BRANCH   1  27
ATOM     26  N   UNL     1       4.936  -3.525  -0.427  0.00  0.00    -0.296 N 
ATOM     27  C   UNL     1       4.618  -3.088  -1.661  0.00  0.00    +0.219 C 
ATOM     28  O   UNL     1       4.567  -1.898  -1.889  0.00  0.00    -0.275 OA
ATOM     29  H   UNL     1       4.977  -4.477  -0.245  0.00  0.00    +0.150 HD
BRANCH  26  30
ATOM     30  C   UNL     1       5.222  -2.562   0.640  0.00  0.00    +0.207 C 
BRANCH  30  34
ATOM     31  C   UNL     1       4.438  -4.366   4.432  0.00  0.00    +0.000 A 
ATOM     32  C   UNL     1       4.088  -3.047   4.208  0.00  0.00    +0.000 A 
ATOM     33  C   UNL     1       4.342  -2.464   2.981  0.00  0.00    +0.006 A 
ATOM     34  C   UNL     1       4.946  -3.198   1.978  0.00  0.00    -0.013 A 
ATOM     35  C   UNL     1       5.297  -4.516   2.202  0.00  0.00    +0.006 A 
ATOM     36  C   UNL     1       5.042  -5.101   3.429  0.00  0.00    +0.000 A 
ENDBRANCH  30  34
BRANCH  30  37
ATOM     37  C   UNL     1       6.636  -2.159   0.571  0.00  0.00    +0.090 C 
ATOM     38  N   UNL     1       7.728  -1.848   0.517  0.00  0.00    -0.194 NA
ENDBRANCH  30  37
ENDBRANCH  26  30
ENDBRANCH   1  27
TORSDOF 7
