REMARK  Name = ZINC10087523
REMARK  10 active torsions:
REMARK  status: ('A' for Active; 'I' for Inactive)
REMARK    1  A    between atoms: C_1  and  C_2
REMARK    2  A    between atoms: C_3  and  C_16
REMARK    3  A    between atoms: C_4  and  C_15
REMARK    4  A    between atoms: C_16  and  C_17
REMARK    5  A    between atoms: C_17  and  C_18
REMARK    6  A    between atoms: N_20  and  N_21
REMARK    7  A    between atoms: C_22  and  C_24
REMARK    8  A    between atoms: C_24  and  O_25
REMARK    9  A    between atoms: O_25  and  C_26
REMARK   10  A    between atoms: C_31  and  C_32
REMARK                            x       y       z     vdW  Elec       q    Type
REMARK                         _______ _______ _______ _____ _____    ______ ____
ROOT
ATOM      1  C   UNL     1      -0.018   1.503   0.010  0.00  0.00    +0.229 C 
ATOM      2  O   UNL     1      -1.077   2.095   0.018  0.00  0.00    -0.274 OA
ATOM      3  N   UNL     1       1.139   2.192   0.003  0.00  0.00    -0.234 N 
ATOM      4  H   UNL     1       1.986   1.719  -0.008  0.00  0.00    +0.173 HD
ENDROOT
BRANCH   3   5
ATOM      5  N   UNL     1       1.121   3.593   0.011  0.00  0.00    -0.232 N 
ATOM      6  C   UNL     1       2.278   4.283   0.003  0.00  0.00    +0.267 C 
ATOM      7  O   UNL     1       3.337   3.691  -0.010  0.00  0.00    -0.271 OA
ATOM      8  H   UNL     1       0.274   4.067   0.021  0.00  0.00    +0.173 HD
BRANCH   6   9
ATOM      9  C   UNL     1       2.258   5.790   0.012  0.00  0.00    +0.326 C 
BRANCH   9  10
ATOM     10  O   UNL     1       3.599   6.285   0.001  0.00  0.00    -0.482 OA
BRANCH  10  11
ATOM     11  C   UNL     1       3.758   7.633   0.007  0.00  0.00    +0.129 A 
ATOM     12  C   UNL     1       2.650   8.465   0.022  0.00  0.00    +0.046 A 
ATOM     13  C   UNL     1       2.813   9.837   0.028  0.00  0.00    +0.004 A 
ATOM     14  C   UNL     1       4.083  10.389   0.019  0.00  0.00    +0.001 A 
ATOM     15  C   UNL     1       5.195   9.572   0.005  0.00  0.00    +0.012 A 
ATOM     16  C   UNL     1       5.042   8.188   0.004  0.00  0.00    +0.024 A 
BRANCH  16  17
ATOM     17  C   UNL     1       6.234   7.306  -0.006  0.00  0.00    -0.014 A 
ATOM     18  C   UNL     1       6.343   6.266   0.915  0.00  0.00    +0.008 A 
ATOM     19  C   UNL     1       7.452   5.446   0.898  0.00  0.00    +0.001 A 
ATOM     20  C   UNL     1       8.461   5.661  -0.024  0.00  0.00    +0.000 A 
ATOM     21  C   UNL     1       8.361   6.694  -0.938  0.00  0.00    +0.001 A 
ATOM     22  C   UNL     1       7.253   7.518  -0.933  0.00  0.00    +0.008 A 
ENDBRANCH  16  17
ENDBRANCH  10  11
ENDBRANCH   9  10
ENDBRANCH   6   9
ENDBRANCH   3   5
BRANCH   1  23
ATOM     23  C   UNL     1       0.002  -0.004   0.002  0.00  0.00    +0.102 C 
BRANCH  23  24
ATOM     24  C   UNL     1      -1.433  -0.534   0.013  0.00  0.00    +0.048 C 
BRANCH  24  27
ATOM     25  C   UNL     1      -1.389  -2.015   2.521  0.00  0.00    +0.066 C 
ATOM     26  C   UNL     1      -1.392  -2.754   1.208  0.00  0.00    +0.045 A 
ATOM     27  C   UNL     1      -1.413  -2.041   0.005  0.00  0.00    -0.005 A 
ATOM     28  C   UNL     1      -1.420  -2.720  -1.171  0.00  0.00    +0.047 A 
ATOM     29  N   UNL     1      -1.397  -4.083  -1.151  0.00  0.00    -0.217 N 
ATOM     30  C   UNL     1      -1.376  -4.743   0.044  0.00  0.00    +0.164 A 
ATOM     31  N   UNL     1      -1.374  -4.069   1.194  0.00  0.00    -0.232 NA
ATOM     32  C   UNL     1      -1.361  -6.124  -0.246  0.00  0.00    +0.046 A 
ATOM     33  C   UNL     1      -1.337  -7.277   0.552  0.00  0.00    +0.014 A 
ATOM     34  C   UNL     1      -1.326  -8.506  -0.035  0.00  0.00    +0.001 A 
ATOM     35  C   UNL     1      -1.338  -8.636  -1.423  0.00  0.00    +0.002 A 
ATOM     36  C   UNL     1      -1.361  -7.542  -2.230  0.00  0.00    +0.030 A 
ATOM     37  C   UNL     1      -1.373  -6.252  -1.660  0.00  0.00    +0.095 A 
ATOM     38  N   UNL     1      -1.394  -5.030  -2.183  0.00  0.00    -0.165 NA
ATOM     39  C   UNL     1      -1.449  -1.977  -2.482  0.00  0.00    +0.066 C 
ENDBRANCH  24  27
ENDBRANCH  23  24
ENDBRANCH   1  23
TORSDOF 8
