REMARK  Name = ZINC27008476
REMARK  6 active torsions:
REMARK  status: ('A' for Active; 'I' for Inactive)
REMARK    1  A    between atoms: C_4  and  C_7
REMARK    2  A    between atoms: C_8  and  C_18
REMARK    3  A    between atoms: N_10  and  C_12
REMARK    4  A    between atoms: N_20  and  N_21
REMARK    5  A    between atoms: C_22  and  C_24
REMARK    6  A    between atoms: C_24  and  C_25
REMARK                            x       y       z     vdW  Elec       q    Type
REMARK                         _______ _______ _______ _____ _____    ______ ____
ROOT
ATOM      1  C   UNL     1       3.300   4.029   1.478  0.00  0.00    +0.264 C 
ATOM      2  O   UNL     1       3.541   2.847   1.630  0.00  0.00    -0.269 OA
ATOM      3  N   UNL     1       4.100   4.958   2.038  0.00  0.00    -0.230 N 
ATOM      4  H   UNL     1       3.882   6.027   1.899  0.00  0.00    +0.173 HD
ENDROOT
BRANCH   1   6
ATOM      5  C   UNL     1       1.169   3.569   0.010  0.00  0.00    +0.105 A 
ATOM      6  C   UNL     1       2.133   4.446   0.681  0.00  0.00    +0.084 A 
ATOM      7  C   UNL     1       1.730   5.740   0.420  0.00  0.00    +0.128 A 
ATOM      8  N   UNL     1       0.623   5.681  -0.341  0.00  0.00    -0.239 N 
ATOM      9  N   UNL     1       0.294   4.346  -0.589  0.00  0.00    -0.166 NA
BRANCH   5  13
ATOM     10  C   UNL     1       1.208  -0.682  -0.013  0.00  0.00    +0.000 A 
ATOM     11  C   UNL     1       0.002  -0.004   0.002  0.00  0.00    +0.001 A 
ATOM     12  C   UNL     1      -0.017   1.376   0.010  0.00  0.00    +0.010 A 
ATOM     13  C   UNL     1       1.183   2.087   0.002  0.00  0.00    +0.003 A 
ATOM     14  C   UNL     1       2.394   1.398  -0.013  0.00  0.00    +0.010 A 
ATOM     15  C   UNL     1       2.401   0.018  -0.021  0.00  0.00    +0.001 A 
ENDBRANCH   5  13
BRANCH   8  16
ATOM     16  C   UNL     1      -0.088   6.790  -0.817  0.00  0.00    +0.065 A 
ATOM     17  C   UNL     1       0.335   8.075  -0.505  0.00  0.00    +0.028 A 
ATOM     18  C   UNL     1      -0.365   9.166  -0.982  0.00  0.00    +0.002 A 
ATOM     19  C   UNL     1      -1.494   8.979  -1.758  0.00  0.00    +0.000 A 
ATOM     20  C   UNL     1      -1.922   7.701  -2.066  0.00  0.00    +0.002 A 
ATOM     21  C   UNL     1      -1.222   6.606  -1.597  0.00  0.00    +0.028 A 
ENDBRANCH   8  16
ENDBRANCH   1   6
BRANCH   3  22
ATOM     22  N   UNL     1       5.210   4.561   2.795  0.00  0.00    -0.234 N 
ATOM     23  C   UNL     1       6.010   5.490   3.355  0.00  0.00    +0.233 C 
ATOM     24  O   UNL     1       5.770   6.669   3.203  0.00  0.00    -0.274 OA
ATOM     25  H   UNL     1       5.428   3.492   2.933  0.00  0.00    +0.173 HD
BRANCH  23  26
ATOM     26  C   UNL     1       7.204   5.064   4.170  0.00  0.00    +0.134 C 
BRANCH  26  27
ATOM     27  C   UNL     1       7.926   6.284   4.680  0.00  0.00    -0.014 A 
ATOM     28  C   UNL     1       8.984   6.882   4.109  0.00  0.00    +0.087 A 
ATOM     29  N   UNL     1       9.367   7.963   4.855  0.00  0.00    -0.360 N 
ATOM     30  H   UNL     1      10.220   8.579   4.533  0.00  0.00    +0.165 HD
ATOM     31  C   UNL     1       8.550   8.085   5.956  0.00  0.00    +0.047 A 
ATOM     32  C   UNL     1       7.611   7.039   5.895  0.00  0.00    +0.003 A 
ATOM     33  C   UNL     1       6.643   6.912   6.893  0.00  0.00    +0.010 A 
ATOM     34  C   UNL     1       6.613   7.806   7.926  0.00  0.00    +0.001 A 
ATOM     35  C   UNL     1       7.537   8.839   7.992  0.00  0.00    +0.002 A 
ATOM     36  C   UNL     1       8.500   8.984   7.017  0.00  0.00    +0.026 A 
ENDBRANCH  26  27
ENDBRANCH  23  26
ENDBRANCH   3  22
TORSDOF 6
