REMARK  Name = ZINC08131196
REMARK  5 active torsions:
REMARK  status: ('A' for Active; 'I' for Inactive)
REMARK    1  A    between atoms: C_1  and  C_2
REMARK    2  A    between atoms: N_11  and  C_15
REMARK    3  A    between atoms: C_15  and  C_16
REMARK    4  A    between atoms: C_21  and  O_22
REMARK    5  A    between atoms: O_22  and  C_23
REMARK                            x       y       z     vdW  Elec       q    Type
REMARK                         _______ _______ _______ _____ _____    ______ ____
ROOT
ATOM      1  C   UNL     1       1.346   3.608   0.040  0.00  0.00    +0.010 C 
ATOM      2  C   UNL     1       1.400   2.079  -0.000  0.00  0.00    +0.018 C 
ATOM      3  C   UNL     1       2.162   1.564   1.223  0.00  0.00    +0.006 C 
ATOM      4  C   UNL     1       2.198   0.035   1.193  0.00  0.00    +0.000 C 
ATOM      5  C   UNL     1       0.769  -0.512   1.226  0.00  0.00    +0.003 C 
ATOM      6  C   UNL     1       0.002  -0.004   0.002  0.00  0.00    +0.035 C 
ATOM      7  C   UNL     1      -0.019   1.520   0.010  0.00  0.00    +0.115 C 
ATOM      8  C   UNL     1      -0.777   2.030   1.215  0.00  0.00    +0.247 C 
ATOM      9  O   UNL     1      -0.506   1.850   2.382  0.00  0.00    -0.273 OA
ATOM     10  N   UNL     1      -1.818   2.728   0.716  0.00  0.00    -0.220 N 
ATOM     11  C   UNL     1      -1.817   2.726  -0.623  0.00  0.00    +0.310 C 
ATOM     12  O   UNL     1      -2.655   3.288  -1.301  0.00  0.00    -0.252 OA
ATOM     13  N   UNL     1      -0.782   2.032  -1.135  0.00  0.00    -0.285 N 
ATOM     14  H   UNL     1      -0.582   1.896  -2.074  0.00  0.00    +0.151 HD
ENDROOT
BRANCH  10  15
ATOM     15  C   UNL     1      -2.825   3.405   1.537  0.00  0.00    +0.156 C 
BRANCH  15  16
ATOM     16  C   UNL     1      -2.379   4.817   1.817  0.00  0.00    +0.012 A 
ATOM     17  C   UNL     1      -1.803   5.131   3.034  0.00  0.00    +0.009 A 
ATOM     18  C   UNL     1      -1.389   6.425   3.290  0.00  0.00    +0.001 A 
ATOM     19  C   UNL     1      -1.559   7.410   2.334  0.00  0.00    +0.004 A 
ATOM     20  C   UNL     1      -2.139   7.102   1.118  0.00  0.00    +0.046 A 
ATOM     21  C   UNL     1      -2.550   5.803   0.857  0.00  0.00    +0.125 A 
BRANCH  21  22
ATOM     22  O   UNL     1      -3.121   5.497  -0.338  0.00  0.00    -0.495 OA
ATOM     23  C   UNL     1      -3.266   6.562  -1.279  0.00  0.00    +0.277 C 
ENDBRANCH  21  22
ENDBRANCH  15  16
ENDBRANCH  10  15
TORSDOF 3
