REMARK  Name = ZINC35641291
REMARK  12 active torsions:
REMARK  status: ('A' for Active; 'I' for Inactive)
REMARK    1  A    between atoms: C_1  and  C_2
REMARK    2  A    between atoms: C_2  and  O_3
REMARK    3  A    between atoms: O_3  and  C_4
REMARK    4  A    between atoms: C_4  and  C_6
REMARK    5  A    between atoms: C_7  and  C_25
REMARK    6  A    between atoms: N_8  and  C_22
REMARK    7  A    between atoms: C_12  and  C_14
REMARK    8  A    between atoms: C_22  and  C_23
REMARK    9  A    between atoms: C_25  and  N_26
REMARK   10  A    between atoms: N_26  and  C_27
REMARK   11  A    between atoms: N_26  and  C_28
REMARK   12  A    between atoms: N_31  and  C_34
REMARK                            x       y       z     vdW  Elec       q    Type
REMARK                         _______ _______ _______ _____ _____    ______ ____
ROOT
ATOM      1  C   UNL     1       1.301  -2.289  -2.507  0.00  0.00    +0.080 C 
ATOM      2  C   UNL     1       1.584  -3.609  -2.532  0.00  0.00    +0.041 C 
ATOM      3  N   UNL     1       2.304  -4.157  -3.555  0.00  0.00    -0.254 N 
ATOM      4  C   UNL     1       2.777  -3.452  -4.590  0.00  0.00    +0.307 C 
ATOM      5  O   UNL     1       3.409  -4.029  -5.454  0.00  0.00    -0.252 OA
ATOM      6  N   UNL     1       2.576  -2.125  -4.706  0.00  0.00    -0.288 N 
ATOM      7  C   UNL     1       1.805  -1.438  -3.656  0.00  0.00    +0.145 C 
ATOM      8  H   UNL     1       2.929  -1.634  -5.464  0.00  0.00    +0.151 HD
ENDROOT
BRANCH   7   9
ATOM      9  C   UNL     1       0.614  -0.780  -4.303  0.00  0.00    -0.004 A 
ATOM     10  C   UNL     1      -0.012  -1.385  -5.377  0.00  0.00    +0.008 A 
ATOM     11  C   UNL     1      -1.104  -0.782  -5.971  0.00  0.00    +0.020 A 
ATOM     12  C   UNL     1      -1.572   0.429  -5.492  0.00  0.00    +0.042 A 
ATOM     13  C   UNL     1      -0.946   1.035  -4.417  0.00  0.00    +0.040 A 
ATOM     14  C   UNL     1       0.144   0.428  -3.820  0.00  0.00    +0.048 A 
ATOM     15 CL   UNL     1       0.926   1.185  -2.467  0.00  0.00    -0.083 Cl
ATOM     16 CL   UNL     1      -2.943   1.187  -6.239  0.00  0.00    -0.083 Cl
ENDBRANCH   7   9
BRANCH   1  17
ATOM     17  C   UNL     1       0.555  -1.720  -1.449  0.00  0.00    +0.339 C 
ATOM     18  O   UNL     1      -0.620  -1.447  -1.611  0.00  0.00    -0.245 OA
BRANCH  17  19
ATOM     19  O   UNL     1       1.145  -1.480  -0.260  0.00  0.00    -0.462 OA
BRANCH  19  21
ATOM     20  C   UNL     1       1.169  -0.708   2.030  0.00  0.00    +0.048 C 
ATOM     21  C   UNL     1       0.332  -0.905   0.765  0.00  0.00    +0.229 C 
ENDBRANCH  19  21
ENDBRANCH  17  19
ENDBRANCH   1  17
BRANCH   3  22
ATOM     22  C   UNL     1       2.574  -5.596  -3.517  0.00  0.00    +0.141 C 
BRANCH  22  23
ATOM     23  C   UNL     1       1.463  -6.334  -4.220  0.00  0.00    -0.015 C 
ATOM     24  C   UNL     1       1.742  -7.155  -5.202  0.00  0.00    +0.005 C 
ENDBRANCH  22  23
ENDBRANCH   3  22
BRANCH   2  25
ATOM     25  C   UNL     1       1.097  -4.492  -1.412  0.00  0.00    +0.136 C 
BRANCH  25  26
ATOM     26  N   UNL     1       0.093  -5.432  -1.930  0.00  0.00    -0.297 NA
ATOM     27  C   UNL     1      -1.116  -4.722  -2.366  0.00  0.00    +0.105 C 
BRANCH  26  28
ATOM     28  C   UNL     1      -0.230  -6.460  -0.931  0.00  0.00    +0.053 C 
ATOM     29  C   UNL     1       1.034  -7.249  -0.581  0.00  0.00    +0.000 C 
ATOM     30  C   UNL     1       0.675  -8.368   0.399  0.00  0.00    -0.078 C 
ATOM     31  N   UNL     1      -0.309  -9.266  -0.217  0.00  0.00    +0.378 N 
ATOM     32  C   UNL     1      -1.551  -8.532  -0.490  0.00  0.00    -0.078 C 
ATOM     33  C   UNL     1      -1.277  -7.419  -1.504  0.00  0.00    +0.000 C 
ATOM     34  C   UNL     1      -0.593 -10.381   0.696  0.00  0.00    -0.096 C 
ATOM     35  H   UNL     1       0.063  -9.629  -1.082  0.00  0.00    -0.082 HD
ENDBRANCH  26  28
ENDBRANCH  25  26
ENDBRANCH   2  25
TORSDOF 9
