REMARK  Name = ZINC65202095
REMARK  8 active torsions:
REMARK  status: ('A' for Active; 'I' for Inactive)
REMARK    1  A    between atoms: C_1  and  C_2
REMARK    2  A    between atoms: C_2  and  C_3
REMARK    3  A    between atoms: C_2  and  C_4
REMARK    4  A    between atoms: C_6  and  C_14
REMARK    5  A    between atoms: N_16  and  N_17
REMARK    6  A    between atoms: N_20  and  C_21
REMARK    7  A    between atoms: C_21  and  C_22
REMARK    8  A    between atoms: C_22  and  C_23
REMARK                            x       y       z     vdW  Elec       q    Type
REMARK                         _______ _______ _______ _____ _____    ______ ____
ROOT
ATOM      1  C   UNL     1      -4.111  -1.299   2.527  0.00  0.00    +0.261 C 
ATOM      2  O   UNL     1      -5.279  -1.634   2.518  0.00  0.00    -0.269 OA
ATOM      3  N   UNL     1      -3.484  -1.072   3.699  0.00  0.00    -0.229 N 
ATOM      4  H   UNL     1      -2.552  -0.805   3.707  0.00  0.00    +0.173 HD
ENDROOT
BRANCH   1   7
ATOM      5  C   UNL     1      -1.418  -0.510   0.011  0.00  0.00    +0.045 A 
ATOM      6  C   UNL     1      -2.080  -0.645   1.230  0.00  0.00    +0.037 A 
ATOM      7  C   UNL     1      -3.377  -1.141   1.253  0.00  0.00    +0.049 A 
ATOM      8  C   UNL     1      -3.973  -1.492   0.015  0.00  0.00    +0.013 A 
ATOM      9  C   UNL     1      -5.278  -1.998  -0.048  0.00  0.00    +0.011 A 
ATOM     10  C   UNL     1      -5.816  -2.323  -1.256  0.00  0.00    +0.001 A 
ATOM     11  C   UNL     1      -5.086  -2.158  -2.432  0.00  0.00    +0.002 A 
ATOM     12  C   UNL     1      -3.817  -1.669  -2.406  0.00  0.00    +0.028 A 
ATOM     13  C   UNL     1      -3.227  -1.321  -1.177  0.00  0.00    +0.072 A 
ATOM     14  N   UNL     1      -1.985  -0.833  -1.124  0.00  0.00    -0.251 NA
BRANCH   5  16
ATOM     15  C   UNL     1      -0.051   1.559  -0.004  0.00  0.00    +0.014 C 
ATOM     16  C   UNL     1      -0.011   0.030  -0.001  0.00  0.00    +0.032 C 
ATOM     17  C   UNL     1       0.734  -0.458   1.243  0.00  0.00    +0.014 C 
ENDBRANCH   5  16
ENDBRANCH   1   7
BRANCH   3  18
ATOM     18  N   UNL     1      -4.180  -1.222   4.906  0.00  0.00    -0.218 N 
ATOM     19  C   UNL     1      -3.554  -0.995   6.077  0.00  0.00    +0.316 C 
ATOM     20  O   UNL     1      -4.157  -1.125   7.125  0.00  0.00    -0.251 OA
ATOM     21  N   UNL     1      -2.258  -0.624   6.088  0.00  0.00    -0.298 N 
ATOM     22  H   UNL     1      -5.112  -1.489   4.898  0.00  0.00    +0.174 HD
ATOM     23  H   UNL     1      -1.776  -0.521   5.252  0.00  0.00    +0.150 HD
BRANCH  21  24
ATOM     24  C   UNL     1      -1.577  -0.378   7.361  0.00  0.00    +0.111 C 
BRANCH  24  25
ATOM     25  C   UNL     1      -0.126   0.026   7.094  0.00  0.00    +0.061 C 
BRANCH  25  26
ATOM     26  C   UNL     1       0.575   0.280   8.404  0.00  0.00    -0.009 A 
ATOM     27  C   UNL     1       1.266  -0.587   9.184  0.00  0.00    +0.011 A 
ATOM     28  C   UNL     1       1.832  -0.127  10.358  0.00  0.00    +0.008 A 
ATOM     29  C   UNL     1       1.680   1.178  10.694  0.00  0.00    +0.045 A 
ATOM     30  S   UNL     1       0.717   1.802   9.326  0.00  0.00    -0.102 S 
ENDBRANCH  25  26
ENDBRANCH  24  25
ENDBRANCH  21  24
ENDBRANCH   3  18
TORSDOF 6
