REMARK  Name = ZINC04805596
REMARK  7 active torsions:
REMARK  status: ('A' for Active; 'I' for Inactive)
REMARK    1  A    between atoms: C_1  and  C_2
REMARK    2  A    between atoms: C_2  and  C_3
REMARK    3  A    between atoms: C_6  and  C_9
REMARK    4  A    between atoms: C_9  and  O_11
REMARK    5  A    between atoms: O_11  and  C_12
REMARK    6  A    between atoms: C_12  and  C_13
REMARK    7  A    between atoms: N_18  and  C_19
REMARK                            x       y       z     vdW  Elec       q    Type
REMARK                         _______ _______ _______ _____ _____    ______ ____
ROOT
ATOM      1  C   UNL     1      -2.562   5.858   6.962  0.00  0.00    +0.258 C 
ATOM      2  O   UNL     1      -1.672   6.412   6.353  0.00  0.00    -0.272 OA
ATOM      3  N   UNL     1      -3.087   6.434   8.061  0.00  0.00    -0.237 N 
ATOM      4  C   UNL     1      -2.623   7.627   8.484  0.00  0.00    +0.306 C 
ATOM      5  O   UNL     1      -1.731   8.182   7.874  0.00  0.00    -0.252 OA
ATOM      6  N   UNL     1      -3.148   8.203   9.583  0.00  0.00    -0.294 N 
ATOM      7  H   UNL     1      -3.800   5.991   8.547  0.00  0.00    +0.159 HD
ATOM      8  H   UNL     1      -3.861   7.760  10.069  0.00  0.00    +0.151 HD
ENDROOT
BRANCH   6   9
ATOM      9  C   UNL     1      -2.644   9.499  10.042  0.00  0.00    +0.037 C 
ATOM     10  C   UNL     1      -1.153   9.381  10.364  0.00  0.00    +0.029 C 
ATOM     11  C   UNL     1      -0.625  10.735  10.844  0.00  0.00    -0.008 C 
ATOM     12  C   UNL     1      -1.386  11.162  12.101  0.00  0.00    +0.007 C 
ATOM     13  C   UNL     1      -2.877  11.280  11.780  0.00  0.00    -0.008 C 
ATOM     14  C   UNL     1      -3.404   9.926  11.300  0.00  0.00    +0.029 C 
ATOM     15  C   UNL     1      -3.080  12.325  10.681  0.00  0.00    +0.007 C 
ATOM     16  C   UNL     1      -2.320  11.898   9.424  0.00  0.00    -0.008 C 
ATOM     17  C   UNL     1      -0.829  11.780   9.745  0.00  0.00    +0.007 C 
ATOM     18  C   UNL     1      -2.847  10.545   8.944  0.00  0.00    +0.029 C 
ENDBRANCH   6   9
BRANCH   1  19
ATOM     19  C   UNL     1      -3.081   4.524   6.489  0.00  0.00    +0.328 C 
BRANCH  19  20
ATOM     20  O   UNL     1      -2.360   4.120   5.296  0.00  0.00    -0.452 OA
BRANCH  20  21
ATOM     21  C   UNL     1      -2.705   2.941   4.742  0.00  0.00    +0.340 C 
ATOM     22  O   UNL     1      -3.585   2.270   5.243  0.00  0.00    -0.245 OA
BRANCH  21  26
ATOM     23  C   UNL     1      -0.718   1.572   1.248  0.00  0.00    -0.048 A 
ATOM     24  C   UNL     1      -0.357   2.780   1.817  0.00  0.00    +0.004 A 
ATOM     25  C   UNL     1      -1.002   3.234   2.949  0.00  0.00    +0.015 A 
ATOM     26  C   UNL     1      -2.014   2.465   3.527  0.00  0.00    +0.059 A 
ATOM     27  C   UNL     1      -2.369   1.243   2.951  0.00  0.00    +0.015 A 
ATOM     28  C   UNL     1      -1.720   0.805   1.816  0.00  0.00    +0.004 A 
BRANCH  23  30
ATOM     29  C   UNL     1      -0.753   1.593  -1.232  0.00  0.00    +0.009 C 
ATOM     30  C   UNL     1      -0.013   1.086   0.008  0.00  0.00    +0.032 C 
ENDBRANCH  23  30
ENDBRANCH  21  26
ENDBRANCH  20  21
ENDBRANCH  19  20
ENDBRANCH   1  19
TORSDOF 6
