REMARK  Name = ZINC08605057
REMARK  16 active torsions:
REMARK  status: ('A' for Active; 'I' for Inactive)
REMARK    1  A    between atoms: C_1  and  C_2
REMARK    2  A    between atoms: C_2  and  C_3
REMARK    3  A    between atoms: N_5  and  C_17
REMARK    4  A    between atoms: C_12  and  C_16
REMARK    5  A    between atoms: C_17  and  C_18
REMARK    6  A    between atoms: N_20  and  C_21
REMARK    7  A    between atoms: C_21  and  C_22
REMARK    8  A    between atoms: C_22  and  N_23
REMARK    9  A    between atoms: N_23  and  C_24
REMARK   10  A    between atoms: N_23  and  C_28
REMARK   11  A    between atoms: C_24  and  C_25
REMARK   12  A    between atoms: C_25  and  C_26
REMARK   13  A    between atoms: C_25  and  C_27
REMARK   14  A    between atoms: C_28  and  C_29
REMARK   15  A    between atoms: C_29  and  C_30
REMARK   16  A    between atoms: C_29  and  C_31
REMARK                            x       y       z     vdW  Elec       q    Type
REMARK                         _______ _______ _______ _____ _____    ______ ____
ROOT
ATOM      1  C   UNL     1      -2.361   0.200  -5.204  0.00  0.00    +0.243 C 
ENDROOT
BRANCH   1   4
ATOM      2  C   UNL     1      -5.517  -1.678  -5.051  0.00  0.00    +0.135 A 
ATOM      3  N   UNL     1      -4.639  -0.741  -4.937  0.00  0.00    -0.154 NA
ATOM      4  N   UNL     1      -3.315  -0.901  -5.358  0.00  0.00    -0.217 N 
ATOM      5  C   UNL     1      -2.915  -2.071  -5.906  0.00  0.00    +0.292 A 
ATOM      6  O   UNL     1      -1.766  -2.229  -6.278  0.00  0.00    -0.264 OA
ATOM      7  C   UNL     1      -3.907  -3.142  -6.038  0.00  0.00    +0.116 A 
ATOM      8  N   UNL     1      -5.197  -2.906  -5.593  0.00  0.00    -0.291 N 
ATOM      9  C   UNL     1      -5.965  -4.046  -5.807  0.00  0.00    +0.063 A 
ATOM     10  C   UNL     1      -7.286  -4.476  -5.606  0.00  0.00    +0.037 A 
ATOM     11  C   UNL     1      -7.655  -5.721  -5.968  0.00  0.00    -0.011 A 
ATOM     12  S   UNL     1      -6.144  -6.400  -6.632  0.00  0.00    -0.092 S 
ATOM     13  C   UNL     1      -5.103  -4.983  -6.390  0.00  0.00    +0.038 A 
ATOM     14  C   UNL     1      -3.843  -4.421  -6.537  0.00  0.00    +0.048 A 
ATOM     15  C   UNL     1      -9.006  -6.377  -5.842  0.00  0.00    +0.051 C 
BRANCH   2  17
ATOM     16  C   UNL     1      -7.030  -0.007  -4.018  0.00  0.00    +0.012 C 
ATOM     17  C   UNL     1      -6.924  -1.429  -4.574  0.00  0.00    +0.073 C 
ENDBRANCH   2  17
ENDBRANCH   1   4
BRANCH   1  18
ATOM     18  C   UNL     1      -2.384   1.061  -6.441  0.00  0.00    +0.235 C 
ATOM     19  O   UNL     1      -3.125   0.782  -7.360  0.00  0.00    -0.274 OA
ATOM     20  N   UNL     1      -1.581   2.140  -6.526  0.00  0.00    -0.316 N 
ATOM     21  H   UNL     1      -0.988   2.362  -5.791  0.00  0.00    +0.149 HD
BRANCH  20  22
ATOM     22  C   UNL     1      -1.604   2.977  -7.728  0.00  0.00    +0.086 C 
BRANCH  22  23
ATOM     23  C   UNL     1      -0.607   4.126  -7.568  0.00  0.00    -0.060 C 
BRANCH  23  24
ATOM     24  N   UNL     1      -0.629   4.966  -8.773  0.00  0.00    +0.381 N 
ATOM     25  H   UNL     1      -0.499   4.386  -9.589  0.00  0.00    -0.082 HD
BRANCH  24  26
ATOM     26  C   UNL     1      -1.922   5.657  -8.864  0.00  0.00    -0.076 C 
BRANCH  26  27
ATOM     27  C   UNL     1      -2.367   5.715 -10.327  0.00  0.00    -0.034 C 
ATOM     28  C   UNL     1      -3.783   6.290 -10.407  0.00  0.00    +0.005 C 
ATOM     29  C   UNL     1      -1.408   6.609 -11.116  0.00  0.00    +0.005 C 
ENDBRANCH  26  27
ENDBRANCH  24  26
BRANCH  24  30
ATOM     30  C   UNL     1       0.452   5.958  -8.700  0.00  0.00    -0.076 C 
BRANCH  30  31
ATOM     31  C   UNL     1       0.339   6.739  -7.389  0.00  0.00    -0.034 C 
ATOM     32  C   UNL     1       1.308   6.152  -6.360  0.00  0.00    +0.005 C 
ATOM     33  C   UNL     1       0.688   8.207  -7.638  0.00  0.00    +0.005 C 
ENDBRANCH  30  31
ENDBRANCH  24  30
ENDBRANCH  23  24
ENDBRANCH  22  23
ENDBRANCH  20  22
ENDBRANCH   1  18
TORSDOF 10
