REMARK  Name = ZINC54963422
REMARK  4 active torsions:
REMARK  status: ('A' for Active; 'I' for Inactive)
REMARK    1  A    between atoms: C_1  and  C_2
REMARK    2  A    between atoms: C_3  and  C_14
REMARK    3  A    between atoms: C_14  and  C_16
REMARK    4  A    between atoms: C_14  and  O_17
REMARK                            x       y       z     vdW  Elec       q    Type
REMARK                         _______ _______ _______ _____ _____    ______ ____
ROOT
ATOM      1  C   UNL     1      -0.018   1.503   0.010  0.00  0.00    +0.066 C 
ATOM      2  C   UNL     1       0.002  -0.004   0.002  0.00  0.00    +0.049 A 
ATOM      3  C   UNL     1       0.006  -0.699  -1.198  0.00  0.00    +0.020 A 
ATOM      4  C   UNL     1       0.025  -2.084  -1.161  0.00  0.00    +0.122 A 
ATOM      5  N   UNL     1       0.040  -2.698   0.011  0.00  0.00    -0.222 NA
ATOM      6  C   UNL     1       0.035  -2.005   1.140  0.00  0.00    +0.218 A 
ATOM      7  N   UNL     1       0.022  -0.679   1.139  0.00  0.00    -0.219 NA
ATOM      8  N   UNL     1       0.050  -2.679   2.348  0.00  0.00    -0.300 N 
ATOM      9  C   UNL     1       0.040  -1.941   3.618  0.00  0.00    +0.108 C 
ATOM     10  C   UNL     1      -1.117  -2.458   4.479  0.00  0.00    +0.019 C 
ATOM     11  C   UNL     1      -0.993  -3.975   4.636  0.00  0.00    +0.003 C 
ATOM     12  C   UNL     1      -1.081  -4.640   3.260  0.00  0.00    +0.019 C 
ATOM     13  C   UNL     1       0.070  -4.148   2.385  0.00  0.00    +0.108 C 
ENDROOT
BRANCH   3  14
ATOM     14  C   UNL     1      -0.011   0.036  -2.513  0.00  0.00    +0.145 C 
ATOM     15  C   UNL     1       1.419   0.415  -2.904  0.00  0.00    +0.043 C 
BRANCH  14  16
ATOM     16  O   UNL     1      -0.574  -0.806  -3.522  0.00  0.00    -0.387 OA
ATOM     17  H   UNL     1      -0.616  -0.397  -4.397  0.00  0.00    +0.210 HD
ENDBRANCH  14  16
ENDBRANCH   3  14
TORSDOF 2
