REMARK  Name = ZINC55081630
REMARK  9 active torsions:
REMARK  status: ('A' for Active; 'I' for Inactive)
REMARK    1  A    between atoms: C_1  and  C_2
REMARK    2  A    between atoms: C_2  and  C_3
REMARK    3  A    between atoms: C_3  and  C_4
REMARK    4  A    between atoms: C_10  and  C_13
REMARK    5  A    between atoms: C_13  and  N_14
REMARK    6  A    between atoms: N_17  and  C_20
REMARK    7  A    between atoms: C_20  and  C_21
REMARK    8  A    between atoms: C_21  and  C_22
REMARK    9  A    between atoms: C_21  and  C_23
REMARK                            x       y       z     vdW  Elec       q    Type
REMARK                         _______ _______ _______ _____ _____    ______ ____
ROOT
ATOM      1  C   UNL     1      -0.186  -4.507  -2.662  0.00  0.00    +0.095 C 
ENDROOT
BRANCH   1   7
ATOM      2  C   UNL     1       0.739  -2.027  -1.265  0.00  0.00    -0.010 C 
ATOM      3  C   UNL     1       1.582  -2.531  -0.092  0.00  0.00    +0.011 C 
ATOM      4  C   UNL     1       1.527  -4.061  -0.046  0.00  0.00    +0.075 C 
ATOM      5  C   UNL     1       1.952  -4.599  -1.394  0.00  0.00    +0.138 C 
ATOM      6  O   UNL     1       2.809  -5.444  -1.482  0.00  0.00    -0.297 OA
ATOM      7  C   UNL     1       1.274  -4.051  -2.631  0.00  0.00    +0.069 C 
ATOM      8  C   UNL     1       1.340  -2.520  -2.583  0.00  0.00    +0.016 C 
BRANCH   2   9
ATOM      9  C   UNL     1       0.718  -0.497  -1.257  0.00  0.00    +0.003 C 
BRANCH   9  11
ATOM     10  C   UNL     1      -0.019   1.526   0.010  0.00  0.00    +0.004 C 
ATOM     11  C   UNL     1       0.002  -0.004   0.002  0.00  0.00    -0.003 C 
ENDBRANCH   9  11
ENDBRANCH   2   9
ENDBRANCH   1   7
BRANCH   1  12
ATOM     12  N   UNL     1      -0.239  -5.968  -2.807  0.00  0.00    -0.305 NA
ATOM     13  C   UNL     1       0.280  -6.386  -4.117  0.00  0.00    +0.066 C 
ATOM     14  C   UNL     1       0.263  -7.914  -4.205  0.00  0.00    -0.063 C 
ATOM     15  N   UNL     1      -1.112  -8.399  -4.026  0.00  0.00    +0.381 N 
ATOM     16  C   UNL     1      -1.608  -7.995  -2.704  0.00  0.00    -0.063 C 
ATOM     17  C   UNL     1      -1.606  -6.468  -2.604  0.00  0.00    +0.066 C 
ATOM     18  H   UNL     1      -1.703  -8.005  -4.742  0.00  0.00    -0.082 HD
BRANCH  15  19
ATOM     19  C   UNL     1      -1.131  -9.865  -4.129  0.00  0.00    -0.076 C 
BRANCH  19  20
ATOM     20  C   UNL     1      -2.576 -10.362  -4.068  0.00  0.00    -0.034 C 
ATOM     21  C   UNL     1      -3.340  -9.860  -5.295  0.00  0.00    +0.005 C 
ATOM     22  C   UNL     1      -2.589 -11.891  -4.049  0.00  0.00    +0.005 C 
ENDBRANCH  19  20
ENDBRANCH  15  19
ENDBRANCH   1  12
TORSDOF 6
