REMARK  Name = ZINC08868846
REMARK  11 active torsions:
REMARK  status: ('A' for Active; 'I' for Inactive)
REMARK    1  A    between atoms: C_1  and  C_2
REMARK    2  A    between atoms: C_5  and  S_8
REMARK    3  A    between atoms: S_8  and  N_11
REMARK    4  A    between atoms: C_15  and  C_17
REMARK    5  A    between atoms: N_19  and  C_20
REMARK    6  A    between atoms: C_20  and  C_21
REMARK    7  A    between atoms: C_21  and  N_66
REMARK    8  A    between atoms: C_22  and  N_66
REMARK    9  A    between atoms: C_23  and  N_66
REMARK   10  A    between atoms: C_27  and  C_34
REMARK   11  A    between atoms: C_28  and  C_33
REMARK                            x       y       z     vdW  Elec       q    Type
REMARK                         _______ _______ _______ _____ _____    ______ ____
ROOT
ATOM      1  C   UNL     1       3.788   6.437  -2.517  0.00  0.00    +0.240 C 
ATOM      2  O   UNL     1       4.447   5.924  -1.638  0.00  0.00    -0.273 OA
ATOM      3  N   UNL     1       3.851   7.768  -2.717  0.00  0.00    -0.251 N 
ATOM      4  C   UNL     1       4.742   8.537  -1.986  0.00  0.00    +0.168 A 
ATOM      5  N   UNL     1       5.596   8.155  -1.064  0.00  0.00    -0.224 NA
ATOM      6  C   UNL     1       6.412   9.022  -0.427  0.00  0.00    +0.083 A 
ATOM      7  C   UNL     1       7.369   8.744   0.576  0.00  0.00    -0.021 A 
ATOM      8  C   UNL     1       8.123   9.749   1.123  0.00  0.00    -0.045 A 
ATOM      9  C   UNL     1       7.976  11.068   0.717  0.00  0.00    +0.005 A 
ATOM     10  C   UNL     1       7.049  11.377  -0.261  0.00  0.00    +0.017 A 
ATOM     11  C   UNL     1       6.290  10.376  -0.815  0.00  0.00    +0.041 A 
ATOM     12  S   UNL     1       5.027  10.300  -2.062  0.00  0.00    -0.052 S 
ATOM     13  C   UNL     1       9.134   9.415   2.189  0.00  0.00    +0.044 C 
ATOM     14  C   UNL     1       7.563   7.326   1.048  0.00  0.00    +0.046 C 
ENDROOT
BRANCH   1  19
ATOM     15  N   UNL     1       2.477   4.387  -2.648  0.00  0.00    -0.165 NA
ATOM     16  C   UNL     1       2.982   3.195  -3.354  0.00  0.00    +0.110 C 
ATOM     17  C   UNL     1       3.166   3.656  -4.824  0.00  0.00    +0.019 C 
ATOM     18  C   UNL     1       3.678   5.107  -4.630  0.00  0.00    +0.031 C 
ATOM     19  C   UNL     1       2.899   5.586  -3.387  0.00  0.00    +0.166 C 
BRANCH  15  20
ATOM     20  S   UNL     1       1.589   4.377  -1.251  0.00  0.00    +0.062 S 
ATOM     21  O   UNL     1       1.796   5.638  -0.629  0.00  0.00    -0.153 OA
ATOM     22  O   UNL     1       1.875   3.148  -0.596  0.00  0.00    -0.153 OA
BRANCH  20  27
ATOM     23  C   UNL     1      -4.229   4.172  -2.837  0.00  0.00    +0.044 C 
ATOM     24  C   UNL     1      -2.776   4.223  -2.440  0.00  0.00    -0.050 A 
ATOM     25  C   UNL     1      -2.148   5.443  -2.273  0.00  0.00    +0.005 A 
ATOM     26  C   UNL     1      -0.815   5.490  -1.909  0.00  0.00    +0.029 A 
ATOM     27  C   UNL     1      -0.110   4.317  -1.714  0.00  0.00    +0.106 A 
ATOM     28  C   UNL     1      -0.739   3.097  -1.880  0.00  0.00    +0.029 A 
ATOM     29  C   UNL     1      -2.072   3.050  -2.244  0.00  0.00    +0.005 A 
ENDBRANCH  20  27
ENDBRANCH  15  20
ENDBRANCH   1  19
BRANCH   3  30
ATOM     30  C   UNL     1       2.978   8.402  -3.708  0.00  0.00    +0.097 C 
BRANCH  30  31
ATOM     31  C   UNL     1       1.688   8.865  -3.028  0.00  0.00    -0.060 C 
BRANCH  31  34
ATOM     32  C   UNL     1       0.351   8.525  -5.018  0.00  0.00    -0.097 C 
ATOM     33  C   UNL     1      -0.326  10.166  -3.371  0.00  0.00    -0.097 C 
ATOM     34  N   UNL     1       0.827   9.521  -4.035  0.00  0.00    +0.377 N 
ATOM     35  H   UNL     1       1.374  10.239  -4.524  0.00  0.00    -0.083 HD
ENDBRANCH  31  34
ENDBRANCH  30  31
ENDBRANCH   3  30
TORSDOF 6
