REMARK  Name = ZINC34887751
REMARK  12 active torsions:
REMARK  status: ('A' for Active; 'I' for Inactive)
REMARK    1  A    between atoms: C_1  and  C_2
REMARK    2  A    between atoms: C_2  and  C_3
REMARK    3  A    between atoms: C_2  and  C_4
REMARK    4  A    between atoms: C_4  and  N_5
REMARK    5  A    between atoms: N_5  and  C_6
REMARK    6  A    between atoms: C_6  and  C_7
REMARK    7  A    between atoms: N_9  and  C_10
REMARK    8  A    between atoms: N_9  and  C_18
REMARK    9  A    between atoms: C_10  and  C_11
REMARK   10  A    between atoms: C_11  and  C_12
REMARK   11  A    between atoms: C_18  and  C_19
REMARK   12  A    between atoms: N_26  and  C_27
REMARK                            x       y       z     vdW  Elec       q    Type
REMARK                         _______ _______ _______ _____ _____    ______ ____
ROOT
ATOM      1  C   UNL     1      -1.337  -2.832   1.083  0.00  0.00    +0.205 C 
ENDROOT
BRANCH   1   2
ATOM      2  N   UNL     1      -1.400  -1.992  -0.116  0.00  0.00    -0.276 N 
ATOM      3  C   UNL     1      -1.451  -2.562  -1.336  0.00  0.00    +0.307 C 
ATOM      4  O   UNL     1      -1.444  -3.773  -1.442  0.00  0.00    -0.252 OA
ATOM      5  N   UNL     1      -1.509  -1.790  -2.439  0.00  0.00    -0.268 N 
ATOM      6  H   UNL     1      -1.596  -0.827  -2.353  0.00  0.00    +0.156 HD
BRANCH   5   7
ATOM      7  C   UNL     1      -1.443  -2.376  -3.709  0.00  0.00    +0.049 A 
ATOM      8  C   UNL     1      -0.825  -3.608  -3.875  0.00  0.00    +0.024 A 
ATOM      9  C   UNL     1      -0.762  -4.184  -5.129  0.00  0.00    +0.002 A 
ATOM     10  C   UNL     1      -1.315  -3.535  -6.218  0.00  0.00    +0.001 A 
ATOM     11  C   UNL     1      -1.931  -2.308  -6.057  0.00  0.00    +0.017 A 
ATOM     12  C   UNL     1      -2.002  -1.729  -4.804  0.00  0.00    +0.039 A 
ATOM     13 BR   UNL     1      -2.852  -0.054  -4.582  0.00  0.00    -0.048 Br
ENDBRANCH   5   7
BRANCH   2  14
ATOM     14  C   UNL     1      -1.407  -0.533   0.011  0.00  0.00    +0.113 C 
BRANCH  14  16
ATOM     15  C   UNL     1       0.019   1.519  -0.003  0.00  0.00    +0.009 C 
ATOM     16  C   UNL     1       0.031  -0.011  -0.011  0.00  0.00    +0.000 C 
ATOM     17  C   UNL     1       0.777  -0.521   1.224  0.00  0.00    +0.009 C 
ENDBRANCH  14  16
ENDBRANCH   2  14
ENDBRANCH   1   2
BRANCH   1  18
ATOM     18  C   UNL     1      -2.734  -3.133   1.559  0.00  0.00    +0.233 C 
ATOM     19  O   UNL     1      -3.689  -2.690   0.957  0.00  0.00    -0.274 OA
ATOM     20  N   UNL     1      -2.923  -3.895   2.655  0.00  0.00    -0.293 N 
BRANCH  20  21
ATOM     21  C   UNL     1      -4.282  -4.188   3.118  0.00  0.00    +0.113 C 
BRANCH  21  22
ATOM     22  C   UNL     1      -4.782  -5.471   2.453  0.00  0.00    +0.054 C 
BRANCH  22  23
ATOM     23  C   UNL     1      -6.179  -5.773   2.929  0.00  0.00    -0.046 A 
ATOM     24  C   UNL     1      -6.373  -6.549   4.056  0.00  0.00    +0.004 A 
ATOM     25  C   UNL     1      -7.655  -6.825   4.494  0.00  0.00    +0.000 A 
ATOM     26  C   UNL     1      -8.743  -6.325   3.804  0.00  0.00    +0.000 A 
ATOM     27  C   UNL     1      -8.550  -5.547   2.678  0.00  0.00    +0.000 A 
ATOM     28  C   UNL     1      -7.268  -5.267   2.243  0.00  0.00    +0.004 A 
ENDBRANCH  22  23
ENDBRANCH  21  22
ENDBRANCH  20  21
BRANCH  20  29
ATOM     29  C   UNL     1      -1.770  -4.430   3.382  0.00  0.00    +0.182 C 
BRANCH  29  30
ATOM     30  C   UNL     1      -1.347  -3.450   4.446  0.00  0.00    +0.122 A 
ATOM     31  C   UNL     1      -1.796  -3.423   5.714  0.00  0.00    +0.046 A 
ATOM     32  C   UNL     1      -1.140  -2.349   6.358  0.00  0.00    +0.041 A 
ATOM     33  C   UNL     1      -0.330  -1.783   5.445  0.00  0.00    +0.195 A 
ATOM     34  O   UNL     1      -0.456  -2.458   4.290  0.00  0.00    -0.466 OA
ENDBRANCH  29  30
ENDBRANCH  20  29
ENDBRANCH   1  18
TORSDOF 10
