REMARK  Name = ZINC39699464
REMARK  15 active torsions:
REMARK  status: ('A' for Active; 'I' for Inactive)
REMARK    1  A    between atoms: C_1  and  C_2
REMARK    2  A    between atoms: C_2  and  N_3
REMARK    3  A    between atoms: N_3  and  C_4
REMARK    4  A    between atoms: N_3  and  C_6
REMARK    5  A    between atoms: C_4  and  C_5
REMARK    6  A    between atoms: C_6  and  C_7
REMARK    7  A    between atoms: C_7  and  C_8
REMARK    8  A    between atoms: C_8  and  N_9
REMARK    9  A    between atoms: N_9  and  C_10
REMARK   10  A    between atoms: C_10  and  C_12
REMARK   11  A    between atoms: C_10  and  C_19
REMARK   12  A    between atoms: C_15  and  C_18
REMARK   13  A    between atoms: N_21  and  C_22
REMARK   14  A    between atoms: C_28  and  C_30
REMARK   15  A    between atoms: C_34  and  C_36
REMARK                            x       y       z     vdW  Elec       q    Type
REMARK                         _______ _______ _______ _____ _____    ______ ____
ROOT
ATOM      1  N   UNL     1       2.763  -2.539   3.216  0.00  0.00    -0.284 N 
ATOM      2  C   UNL     1       3.644  -2.794   2.229  0.00  0.00    +0.245 C 
ATOM      3  O   UNL     1       4.553  -3.575   2.414  0.00  0.00    -0.273 OA
ENDROOT
BRANCH   2   4
ATOM      4  C   UNL     1       3.500  -2.109   0.894  0.00  0.00    +0.214 C 
ATOM      5  C   UNL     1       2.975  -3.081  -0.139  0.00  0.00    +0.011 C 
ATOM      6  C   UNL     1       3.908  -3.160  -1.082  0.00  0.00    +0.026 C 
ATOM      7  C   UNL     1       5.036  -2.285  -0.729  0.00  0.00    +0.067 C 
ATOM      8  N   UNL     1       4.813  -1.676   0.401  0.00  0.00    -0.267 NA
BRANCH   7   9
ATOM      9  C   UNL     1       6.260  -2.118  -1.548  0.00  0.00    -0.000 A 
ATOM     10  C   UNL     1       6.398  -2.812  -2.750  0.00  0.00    +0.010 A 
ATOM     11  C   UNL     1       7.540  -2.653  -3.508  0.00  0.00    +0.001 A 
ATOM     12  C   UNL     1       8.546  -1.806  -3.078  0.00  0.00    +0.000 A 
ATOM     13  C   UNL     1       8.414  -1.114  -1.888  0.00  0.00    +0.001 A 
ATOM     14  C   UNL     1       7.274  -1.261  -1.124  0.00  0.00    +0.010 A 
ENDBRANCH   7   9
ENDBRANCH   2   4
BRANCH   1  15
ATOM     15  C   UNL     1       1.605  -1.679   2.960  0.00  0.00    +0.107 C 
BRANCH  15  16
ATOM     16  C   UNL     1       0.467  -2.517   2.373  0.00  0.00    +0.000 C 
BRANCH  16  17
ATOM     17  C   UNL     1      -0.786  -1.650   2.236  0.00  0.00    -0.077 C 
BRANCH  17  18
ATOM     18  N   UNL     1      -1.842  -2.418   1.562  0.00  0.00    +0.379 N 
ATOM     19  H   UNL     1      -1.490  -2.776   0.687  0.00  0.00    -0.082 HD
BRANCH  18  21
ATOM     20  C   UNL     1      -3.263  -4.410   1.667  0.00  0.00    -0.017 C 
ATOM     21  C   UNL     1      -2.255  -3.538   2.418  0.00  0.00    -0.082 C 
ENDBRANCH  18  21
BRANCH  18  22
ATOM     22  C   UNL     1      -2.995  -1.546   1.307  0.00  0.00    -0.082 C 
ATOM     23  C   UNL     1      -2.628  -0.512   0.241  0.00  0.00    -0.017 C 
ENDBRANCH  18  22
ENDBRANCH  17  18
ENDBRANCH  16  17
ENDBRANCH  15  16
ENDBRANCH   1  15
BRANCH   1  24
ATOM     24  C   UNL     1       2.963  -3.122   4.545  0.00  0.00    +0.192 C 
BRANCH  24  25
ATOM     25  C   UNL     1       4.123  -2.441   5.223  0.00  0.00    -0.018 A 
ATOM     26  C   UNL     1       4.212  -1.061   5.221  0.00  0.00    +0.006 A 
ATOM     27  C   UNL     1       5.277  -0.436   5.843  0.00  0.00    +0.004 A 
ATOM     28  C   UNL     1       6.252  -1.190   6.467  0.00  0.00    -0.050 A 
ATOM     29  C   UNL     1       6.163  -2.570   6.470  0.00  0.00    +0.004 A 
ATOM     30  C   UNL     1       5.096  -3.195   5.852  0.00  0.00    +0.006 A 
ATOM     31  C   UNL     1       7.413  -0.508   7.145  0.00  0.00    +0.044 C 
ENDBRANCH  24  25
BRANCH  24  32
ATOM     32  C   UNL     1       1.716  -2.932   5.370  0.00  0.00    +0.238 C 
ATOM     33  O   UNL     1       0.658  -2.702   4.825  0.00  0.00    -0.273 OA
ATOM     34  N   UNL     1       1.778  -3.016   6.714  0.00  0.00    -0.311 N 
ATOM     35  H   UNL     1       2.625  -3.200   7.150  0.00  0.00    +0.149 HD
BRANCH  34  36
ATOM     36  C   UNL     1       0.567  -2.831   7.516  0.00  0.00    +0.073 C 
ATOM     37  C   UNL     1       0.344  -1.338   7.767  0.00  0.00    +0.022 C 
ATOM     38  C   UNL     1      -0.921  -1.144   8.604  0.00  0.00    +0.002 C 
ATOM     39  C   UNL     1      -0.762  -1.868   9.943  0.00  0.00    +0.000 C 
ATOM     40  C   UNL     1      -0.540  -3.361   9.692  0.00  0.00    +0.002 C 
ATOM     41  C   UNL     1       0.725  -3.554   8.854  0.00  0.00    +0.022 C 
ENDBRANCH  34  36
ENDBRANCH  24  32
ENDBRANCH   1  24
TORSDOF 12
