REMARK  Name = ZINC44807027
REMARK  6 active torsions:
REMARK  status: ('A' for Active; 'I' for Inactive)
REMARK    1  A    between atoms: C_1  and  C_2
REMARK    2  A    between atoms: C_2  and  C_4
REMARK    3  A    between atoms: C_2  and  N_18
REMARK    4  A    between atoms: N_6  and  C_7
REMARK    5  A    between atoms: N_18  and  C_19
REMARK    6  A    between atoms: C_23  and  C_25
REMARK                            x       y       z     vdW  Elec       q    Type
REMARK                         _______ _______ _______ _____ _____    ______ ____
ROOT
ATOM      1  C   UNL     1      -0.009   1.520   0.022  0.00  0.00    +0.038 C 
ATOM      2  C   UNL     1       0.004  -0.009   0.005  0.00  0.00    +0.154 C 
ENDROOT
BRANCH   2   3
ATOM      3  C   UNL     1      -1.412  -0.524   0.012  0.00  0.00    +0.237 C 
ATOM      4  O   UNL     1      -1.810  -1.215  -0.902  0.00  0.00    -0.273 OA
ATOM      5  N   UNL     1      -2.236  -0.217   1.033  0.00  0.00    -0.284 N 
ATOM      6  H   UNL     1      -1.899   0.279   1.796  0.00  0.00    +0.155 HD
BRANCH   5   7
ATOM      7  C   UNL     1      -3.579  -0.613   0.993  0.00  0.00    +0.037 A 
ATOM      8  C   UNL     1      -3.928  -1.826   0.413  0.00  0.00    +0.027 A 
ATOM      9  C   UNL     1      -5.252  -2.221   0.372  0.00  0.00    +0.051 A 
ATOM     10  C   UNL     1      -6.231  -1.403   0.911  0.00  0.00    +0.162 A 
ATOM     11  C   UNL     1      -5.886  -0.191   1.491  0.00  0.00    +0.164 A 
ATOM     12  C   UNL     1      -4.561   0.205   1.538  0.00  0.00    +0.072 A 
ATOM     13  O   UNL     1      -6.861   0.605   2.020  0.00  0.00    -0.488 OA
ATOM     14  C   UNL     1      -7.765   1.192   1.082  0.00  0.00    +0.232 C 
ATOM     15  C   UNL     1      -8.892   0.229   0.744  0.00  0.00    +0.082 C 
ATOM     16  C   UNL     1      -8.394  -1.015   0.025  0.00  0.00    +0.232 C 
ATOM     17  O   UNL     1      -7.542  -1.785   0.876  0.00  0.00    -0.488 OA
ENDBRANCH   5   7
ENDBRANCH   2   3
BRANCH   2  18
ATOM     18  N   UNL     1       0.689  -0.479  -1.202  0.00  0.00    -0.333 N 
ATOM     19  H   UNL     1       0.176  -0.706  -1.993  0.00  0.00    +0.147 HD
BRANCH  18  20
ATOM     20  C   UNL     1       2.081  -0.600  -1.213  0.00  0.00    +0.028 A 
ATOM     21  C   UNL     1       2.816  -0.280  -0.076  0.00  0.00    +0.024 A 
ATOM     22  C   UNL     1       4.192  -0.398  -0.082  0.00  0.00    +0.022 A 
ATOM     23  C   UNL     1       4.849  -0.834  -1.216  0.00  0.00    +0.053 A 
ATOM     24  C   UNL     1       4.120  -1.158  -2.363  0.00  0.00    +0.056 A 
ATOM     25  C   UNL     1       2.729  -1.044  -2.355  0.00  0.00    +0.037 A 
ATOM     26 CL   UNL     1       6.579  -0.979  -1.218  0.00  0.00    -0.083 Cl
BRANCH  24  27
ATOM     27  C   UNL     1       4.818  -1.625  -3.579  0.00  0.00    +0.243 C 
ATOM     28  O   UNL     1       6.029  -1.728  -3.582  0.00  0.00    -0.270 OA
ATOM     29  N   UNL     1       4.112  -1.937  -4.684  0.00  0.00    -0.325 N 
ATOM     30  H   UNL     1       3.146  -1.855  -4.681  0.00  0.00    +0.145 HD
ATOM     31  H   UNL     1       4.571  -2.244  -5.482  0.00  0.00    +0.145 HD
ENDBRANCH  24  27
ENDBRANCH  18  20
ENDBRANCH   2  18
TORSDOF 5
