REMARK  Name = ZINC15685830
REMARK  7 active torsions:
REMARK  status: ('A' for Active; 'I' for Inactive)
REMARK    1  A    between atoms: C_1  and  C_2
REMARK    2  A    between atoms: C_7  and  C_8
REMARK    3  A    between atoms: C_8  and  C_10
REMARK    4  A    between atoms: C_8  and  N_11
REMARK    5  A    between atoms: C_12  and  C_14
REMARK    6  A    between atoms: C_18  and  S_20
REMARK    7  A    between atoms: S_20  and  N_23
REMARK                            x       y       z     vdW  Elec       q    Type
REMARK                         _______ _______ _______ _____ _____    ______ ____
ROOT
ATOM      1  N   UNL     1      -0.020   1.094   2.454  0.00  0.00    -0.305 N 
ATOM      2  C   UNL     1      -0.285  -0.134   2.941  0.00  0.00    +0.245 C 
ATOM      3  O   UNL     1      -1.111  -0.840   2.396  0.00  0.00    -0.270 OA
ATOM      4  H   UNL     1       0.639   1.657   2.889  0.00  0.00    +0.150 HD
ENDROOT
BRANCH   2   5
ATOM      5  C   UNL     1       0.430  -0.624   4.138  0.00  0.00    +0.039 A 
ATOM      6  C   UNL     1       1.384   0.182   4.763  0.00  0.00    +0.014 A 
ATOM      7  C   UNL     1       2.043  -0.278   5.884  0.00  0.00    +0.023 A 
ATOM      8  C   UNL     1       1.769  -1.541   6.383  0.00  0.00    +0.067 A 
ATOM      9  C   UNL     1       0.828  -2.347   5.763  0.00  0.00    +0.124 A 
ATOM     10  C   UNL     1       0.158  -1.896   4.646  0.00  0.00    +0.043 A 
ATOM     11 CL   UNL     1       2.608  -2.116   7.789  0.00  0.00    -0.082 Cl
BRANCH   9  12
ATOM     12  S   UNL     1       0.487  -3.952   6.405  0.00  0.00    +0.057 S 
ATOM     13  O   UNL     1       0.278  -3.795   7.802  0.00  0.00    -0.153 OA
ATOM     14  O   UNL     1      -0.488  -4.532   5.549  0.00  0.00    -0.153 OA
BRANCH  12  15
ATOM     15  N   UNL     1       1.865  -4.853   6.231  0.00  0.00    -0.203 NA
ATOM     16  H   UNL     1       2.656  -4.457   5.832  0.00  0.00    +0.144 HD
ATOM     17  H   UNL     1       1.882  -5.776   6.527  0.00  0.00    +0.144 HD
ENDBRANCH  12  15
ENDBRANCH   9  12
ENDBRANCH   2   5
BRANCH   1  18
ATOM     18  C   UNL     1      -0.729   1.579   1.267  0.00  0.00    +0.101 C 
ATOM     19  C   UNL     1      -0.013   1.086   0.008  0.00  0.00    +0.033 C 
BRANCH  18  26
ATOM     20  C   UNL     1      -2.811   3.003  -0.141  0.00  0.00    +0.044 C 
ATOM     21  C   UNL     1      -1.746   3.767   0.602  0.00  0.00    -0.046 A 
ATOM     22  C   UNL     1      -1.764   5.150   0.609  0.00  0.00    +0.004 A 
ATOM     23  C   UNL     1      -0.787   5.851   1.291  0.00  0.00    +0.000 A 
ATOM     24  C   UNL     1       0.209   5.169   1.965  0.00  0.00    +0.000 A 
ATOM     25  C   UNL     1       0.225   3.787   1.961  0.00  0.00    +0.006 A 
ATOM     26  C   UNL     1      -0.749   3.086   1.275  0.00  0.00    -0.025 A 
ENDBRANCH  18  26
ENDBRANCH   1  18
TORSDOF 5
