REMARK  Name = ZINC24559684
REMARK  5 active torsions:
REMARK  status: ('A' for Active; 'I' for Inactive)
REMARK    1  A    between atoms: C_1  and  C_2
REMARK    2  A    between atoms: C_6  and  C_30
REMARK    3  A    between atoms: C_7  and  N_8
REMARK    4  A    between atoms: C_9  and  C_11
REMARK    5  A    between atoms: C_16  and  N_27
REMARK                            x       y       z     vdW  Elec       q    Type
REMARK                         _______ _______ _______ _____ _____    ______ ____
ROOT
ATOM      1  C   UNL     1      -6.460   2.540  -0.846  0.00  0.00    +0.100 C 
ATOM      2  C   UNL     1      -5.250   1.957  -0.113  0.00  0.00    +0.051 C 
ATOM      3  C   UNL     1      -4.011   2.732  -0.484  0.00  0.00    -0.023 A 
ATOM      4  C   UNL     1      -2.777   2.167  -0.203  0.00  0.00    +0.038 A 
ATOM      5  C   UNL     1      -1.611   2.839  -0.511  0.00  0.00    +0.127 A 
ATOM      6  C   UNL     1      -1.673   4.089  -1.100  0.00  0.00    +0.034 A 
ATOM      7  C   UNL     1      -2.896   4.655  -1.389  0.00  0.00    +0.025 A 
ATOM      8  C   UNL     1      -4.078   3.978  -1.082  0.00  0.00    +0.033 A 
ATOM      9  N   UNL     1      -5.281   4.601  -1.405  0.00  0.00    -0.326 N 
ATOM     10  C   UNL     1      -6.430   4.063  -0.676  0.00  0.00    +0.086 C 
ATOM     11  C   UNL     1      -7.723   4.661  -1.235  0.00  0.00    +0.023 C 
ATOM     12  C   UNL     1      -7.674   6.185  -1.097  0.00  0.00    +0.003 C 
ATOM     13  C   UNL     1      -6.439   6.716  -1.831  0.00  0.00    +0.019 C 
ATOM     14  C   UNL     1      -5.184   6.059  -1.252  0.00  0.00    +0.105 C 
ENDROOT
BRANCH   1  16
ATOM     15  N   UNL     1      -8.564   1.251  -1.015  0.00  0.00    -0.285 N 
ATOM     16  C   UNL     1      -7.730   1.986  -0.253  0.00  0.00    +0.222 C 
ATOM     17  O   UNL     1      -8.001   2.202   0.909  0.00  0.00    -0.275 OA
ATOM     18  H   UNL     1      -8.284   0.993  -2.047  0.00  0.00    +0.155 HD
BRANCH  15  25
ATOM     19  C   UNL     1      -8.521  -0.629   1.121  0.00  0.00    +0.045 C 
ATOM     20  C   UNL     1      -9.812  -0.101   0.550  0.00  0.00    -0.029 A 
ATOM     21  C   UNL     1     -11.020  -0.525   1.067  0.00  0.00    +0.005 A 
ATOM     22  C   UNL     1     -12.205  -0.045   0.540  0.00  0.00    +0.001 A 
ATOM     23  C   UNL     1     -12.184   0.864  -0.502  0.00  0.00    +0.005 A 
ATOM     24  C   UNL     1     -10.979   1.296  -1.019  0.00  0.00    -0.029 A 
ATOM     25  C   UNL     1      -9.787   0.816  -0.493  0.00  0.00    +0.039 A 
ATOM     26  C   UNL     1     -10.957   2.287  -2.154  0.00  0.00    +0.045 C 
ENDBRANCH  15  25
ENDBRANCH   1  16
BRANCH   5  27
ATOM     27  N   UNL     1      -0.299   2.227  -0.207  0.00  0.00    +0.056 N 
ATOM     28  O   UNL     1      -0.246   1.128   0.316  0.00  0.00    -0.126 OA
ATOM     29  O   UNL     1       0.729   2.819  -0.484  0.00  0.00    -0.126 OA
ENDBRANCH   5  27
TORSDOF 3
