REMARK  Name = ZINC35172961
REMARK  10 active torsions:
REMARK  status: ('A' for Active; 'I' for Inactive)
REMARK    1  A    between atoms: C_1  and  C_2
REMARK    2  A    between atoms: N_8  and  C_9
REMARK    3  A    between atoms: C_9  and  C_10
REMARK    4  A    between atoms: C_10  and  C_11
REMARK    5  A    between atoms: C_11  and  N_12
REMARK    6  A    between atoms: C_13  and  C_15
REMARK    7  A    between atoms: C_15  and  S_16
REMARK    8  A    between atoms: S_16  and  C_17
REMARK    9  A    between atoms: C_20  and  C_28
REMARK   10  A    between atoms: N_21  and  C_22
REMARK                            x       y       z     vdW  Elec       q    Type
REMARK                         _______ _______ _______ _____ _____    ______ ____
ROOT
ATOM      1  S   UNL     1       0.582   0.479   9.999  0.00  0.00    -0.076 S 
ENDROOT
BRANCH   1   2
ATOM      2  C   UNL     1       1.620  -0.064  11.315  0.00  0.00    +0.197 A 
ATOM      3  N   UNL     1       2.716  -0.781  11.200  0.00  0.00    -0.122 NA
ATOM      4  N   UNL     1       3.226  -0.999  12.359  0.00  0.00    -0.128 NA
ATOM      5  C   UNL     1       2.490  -0.435  13.288  0.00  0.00    +0.169 A 
ATOM      6  N   UNL     1       1.440   0.188  12.648  0.00  0.00    -0.270 N 
BRANCH   6   7
ATOM      7  C   UNL     1       0.402   0.921  13.239  0.00  0.00    +0.051 A 
ATOM      8  C   UNL     1       0.679   2.114  13.894  0.00  0.00    +0.026 A 
ATOM      9  C   UNL     1      -0.346   2.835  14.476  0.00  0.00    +0.002 A 
ATOM     10  C   UNL     1      -1.646   2.370  14.406  0.00  0.00    +0.000 A 
ATOM     11  C   UNL     1      -1.925   1.183  13.755  0.00  0.00    +0.002 A 
ATOM     12  C   UNL     1      -0.905   0.461  13.166  0.00  0.00    +0.026 A 
ENDBRANCH   6   7
BRANCH   5  13
ATOM     13  C   UNL     1       2.741  -0.458  14.744  0.00  0.00    +0.020 A 
ATOM     14  C   UNL     1       1.729  -0.101  15.636  0.00  0.00    +0.011 A 
ATOM     15  C   UNL     1       1.971  -0.125  16.994  0.00  0.00    +0.001 A 
ATOM     16  C   UNL     1       3.213  -0.503  17.472  0.00  0.00    +0.000 A 
ATOM     17  C   UNL     1       4.221  -0.858  16.593  0.00  0.00    +0.001 A 
ATOM     18  C   UNL     1       3.991  -0.844  15.233  0.00  0.00    +0.011 A 
ENDBRANCH   5  13
ENDBRANCH   1   2
BRANCH   1  19
ATOM     19  C   UNL     1       1.377  -0.187   8.511  0.00  0.00    +0.173 C 
BRANCH  19  21
ATOM     20  N   UNL     1       0.983  -0.177   6.069  0.00  0.00    -0.315 N 
ATOM     21  C   UNL     1       0.579   0.209   7.295  0.00  0.00    +0.223 C 
ATOM     22  O   UNL     1      -0.427   0.876   7.421  0.00  0.00    -0.275 OA
ATOM     23  H   UNL     1       1.787  -0.710   5.968  0.00  0.00    +0.149 HD
BRANCH  20  24
ATOM     24  C   UNL     1       0.207   0.209   4.887  0.00  0.00    +0.102 C 
BRANCH  24  25
ATOM     25  C   UNL     1       0.877  -0.353   3.631  0.00  0.00    +0.000 C 
BRANCH  25  26
ATOM     26  C   UNL     1       0.067   0.050   2.397  0.00  0.00    -0.077 C 
BRANCH  26  33
ATOM     27  C   UNL     1      -0.019   1.526   0.010  0.00  0.00    -0.013 C 
ATOM     28  C   UNL     1       0.002  -0.004   0.002  0.00  0.00    -0.072 C 
ATOM     29  C   UNL     1       0.717  -0.497  -1.258  0.00  0.00    -0.016 C 
ATOM     30  C   UNL     1       0.735  -2.028  -1.262  0.00  0.00    -0.003 C 
ATOM     31  C   UNL     1       1.410  -2.524   0.020  0.00  0.00    -0.019 C 
ATOM     32  C   UNL     1       0.669  -1.956   1.232  0.00  0.00    -0.078 C 
ATOM     33  N   UNL     1       0.711  -0.490   1.192  0.00  0.00    +0.381 N 
ATOM     34  H   UNL     1       1.671  -0.182   1.159  0.00  0.00    -0.081 HD
ENDBRANCH  26  33
ENDBRANCH  25  26
ENDBRANCH  24  25
ENDBRANCH  20  24
ENDBRANCH  19  21
ENDBRANCH   1  19
TORSDOF 9
