REMARK  Name = ZINC35869263
REMARK  13 active torsions:
REMARK  status: ('A' for Active; 'I' for Inactive)
REMARK    1  A    between atoms: C_1  and  C_2
REMARK    2  A    between atoms: C_3  and  C_13
REMARK    3  A    between atoms: C_4  and  C_12
REMARK    4  A    between atoms: N_5  and  C_11
REMARK    5  A    between atoms: C_6  and  C_7
REMARK    6  A    between atoms: C_7  and  O_9
REMARK    7  A    between atoms: O_9  and  C_10
REMARK    8  A    between atoms: C_13  and  C_15
REMARK    9  A    between atoms: C_15  and  N_16
REMARK   10  A    between atoms: N_16  and  C_17
REMARK   11  A    between atoms: N_16  and  S_24
REMARK   12  A    between atoms: C_17  and  C_18
REMARK   13  A    between atoms: S_24  and  C_27
REMARK                            x       y       z     vdW  Elec       q    Type
REMARK                         _______ _______ _______ _____ _____    ______ ____
ROOT
ATOM      1  N   UNL     1      -0.443   1.240  -4.298  0.00  0.00    -0.167 NA
ENDROOT
BRANCH   1   2
ATOM      2  S   UNL     1       0.807   1.341  -5.379  0.00  0.00    +0.063 S 
ATOM      3  O   UNL     1       0.311   2.046  -6.509  0.00  0.00    -0.153 OA
ATOM      4  O   UNL     1       1.943   1.778  -4.647  0.00  0.00    -0.153 OA
BRANCH   2   5
ATOM      5  C   UNL     1       1.158  -0.298  -5.923  0.00  0.00    +0.131 A 
ATOM      6  C   UNL     1       0.963  -0.642  -7.225  0.00  0.00    +0.031 A 
ATOM      7  C   UNL     1       1.234  -1.932  -7.676  0.00  0.00    +0.003 A 
ATOM      8  C   UNL     1       1.703  -2.886  -6.825  0.00  0.00    +0.010 A 
ATOM      9  C   UNL     1       1.917  -2.566  -5.475  0.00  0.00    +0.002 A 
ATOM     10  C   UNL     1       1.646  -1.253  -5.015  0.00  0.00    +0.097 A 
ATOM     11  N   UNL     1       1.852  -0.943  -3.731  0.00  0.00    -0.253 NA
ATOM     12  C   UNL     1       2.307  -1.830  -2.880  0.00  0.00    +0.111 A 
ATOM     13  C   UNL     1       2.598  -3.136  -3.268  0.00  0.00    +0.020 A 
ATOM     14  C   UNL     1       2.400  -3.523  -4.562  0.00  0.00    +0.011 A 
ENDBRANCH   2   5
ENDBRANCH   1   2
BRANCH   1  15
ATOM     15  C   UNL     1      -0.165   1.059  -2.871  0.00  0.00    +0.189 C 
BRANCH  15  16
ATOM     16  C   UNL     1      -0.226  -0.407  -2.529  0.00  0.00    +0.181 C 
ATOM     17  O   UNL     1      -0.551  -1.214  -3.375  0.00  0.00    -0.291 OA
BRANCH  16  20
ATOM     18  C   UNL     1       0.875   1.423  -0.168  0.00  0.00    +0.047 C 
ATOM     19  C   UNL     1       0.595  -0.057  -0.116  0.00  0.00    -0.008 A 
ATOM     20  C   UNL     1       0.106  -0.859  -1.174  0.00  0.00    +0.043 A 
ATOM     21  C   UNL     1      -0.000  -2.152  -0.687  0.00  0.00    +0.027 A 
ATOM     22  N   UNL     1       0.398  -2.155   0.594  0.00  0.00    -0.341 N 
ATOM     23  C   UNL     1       0.771  -0.878   0.958  0.00  0.00    +0.131 A 
ATOM     24  C   UNL     1       0.435  -3.330   1.468  0.00  0.00    +0.149 C 
ATOM     25  C   UNL     1      -0.481  -3.351  -1.463  0.00  0.00    +0.064 C 
BRANCH  23  26
ATOM     26  C   UNL     1       1.270  -0.473   2.276  0.00  0.00    +0.356 C 
ATOM     27  O   UNL     1       1.567   0.688   2.483  0.00  0.00    -0.243 OA
BRANCH  26  28
ATOM     28  O   UNL     1       1.399  -1.388   3.259  0.00  0.00    -0.463 OA
ATOM     29  C   UNL     1       1.890  -0.923   4.517  0.00  0.00    +0.280 C 
ENDBRANCH  26  28
ENDBRANCH  23  26
ENDBRANCH  16  20
ENDBRANCH  15  16
ENDBRANCH   1  15
BRANCH   1  30
ATOM     30  C   UNL     1      -1.828   1.332  -4.768  0.00  0.00    +0.141 C 
BRANCH  30  31
ATOM     31  C   UNL     1      -2.315   2.777  -4.640  0.00  0.00    +0.134 C 
ATOM     32  C   UNL     1      -3.809   2.862  -5.019  0.00  0.00    +0.035 C 
ATOM     33  C   UNL     1      -3.875   4.200  -5.803  0.00  0.00    +0.031 C 
ATOM     34  C   UNL     1      -2.491   4.201  -6.501  0.00  0.00    +0.160 C 
ATOM     35  O   UNL     1      -1.589   3.617  -5.545  0.00  0.00    -0.375 OA
ENDBRANCH  30  31
ENDBRANCH   1  30
TORSDOF 9
