REMARK  Name = ZINC66303672
REMARK  8 active torsions:
REMARK  status: ('A' for Active; 'I' for Inactive)
REMARK    1  A    between atoms: C_1  and  C_2
REMARK    2  A    between atoms: C_2  and  S_3
REMARK    3  A    between atoms: S_3  and  C_4
REMARK    4  A    between atoms: C_4  and  C_6
REMARK    5  A    between atoms: C_4  and  C_9
REMARK    6  A    between atoms: C_6  and  C_7
REMARK    7  A    between atoms: C_6  and  C_8
REMARK    8  A    between atoms: C_9  and  N_11
REMARK                            x       y       z     vdW  Elec       q    Type
REMARK                         _______ _______ _______ _____ _____    ______ ____
ROOT
ATOM      1  N   UNL     1      -2.954  -4.341  -0.531  0.00  0.00    -0.144 NA
ATOM      2  C   UNL     1      -4.154  -4.920  -0.633  0.00  0.00    +0.222 A 
ATOM      3  N   UNL     1      -5.339  -4.348  -0.348  0.00  0.00    -0.246 N 
ATOM      4  N   UNL     1      -6.340  -5.298  -0.590  0.00  0.00    -0.153 NA
ATOM      5  C   UNL     1      -5.764  -6.403  -1.006  0.00  0.00    +0.160 A 
ATOM      6  N   UNL     1      -4.400  -6.195  -1.048  0.00  0.00    -0.271 N 
ATOM      7  C   UNL     1      -3.563  -7.203  -1.459  0.00  0.00    +0.096 A 
ATOM      8  C   UNL     1      -4.058  -8.399  -1.827  0.00  0.00    +0.018 A 
ATOM      9  C   UNL     1      -5.446  -8.639  -1.798  0.00  0.00    +0.005 A 
ATOM     10  C   UNL     1      -6.291  -7.662  -1.388  0.00  0.00    +0.048 A 
ATOM     11  H   UNL     1      -5.475  -3.441  -0.033  0.00  0.00    +0.192 HD
ENDROOT
BRANCH   1  12
ATOM     12  C   UNL     1      -2.856  -3.088  -0.111  0.00  0.00    +0.252 C 
ATOM     13  O   UNL     1      -3.859  -2.464   0.182  0.00  0.00    -0.272 OA
BRANCH  12  14
ATOM     14  C   UNL     1      -1.502  -2.435   0.003  0.00  0.00    +0.137 C 
BRANCH  14  15
ATOM     15  C   UNL     1      -0.828  -2.883   1.302  0.00  0.00    +0.005 C 
ATOM     16  C   UNL     1      -1.752  -2.584   2.485  0.00  0.00    +0.009 C 
ATOM     17  C   UNL     1      -0.549  -4.386   1.240  0.00  0.00    +0.009 C 
ENDBRANCH  14  15
BRANCH  14  18
ATOM     18  S   UNL     1      -1.700  -0.632   0.015  0.00  0.00    -0.148 S 
BRANCH  18  20
ATOM     19  C   UNL     1      -0.019   1.526   0.010  0.00  0.00    +0.015 C 
ATOM     20  C   UNL     1       0.002  -0.004   0.002  0.00  0.00    +0.066 C 
ENDBRANCH  18  20
ENDBRANCH  14  18
ENDBRANCH  12  14
ENDBRANCH   1  12
TORSDOF 5
