REMARK  Name = ZINC03443445
REMARK  10 active torsions:
REMARK  status: ('A' for Active; 'I' for Inactive)
REMARK    1  A    between atoms: C_1  and  C_2
REMARK    2  A    between atoms: C_2  and  C_3
REMARK    3  A    between atoms: C_3  and  N_4
REMARK    4  A    between atoms: C_5  and  N_36
REMARK    5  A    between atoms: C_6  and  C_13
REMARK    6  A    between atoms: C_13  and  C_15
REMARK    7  A    between atoms: C_15  and  S_16
REMARK    8  A    between atoms: S_16  and  C_17
REMARK    9  A    between atoms: C_20  and  C_29
REMARK   10  A    between atoms: N_21  and  C_22
REMARK                            x       y       z     vdW  Elec       q    Type
REMARK                         _______ _______ _______ _____ _____    ______ ____
ROOT
ATOM      1  S   UNL     1       3.504   2.540  -3.237  0.00  0.00    -0.078 S 
ENDROOT
BRANCH   1   2
ATOM      2  C   UNL     1       4.381   2.926  -1.758  0.00  0.00    +0.197 A 
ATOM      3  N   UNL     1       5.545   2.438  -1.392  0.00  0.00    -0.122 NA
ATOM      4  N   UNL     1       5.892   2.928  -0.256  0.00  0.00    -0.128 NA
ATOM      5  C   UNL     1       4.974   3.763   0.173  0.00  0.00    +0.171 A 
ATOM      6  N   UNL     1       3.977   3.791  -0.778  0.00  0.00    -0.267 N 
BRANCH   6   7
ATOM      7  C   UNL     1       2.794   4.543  -0.745  0.00  0.00    +0.086 A 
ATOM      8  C   UNL     1       2.726   5.761  -1.408  0.00  0.00    +0.029 A 
ATOM      9  C   UNL     1       1.559   6.500  -1.375  0.00  0.00    +0.002 A 
ATOM     10  C   UNL     1       0.459   6.028  -0.681  0.00  0.00    +0.003 A 
ATOM     11  C   UNL     1       0.521   4.814  -0.024  0.00  0.00    +0.040 A 
ATOM     12  C   UNL     1       1.688   4.071  -0.049  0.00  0.00    +0.147 A 
ATOM     13  F   UNL     1       1.750   2.887   0.598  0.00  0.00    -0.203 F 
ENDBRANCH   6   7
BRANCH   5  14
ATOM     14  C   UNL     1       5.003   4.528   1.437  0.00  0.00    +0.038 A 
ATOM     15  C   UNL     1       4.701   5.891   1.439  0.00  0.00    +0.013 A 
ATOM     16  C   UNL     1       4.731   6.599   2.622  0.00  0.00    +0.001 A 
ATOM     17  C   UNL     1       5.059   5.962   3.806  0.00  0.00    +0.001 A 
ATOM     18  C   UNL     1       5.359   4.612   3.813  0.00  0.00    +0.021 A 
ATOM     19  C   UNL     1       5.328   3.889   2.636  0.00  0.00    +0.052 A 
ATOM     20 CL   UNL     1       5.697   2.193   2.647  0.00  0.00    -0.083 Cl
ENDBRANCH   5  14
ENDBRANCH   1   2
BRANCH   1  21
ATOM     21  C   UNL     1       4.654   1.359  -3.986  0.00  0.00    +0.157 C 
BRANCH  21  22
ATOM     22  C   UNL     1       4.096   0.879  -5.301  0.00  0.00    +0.182 C 
ATOM     23  O   UNL     1       3.025   1.295  -5.694  0.00  0.00    -0.291 OA
BRANCH  22  26
ATOM     24  N   UNL     1       5.106  -1.343  -8.063  0.00  0.00    -0.281 N 
ATOM     25  C   UNL     1       4.370  -0.441  -7.349  0.00  0.00    +0.116 A 
ATOM     26  C   UNL     1       4.819  -0.054  -6.075  0.00  0.00    +0.120 A 
ATOM     27  C   UNL     1       6.061  -0.655  -5.573  0.00  0.00    +0.266 A 
ATOM     28  O   UNL     1       6.494  -0.360  -4.474  0.00  0.00    -0.267 OA
ATOM     29  N   UNL     1       6.712  -1.542  -6.354  0.00  0.00    -0.274 N 
ATOM     30  H   UNL     1       7.559  -1.960  -6.027  0.00  0.00    +0.173 HD
ATOM     31  C   UNL     1       6.237  -1.869  -7.567  0.00  0.00    +0.331 A 
ATOM     32  O   UNL     1       6.853  -2.672  -8.240  0.00  0.00    -0.246 OA
BRANCH  25  33
ATOM     33  N   UNL     1       3.223   0.078  -7.865  0.00  0.00    -0.344 N 
ATOM     34  H   UNL     1       2.513   0.370  -7.272  0.00  0.00    +0.144 HD
ATOM     35  H   UNL     1       3.115   0.155  -8.826  0.00  0.00    +0.144 HD
ENDBRANCH  25  33
BRANCH  24  36
ATOM     36  C   UNL     1       4.649  -1.749  -9.395  0.00  0.00    +0.128 C 
BRANCH  36  38
ATOM     37  C   UNL     1       3.255  -3.390 -10.661  0.00  0.00    +0.005 C 
ATOM     38  C   UNL     1       3.731  -2.966  -9.270  0.00  0.00    +0.018 C 
ENDBRANCH  36  38
ENDBRANCH  24  36
ENDBRANCH  22  26
ENDBRANCH  21  22
ENDBRANCH   1  21
TORSDOF 9
