REMARK  Name = ZINC45797671
REMARK  3 active torsions:
REMARK  status: ('A' for Active; 'I' for Inactive)
REMARK    1  A    between atoms: C_2  and  S_14
REMARK    2  A    between atoms: C_6  and  C_7
REMARK    3  A    between atoms: S_14  and  N_17
REMARK                            x       y       z     vdW  Elec       q    Type
REMARK                         _______ _______ _______ _____ _____    ______ ____
ROOT
ATOM      1  C   UNL     1       0.115   1.264   0.028  0.00  0.00    +0.060 A 
ATOM      2  C   UNL     1       1.417   1.773  -0.003  0.00  0.00    +0.123 A 
ATOM      3  C   UNL     1       2.272   0.724  -0.038  0.00  0.00    +0.112 A 
ATOM      4  N   UNL     1       1.556  -0.427  -0.030  0.00  0.00    -0.355 N 
ATOM      5  H   UNL     1       1.925  -1.323  -0.050  0.00  0.00    +0.166 HD
ATOM      6  C   UNL     1       0.217  -0.111   0.010  0.00  0.00    +0.104 A 
ENDROOT
BRANCH   6   7
ATOM      7  C   UNL     1      -0.899  -1.063   0.031  0.00  0.00    +0.263 C 
ATOM      8  O   UNL     1      -2.045  -0.657   0.067  0.00  0.00    -0.268 OA
ATOM      9  N   UNL     1      -0.654  -2.388   0.010  0.00  0.00    -0.296 N 
ATOM     10  C   UNL     1       0.677  -3.013  -0.027  0.00  0.00    +0.108 C 
ATOM     11  C   UNL     1       0.464  -4.541  -0.067  0.00  0.00    +0.020 C 
ATOM     12  C   UNL     1      -0.979  -4.677  -0.620  0.00  0.00    +0.020 C 
ATOM     13  C   UNL     1      -1.675  -3.451   0.027  0.00  0.00    +0.108 C 
ENDBRANCH   6   7
BRANCH   2  14
ATOM     14  S   UNL     1       1.865   3.477   0.002  0.00  0.00    +0.063 S 
ATOM     15  O   UNL     1       3.157   3.559  -0.583  0.00  0.00    -0.153 OA
ATOM     16  O   UNL     1       0.749   4.192  -0.511  0.00  0.00    -0.153 OA
BRANCH  14  17
ATOM     17  N   UNL     1       2.033   3.934   1.585  0.00  0.00    -0.173 NA
ATOM     18  C   UNL     1       0.945   4.630   2.290  0.00  0.00    +0.110 C 
ATOM     19  C   UNL     1       1.491   5.923   2.904  0.00  0.00    +0.017 C 
ATOM     20  C   UNL     1       2.711   5.606   3.774  0.00  0.00    +0.006 C 
ATOM     21  C   UNL     1       3.797   4.972   2.905  0.00  0.00    +0.008 C 
ATOM     22  C   UNL     1       3.268   3.651   2.324  0.00  0.00    +0.083 C 
ATOM     23  C   UNL     1       4.323   3.052   1.397  0.00  0.00    +0.021 C 
ATOM     24  C   UNL     1       5.592   2.765   2.204  0.00  0.00    +0.002 C 
ATOM     25  C   UNL     1       6.119   4.061   2.823  0.00  0.00    +0.000 C 
ATOM     26  C   UNL     1       5.048   4.679   3.731  0.00  0.00    +0.005 C 
ENDBRANCH  14  17
ENDBRANCH   2  14
TORSDOF 3
