REMARK  Name = ZINC39511917
REMARK  2 active torsions:
REMARK  status: ('A' for Active; 'I' for Inactive)
REMARK    1  A    between atoms: C_3  and  O_15
REMARK    2  A    between atoms: C_8  and  O_11
REMARK                            x       y       z     vdW  Elec       q    Type
REMARK                         _______ _______ _______ _____ _____    ______ ____
ROOT
ATOM      1  C   UNL     1      -0.019   1.526   0.010  0.00  0.00    +0.021 C 
ATOM      2  C   UNL     1       1.420   2.052  -0.001  0.00  0.00    +0.034 C 
ATOM      3  C   UNL     1       2.142   1.511  -1.238  0.00  0.00    +0.137 C 
ATOM      4  C   UNL     1       2.089  -0.015  -1.228  0.00  0.00    +0.080 C 
ATOM      5  C   UNL     1       2.849  -0.559  -0.010  0.00  0.00    +0.030 C 
ATOM      6  C   UNL     1       4.000  -1.426  -0.562  0.00  0.00    +0.033 C 
ATOM      7  C   UNL     1       3.519  -1.842  -1.974  0.00  0.00    +0.117 C 
ATOM      8  C   UNL     1       2.797  -0.568  -2.480  0.00  0.00    +0.058 C 
ATOM      9  N   UNL     1       0.699  -0.478  -1.201  0.00  0.00    -0.137 NA
ATOM     10  C   UNL     1       0.002  -0.004   0.002  0.00  0.00    +0.121 C 
ATOM     11  F   UNL     1       0.066  -0.118  -2.278  0.00  0.00    -0.132 F 
ENDROOT
BRANCH   7  12
ATOM     12  O   UNL     1       4.630  -2.166  -2.813  0.00  0.00    -0.392 OA
ATOM     13  H   UNL     1       5.159  -2.909  -2.495  0.00  0.00    +0.210 HD
ENDBRANCH   7  12
BRANCH   3  14
ATOM     14  O   UNL     1       3.505   1.941  -1.220  0.00  0.00    -0.390 OA
ATOM     15  H   UNL     1       3.614   2.901  -1.224  0.00  0.00    +0.210 HD
ENDBRANCH   3  14
TORSDOF 2
