REMARK  Name = ZINC45925194
REMARK  9 active torsions:
REMARK  status: ('A' for Active; 'I' for Inactive)
REMARK    1  A    between atoms: C_1  and  C_2
REMARK    2  A    between atoms: C_5  and  C_29
REMARK    3  A    between atoms: C_6  and  N_8
REMARK    4  A    between atoms: C_9  and  C_11
REMARK    5  A    between atoms: C_11  and  S_12
REMARK    6  A    between atoms: S_12  and  C_13
REMARK    7  A    between atoms: C_16  and  S_20
REMARK    8  A    between atoms: C_17  and  N_19
REMARK    9  A    between atoms: S_20  and  C_23
REMARK                            x       y       z     vdW  Elec       q    Type
REMARK                         _______ _______ _______ _____ _____    ______ ____
ROOT
ATOM      1  C   UNL     1       0.537  -2.770   7.657  0.00  0.00    +0.190 A 
ATOM      2  N   UNL     1       0.546  -4.086   7.498  0.00  0.00    -0.228 NA
ATOM      3  C   UNL     1       0.655  -4.897   8.540  0.00  0.00    +0.144 A 
ATOM      4  C   UNL     1       0.758  -4.359   9.808  0.00  0.00    +0.152 A 
ATOM      5  C   UNL     1       0.745  -2.969   9.944  0.00  0.00    +0.146 A 
ATOM      6  N   UNL     1       0.639  -2.214   8.855  0.00  0.00    -0.205 NA
ENDROOT
BRANCH   5   7
ATOM      7  N   UNL     1       0.847  -2.385  11.197  0.00  0.00    -0.342 N 
ATOM      8  H   UNL     1       0.927  -2.942  11.986  0.00  0.00    +0.144 HD
ATOM      9  H   UNL     1       0.837  -1.419  11.284  0.00  0.00    +0.144 HD
ENDBRANCH   5   7
BRANCH   4  10
ATOM     10  S   UNL     1       0.904  -5.402  11.220  0.00  0.00    +0.036 S 
ATOM     11  O   UNL     1      -0.050  -4.938  12.167  0.00  0.00    -0.164 OA
ATOM     12  O   UNL     1       0.912  -6.739  10.739  0.00  0.00    -0.164 OA
BRANCH  10  13
ATOM     13  C   UNL     1       2.493  -5.109  11.922  0.00  0.00    +0.132 A 
ATOM     14  C   UNL     1       2.855  -4.211  12.870  0.00  0.00    +0.036 A 
ATOM     15  C   UNL     1       4.176  -4.158  13.274  0.00  0.00    +0.025 A 
ATOM     16  C   UNL     1       5.071  -5.007  12.709  0.00  0.00    +0.057 A 
ATOM     17  S   UNL     1       4.042  -5.926  11.575  0.00  0.00    -0.063 S 
ATOM     18 BR   UNL     1       6.924  -5.179  13.043  0.00  0.00    -0.043 Br
ENDBRANCH  10  13
ENDBRANCH   4  10
BRANCH   1  19
ATOM     19  S   UNL     1       0.391  -1.734   6.239  0.00  0.00    -0.077 S 
BRANCH  19  20
ATOM     20  C   UNL     1       0.280  -2.900   4.854  0.00  0.00    +0.173 C 
BRANCH  20  22
ATOM     21  N   UNL     1       0.052  -2.797   2.393  0.00  0.00    -0.285 N 
ATOM     22  C   UNL     1       0.150  -2.135   3.562  0.00  0.00    +0.227 C 
ATOM     23  O   UNL     1       0.134  -0.922   3.575  0.00  0.00    -0.275 OA
ATOM     24  H   UNL     1      -0.016  -3.765   2.388  0.00  0.00    +0.155 HD
BRANCH  21  30
ATOM     25  C   UNL     1       1.264   1.227  -0.158  0.00  0.00    +0.044 C 
ATOM     26  C   UNL     1       0.628  -0.137  -0.079  0.00  0.00    -0.049 A 
ATOM     27  C   UNL     1       0.039  -0.690  -1.201  0.00  0.00    +0.004 A 
ATOM     28  C   UNL     1      -0.546  -1.941  -1.133  0.00  0.00    +0.005 A 
ATOM     29  C   UNL     1      -0.543  -2.643   0.057  0.00  0.00    -0.029 A 
ATOM     30  C   UNL     1       0.048  -2.090   1.185  0.00  0.00    +0.037 A 
ATOM     31  C   UNL     1       0.639  -0.835   1.112  0.00  0.00    +0.027 A 
ATOM     32  C   UNL     1      -1.181  -4.006   0.131  0.00  0.00    +0.045 C 
ENDBRANCH  21  30
ENDBRANCH  20  22
ENDBRANCH  19  20
ENDBRANCH   1  19
TORSDOF 7
