REMARK  Name = ZINC36603111
REMARK  10 active torsions:
REMARK  status: ('A' for Active; 'I' for Inactive)
REMARK    1  A    between atoms: C_1  and  C_2
REMARK    2  A    between atoms: C_5  and  C_7
REMARK    3  A    between atoms: C_7  and  N_8
REMARK    4  A    between atoms: N_8  and  C_9
REMARK    5  A    between atoms: C_9  and  C_11
REMARK    6  A    between atoms: C_9  and  C_20
REMARK    7  A    between atoms: C_14  and  N_17
REMARK    8  A    between atoms: N_22  and  C_23
REMARK    9  A    between atoms: C_29  and  C_31
REMARK   10  A    between atoms: C_34  and  N_37
REMARK                            x       y       z     vdW  Elec       q    Type
REMARK                         _______ _______ _______ _____ _____    ______ ____
ROOT
ATOM      1  C   UNL     1       3.327  -2.638  -2.652  0.00  0.00    +0.193 C 
ENDROOT
BRANCH   1   2
ATOM      2  C   UNL     1       2.877  -1.301  -3.184  0.00  0.00    -0.018 A 
ATOM      3  C   UNL     1       2.440  -0.322  -2.312  0.00  0.00    +0.008 A 
ATOM      4  C   UNL     1       2.028   0.904  -2.800  0.00  0.00    +0.033 A 
ATOM      5  C   UNL     1       2.053   1.151  -4.160  0.00  0.00    +0.126 A 
ATOM      6  C   UNL     1       2.491   0.172  -5.032  0.00  0.00    +0.033 A 
ATOM      7  C   UNL     1       2.907  -1.053  -4.544  0.00  0.00    +0.008 A 
BRANCH   5   8
ATOM      8  N   UNL     1       1.611   2.463  -4.683  0.00  0.00    +0.056 N 
ATOM      9  O   UNL     1       1.227   3.319  -3.920  0.00  0.00    -0.126 OA
ATOM     10  O   UNL     1       1.633   2.679  -5.872  0.00  0.00    -0.126 OA
ENDBRANCH   5   8
ENDBRANCH   1   2
BRANCH   1  11
ATOM     11  C   UNL     1       4.830  -2.724  -2.717  0.00  0.00    +0.238 C 
ATOM     12  O   UNL     1       5.440  -3.325  -1.858  0.00  0.00    -0.273 OA
ATOM     13  N   UNL     1       5.496  -2.133  -3.728  0.00  0.00    -0.311 N 
ATOM     14  H   UNL     1       5.008  -1.653  -4.415  0.00  0.00    +0.149 HD
BRANCH  13  15
ATOM     15  C   UNL     1       6.958  -2.217  -3.791  0.00  0.00    +0.073 C 
ATOM     16  C   UNL     1       7.569  -1.107  -2.934  0.00  0.00    +0.022 C 
ATOM     17  C   UNL     1       9.095  -1.195  -2.999  0.00  0.00    +0.002 C 
ATOM     18  C   UNL     1       9.554  -1.031  -4.450  0.00  0.00    +0.000 C 
ATOM     19  C   UNL     1       8.943  -2.142  -5.306  0.00  0.00    +0.002 C 
ATOM     20  C   UNL     1       7.416  -2.054  -5.241  0.00  0.00    +0.022 C 
ENDBRANCH  13  15
ENDBRANCH   1  11
BRANCH   1  21
ATOM     21  N   UNL     1       2.888  -2.782  -1.262  0.00  0.00    -0.275 N 
ATOM     22  C   UNL     1       1.674  -2.333  -0.888  0.00  0.00    +0.248 C 
ATOM     23  O   UNL     1       1.368  -2.317   0.288  0.00  0.00    -0.270 OA
BRANCH  22  24
ATOM     24  C   UNL     1       0.715  -1.859  -1.909  0.00  0.00    +0.037 A 
ATOM     25  C   UNL     1       0.890  -2.205  -3.249  0.00  0.00    +0.015 A 
ATOM     26  C   UNL     1      -0.009  -1.760  -4.196  0.00  0.00    +0.033 A 
ATOM     27  C   UNL     1      -1.082  -0.972  -3.820  0.00  0.00    +0.126 A 
ATOM     28  C   UNL     1      -1.261  -0.625  -2.492  0.00  0.00    +0.033 A 
ATOM     29  C   UNL     1      -0.373  -1.068  -1.534  0.00  0.00    +0.015 A 
BRANCH  27  30
ATOM     30  N   UNL     1      -2.043  -0.498  -4.841  0.00  0.00    +0.056 N 
ATOM     31  O   UNL     1      -1.889  -0.799  -6.002  0.00  0.00    -0.126 OA
ATOM     32  O   UNL     1      -2.981   0.191  -4.515  0.00  0.00    -0.126 OA
ENDBRANCH  27  30
ENDBRANCH  22  24
BRANCH  21  33
ATOM     33  C   UNL     1       3.770  -3.416  -0.278  0.00  0.00    +0.183 C 
BRANCH  33  38
ATOM     34  C   UNL     1       2.243  -8.214   0.018  0.00  0.00    +0.086 C 
ATOM     35  C   UNL     1       3.063  -6.998  -0.327  0.00  0.00    +0.102 A 
ATOM     36  C   UNL     1       4.206  -6.996  -1.036  0.00  0.00    +0.045 A 
ATOM     37  C   UNL     1       4.634  -5.651  -1.120  0.00  0.00    +0.046 A 
ATOM     38  C   UNL     1       3.727  -4.912  -0.456  0.00  0.00    +0.122 A 
ATOM     39  O   UNL     1       2.775  -5.732   0.017  0.00  0.00    -0.463 OA
ENDBRANCH  33  38
ENDBRANCH  21  33
ENDBRANCH   1  21
TORSDOF 9
