REMARK  Name = ZINC48580580
REMARK  7 active torsions:
REMARK  status: ('A' for Active; 'I' for Inactive)
REMARK    1  A    between atoms: C_1  and  S_2
REMARK    2  A    between atoms: S_2  and  N_5
REMARK    3  A    between atoms: N_5  and  C_6
REMARK    4  A    between atoms: C_6  and  C_7
REMARK    5  A    between atoms: C_7  and  C_8
REMARK    6  A    between atoms: N_14  and  C_15
REMARK    7  A    between atoms: C_15  and  C_16
REMARK                            x       y       z     vdW  Elec       q    Type
REMARK                         _______ _______ _______ _____ _____    ______ ____
ROOT
ATOM      1  C   UNL     1       4.328  -0.439  -2.751  0.00  0.00    -0.067 C 
ATOM      2  C   UNL     1       5.030  -1.225  -3.861  0.00  0.00    -0.015 C 
ATOM      3  C   UNL     1       6.484  -0.759  -3.968  0.00  0.00    -0.003 C 
ATOM      4  C   UNL     1       6.509   0.751  -4.221  0.00  0.00    -0.019 C 
ATOM      5  C   UNL     1       5.753   1.464  -3.098  0.00  0.00    -0.078 C 
ATOM      6  N   UNL     1       4.363   0.994  -3.065  0.00  0.00    +0.387 N 
ATOM      7  H   UNL     1       3.934   1.151  -3.965  0.00  0.00    -0.081 HD
ENDROOT
BRANCH   1   8
ATOM      8  C   UNL     1       2.874  -0.901  -2.640  0.00  0.00    +0.002 C 
BRANCH   8   9
ATOM      9  C   UNL     1       2.837  -2.368  -2.205  0.00  0.00    +0.104 C 
BRANCH   9  10
ATOM     10  N   UNL     1       1.448  -2.776  -1.981  0.00  0.00    -0.195 NA
ATOM     11  H   UNL     1       0.752  -2.104  -1.899  0.00  0.00    +0.148 HD
BRANCH  10  13
ATOM     12  C   UNL     1       1.907  -4.957  -0.366  0.00  0.00    +0.214 C 
ATOM     13  S   UNL     1       1.065  -4.383  -1.867  0.00  0.00    +0.027 S 
ATOM     14  O   UNL     1       1.652  -4.978  -3.015  0.00  0.00    -0.158 OA
ATOM     15  O   UNL     1      -0.343  -4.407  -1.677  0.00  0.00    -0.158 OA
ENDBRANCH  10  13
ENDBRANCH   9  10
ENDBRANCH   8   9
ENDBRANCH   1   8
BRANCH   6  16
ATOM     16  C   UNL     1       3.621   1.737  -2.038  0.00  0.00    +0.019 C 
BRANCH  16  17
ATOM     17  C   UNL     1       3.510   3.184  -2.445  0.00  0.00    +0.204 C 
ATOM     18  O   UNL     1       4.001   3.559  -3.489  0.00  0.00    -0.277 OA
ATOM     19  N   UNL     1       2.866   4.061  -1.650  0.00  0.00    -0.242 N 
ATOM     20  C   UNL     1       2.767   5.355  -2.014  0.00  0.00    +0.303 C 
ATOM     21  O   UNL     1       3.259   5.731  -3.060  0.00  0.00    -0.253 OA
ATOM     22  N   UNL     1       2.123   6.231  -1.219  0.00  0.00    -0.313 N 
ATOM     23  H   UNL     1       2.474   3.761  -0.815  0.00  0.00    +0.159 HD
ATOM     24  H   UNL     1       1.730   5.931  -0.384  0.00  0.00    +0.146 HD
ATOM     25  H   UNL     1       2.052   7.163  -1.482  0.00  0.00    +0.146 HD
ENDBRANCH  16  17
ENDBRANCH   6  16
TORSDOF 6
