REMARK  Name = ZINC09472408
REMARK  12 active torsions:
REMARK  status: ('A' for Active; 'I' for Inactive)
REMARK    1  A    between atoms: C_1  and  C_2
REMARK    2  A    between atoms: C_2  and  O_3
REMARK    3  A    between atoms: O_3  and  C_4
REMARK    4  A    between atoms: C_7  and  C_12
REMARK    5  A    between atoms: C_9  and  O_10
REMARK    6  A    between atoms: O_10  and  C_11
REMARK    7  A    between atoms: C_14  and  C_26
REMARK    8  A    between atoms: C_15  and  O_25
REMARK    9  A    between atoms: N_18  and  C_19
REMARK   10  A    between atoms: C_19  and  C_20
REMARK   11  A    between atoms: C_26  and  C_28
REMARK   12  A    between atoms: C_31  and  C_35
REMARK                            x       y       z     vdW  Elec       q    Type
REMARK                         _______ _______ _______ _____ _____    ______ ____
ROOT
ATOM      1  C   UNL     1       3.869   3.549   0.017  0.00  0.00    +0.145 C 
ATOM      2  C   UNL     1       2.514   4.216   0.030  0.00  0.00    +0.071 C 
ATOM      3  C   UNL     1       2.735   5.549   0.113  0.00  0.00    +0.188 C 
ATOM      4  C   UNL     1       4.191   5.797   0.165  0.00  0.00    +0.283 C 
ATOM      5  O   UNL     1       4.709   6.893   0.245  0.00  0.00    -0.267 OA
ATOM      6  N   UNL     1       4.858   4.630   0.106  0.00  0.00    -0.276 N 
ENDROOT
BRANCH   1  10
ATOM      7  C   UNL     1       4.250   0.929   3.375  0.00  0.00    +0.162 A 
ATOM      8  C   UNL     1       4.322   2.301   3.551  0.00  0.00    +0.050 A 
ATOM      9  C   UNL     1       4.204   3.145   2.463  0.00  0.00    +0.009 A 
ATOM     10  C   UNL     1       4.003   2.624   1.199  0.00  0.00    -0.019 A 
ATOM     11  C   UNL     1       3.930   1.256   1.015  0.00  0.00    +0.055 A 
ATOM     12  C   UNL     1       4.053   0.404   2.101  0.00  0.00    +0.162 A 
BRANCH  12  13
ATOM     13  O   UNL     1       3.982  -0.943   1.922  0.00  0.00    -0.491 OA
ATOM     14  C   UNL     1       3.662  -1.407   0.609  0.00  0.00    +0.277 C 
ENDBRANCH  12  13
BRANCH   7  15
ATOM     15  O   UNL     1       4.372   0.096   4.443  0.00  0.00    -0.489 OA
BRANCH  15  17
ATOM     16  C   UNL     1       4.685  -0.381   6.792  0.00  0.00    +0.048 C 
ATOM     17  C   UNL     1       4.572   0.705   5.720  0.00  0.00    +0.226 C 
ENDBRANCH  15  17
ENDBRANCH   7  15
ENDBRANCH   1  10
BRANCH   3  18
ATOM     18  O   UNL     1       1.775   6.502   0.145  0.00  0.00    -0.502 OA
ATOM     19  H   UNL     1       2.203   7.404   0.208  0.00  0.00    +0.292 HD
ENDBRANCH   3  18
BRANCH   2  20
ATOM     20  C   UNL     1       1.210   3.549  -0.040  0.00  0.00    +0.195 C 
ATOM     21  O   UNL     1       0.451   3.596   0.910  0.00  0.00    -0.287 OA
BRANCH  20  22
ATOM     22  C   UNL     1       0.818   2.818  -1.264  0.00  0.00    +0.025 A 
ATOM     23  C   UNL     1       1.655   2.824  -2.383  0.00  0.00    +0.012 A 
ATOM     24  C   UNL     1       1.284   2.142  -3.522  0.00  0.00    +0.007 A 
ATOM     25  C   UNL     1       0.086   1.451  -3.560  0.00  0.00    -0.015 A 
ATOM     26  C   UNL     1      -0.750   1.439  -2.455  0.00  0.00    +0.127 A 
ATOM     27  C   UNL     1      -0.390   2.119  -1.307  0.00  0.00    +0.050 A 
ATOM     28  F   UNL     1      -1.918   0.762  -2.499  0.00  0.00    -0.205 F 
ATOM     29  C   UNL     1      -0.312   0.708  -4.810  0.00  0.00    +0.047 C 
ENDBRANCH  20  22
ENDBRANCH   2  20
BRANCH   6  30
ATOM     30  C   UNL     1       6.314   4.467   0.127  0.00  0.00    +0.183 C 
BRANCH  30  31
ATOM     31  C   UNL     1       6.843   4.501  -1.284  0.00  0.00    +0.122 A 
ATOM     32  C   UNL     1       7.235   5.601  -1.951  0.00  0.00    +0.046 A 
ATOM     33  C   UNL     1       7.659   5.174  -3.231  0.00  0.00    +0.041 A 
ATOM     34  C   UNL     1       7.493   3.840  -3.272  0.00  0.00    +0.195 A 
ATOM     35  O   UNL     1       6.999   3.438  -2.089  0.00  0.00    -0.466 OA
ENDBRANCH  30  31
ENDBRANCH   6  30
TORSDOF 9
