REMARK  Name = ZINC36313859
REMARK  17 active torsions:
REMARK  status: ('A' for Active; 'I' for Inactive)
REMARK    1  A    between atoms: C_1  and  C_2
REMARK    2  A    between atoms: C_2  and  C_3
REMARK    3  A    between atoms: C_3  and  C_4
REMARK    4  A    between atoms: C_4  and  O_5
REMARK    5  A    between atoms: O_5  and  C_6
REMARK    6  A    between atoms: C_6  and  C_7
REMARK    7  A    between atoms: C_7  and  C_9
REMARK    8  A    between atoms: C_7  and  O_36
REMARK    9  A    between atoms: C_9  and  N_10
REMARK   10  A    between atoms: N_10  and  C_11
REMARK   11  A    between atoms: N_10  and  C_32
REMARK   12  A    between atoms: C_11  and  C_12
REMARK   13  A    between atoms: C_13  and  C_31
REMARK   14  A    between atoms: N_15  and  C_24
REMARK   15  A    between atoms: C_16  and  O_17
REMARK   16  A    between atoms: O_17  and  C_18
REMARK   17  A    between atoms: C_32  and  C_33
REMARK                            x       y       z     vdW  Elec       q    Type
REMARK                         _______ _______ _______ _____ _____    ______ ____
ROOT
ATOM      1  C   UNL     1       4.401  -7.586  -6.853  0.00  0.00    +0.021 A 
ATOM      2  C   UNL     1       4.067  -7.799  -8.194  0.00  0.00    +0.065 A 
ATOM      3  N   UNL     1       5.131  -7.584  -8.925  0.00  0.00    -0.168 NA
ATOM      4  N   UNL     1       6.185  -7.225  -8.075  0.00  0.00    -0.200 N 
ATOM      5  C   UNL     1       5.711  -7.227  -6.801  0.00  0.00    +0.225 A 
ATOM      6  C   UNL     1       2.711  -8.207  -8.710  0.00  0.00    +0.068 C 
ENDROOT
BRANCH   4   7
ATOM      7  C   UNL     1       7.494  -6.914  -8.469  0.00  0.00    +0.069 A 
ATOM      8  C   UNL     1       8.173  -5.866  -7.862  0.00  0.00    +0.029 A 
ATOM      9  C   UNL     1       9.462  -5.562  -8.252  0.00  0.00    +0.022 A 
ATOM     10  C   UNL     1      10.078  -6.300  -9.247  0.00  0.00    +0.041 A 
ATOM     11  C   UNL     1       9.404  -7.345  -9.854  0.00  0.00    +0.022 A 
ATOM     12  C   UNL     1       8.116  -7.657  -9.464  0.00  0.00    +0.029 A 
ATOM     13 CL   UNL     1      11.698  -5.914  -9.736  0.00  0.00    -0.084 Cl
ENDBRANCH   4   7
BRANCH   1  14
ATOM     14  C   UNL     1       3.471  -7.724  -5.675  0.00  0.00    -0.036 C 
BRANCH  14  15
ATOM     15  N   UNL     1       2.809  -6.437  -5.420  0.00  0.00    +0.384 N 
ATOM     16  H   UNL     1       3.507  -5.718  -5.300  0.00  0.00    -0.081 HD
BRANCH  15  17
ATOM     17  C   UNL     1       1.995  -6.538  -4.202  0.00  0.00    -0.044 C 
BRANCH  17  18
ATOM     18  C   UNL     1       2.910  -6.747  -2.993  0.00  0.00    +0.124 C 
BRANCH  18  19
ATOM     19  O   UNL     1       3.802  -5.637  -2.873  0.00  0.00    -0.391 OA
ATOM     20  H   UNL     1       3.362  -4.799  -2.675  0.00  0.00    +0.210 HD
ENDBRANCH  18  19
BRANCH  18  21
ATOM     21  C   UNL     1       2.062  -6.860  -1.725  0.00  0.00    +0.189 C 
BRANCH  21  22
ATOM     22  O   UNL     1       2.905  -7.171  -0.614  0.00  0.00    -0.377 OA
BRANCH  22  23
ATOM     23  C   UNL     1       2.208  -7.299   0.627  0.00  0.00    +0.160 C 
BRANCH  23  24
ATOM     24  C   UNL     1       3.205  -7.631   1.740  0.00  0.00    +0.028 C 
BRANCH  24  26
ATOM     25  C   UNL     1       3.455  -8.100   4.181  0.00  0.00    +0.004 C 
ATOM     26  C   UNL     1       2.458  -7.768   3.068  0.00  0.00    -0.001 C 
ENDBRANCH  24  26
ENDBRANCH  23  24
ENDBRANCH  22  23
ENDBRANCH  21  22
ENDBRANCH  18  21
ENDBRANCH  17  18
ENDBRANCH  15  17
BRANCH  15  27
ATOM     27  C   UNL     1       1.946  -6.097  -6.559  0.00  0.00    -0.075 C 
BRANCH  27  28
ATOM     28  C   UNL     1       1.343  -4.707  -6.345  0.00  0.00    -0.028 C 
ATOM     29  C   UNL     1      -0.175  -4.613  -6.179  0.00  0.00    +0.002 C 
ATOM     30  C   UNL     1       0.485  -4.128  -7.471  0.00  0.00    +0.002 C 
ENDBRANCH  27  28
ENDBRANCH  15  27
ENDBRANCH  14  15
ENDBRANCH   1  14
BRANCH   5  31
ATOM     31  O   UNL     1       6.418  -6.928  -5.681  0.00  0.00    -0.438 OA
BRANCH  31  32
ATOM     32  C   UNL     1       7.133  -7.923  -5.094  0.00  0.00    +0.130 A 
ATOM     33  C   UNL     1       7.220  -9.168  -5.701  0.00  0.00    +0.046 A 
ATOM     34  C   UNL     1       7.949 -10.178  -5.102  0.00  0.00    +0.004 A 
ATOM     35  C   UNL     1       8.591  -9.948  -3.899  0.00  0.00    +0.000 A 
ATOM     36  C   UNL     1       8.506  -8.709  -3.292  0.00  0.00    +0.004 A 
ATOM     37  C   UNL     1       7.784  -7.694  -3.890  0.00  0.00    +0.046 A 
ENDBRANCH  31  32
ENDBRANCH   5  31
TORSDOF 15
