REMARK  Name = ZINC39669459
REMARK  7 active torsions:
REMARK  status: ('A' for Active; 'I' for Inactive)
REMARK    1  A    between atoms: C_1  and  C_2
REMARK    2  A    between atoms: C_2  and  S_3
REMARK    3  A    between atoms: S_3  and  C_4
REMARK    4  A    between atoms: C_5  and  C_10
REMARK    5  A    between atoms: C_14  and  C_23
REMARK    6  A    between atoms: N_25  and  C_26
REMARK    7  A    between atoms: C_26  and  C_27
REMARK                            x       y       z     vdW  Elec       q    Type
REMARK                         _______ _______ _______ _____ _____    ______ ____
ROOT
ATOM      1  C   UNL     1       2.268  -2.360   3.605  0.00  0.00    +0.249 C 
ATOM      2  O   UNL     1       2.466  -1.169   3.750  0.00  0.00    -0.270 OA
ATOM      3  N   UNL     1       2.675  -3.230   4.550  0.00  0.00    -0.296 N 
ATOM      4  C   UNL     1       2.620  -4.711   4.505  0.00  0.00    +0.121 C 
ATOM      5  C   UNL     1       3.943  -5.170   5.158  0.00  0.00    +0.100 C 
ATOM      6  C   UNL     1       4.369  -3.994   6.053  0.00  0.00    -0.004 C 
ATOM      7  C   UNL     1       3.283  -2.924   5.867  0.00  0.00    +0.115 C 
ATOM      8  C   UNL     1       5.721  -3.449   5.603  0.00  0.00    -0.010 C 
ATOM      9  C   UNL     1       6.148  -2.318   6.543  0.00  0.00    -0.082 C 
ATOM     10  N   UNL     1       6.237  -2.828   7.916  0.00  0.00    +0.379 N 
ATOM     11  C   UNL     1       4.912  -3.265   8.374  0.00  0.00    -0.082 C 
ATOM     12  C   UNL     1       4.432  -4.435   7.512  0.00  0.00    -0.010 C 
ATOM     13  H   UNL     1       6.875  -3.609   7.943  0.00  0.00    -0.086 HD
ATOM     14  H   UNL     1       6.577  -2.098   8.524  0.00  0.00    -0.086 HD
ENDROOT
BRANCH   1  16
ATOM     15  C   UNL     1       1.790  -2.227   1.153  0.00  0.00    +0.109 A 
ATOM     16  C   UNL     1       1.583  -2.851   2.396  0.00  0.00    +0.069 A 
ATOM     17  C   UNL     1       0.717  -3.948   2.463  0.00  0.00    +0.017 A 
ATOM     18  C   UNL     1       0.099  -4.371   1.300  0.00  0.00    +0.020 A 
ATOM     19  C   UNL     1       0.352  -3.706   0.113  0.00  0.00    +0.112 A 
ATOM     20  N   UNL     1       1.168  -2.671   0.070  0.00  0.00    -0.248 NA
BRANCH  15  21
ATOM     21  S   UNL     1       2.875  -0.844   1.036  0.00  0.00    -0.105 S 
BRANCH  21  23
ATOM     22  C   UNL     1       3.725   0.819  -0.963  0.00  0.00    +0.015 C 
ATOM     23  C   UNL     1       2.815  -0.386  -0.719  0.00  0.00    +0.072 C 
ENDBRANCH  21  23
ENDBRANCH  15  21
ENDBRANCH   1  16
BRANCH   5  24
ATOM     24  C   UNL     1       4.986  -5.432   4.101  0.00  0.00    +0.218 C 
ATOM     25  O   UNL     1       4.966  -4.807   3.062  0.00  0.00    -0.275 OA
ATOM     26  N   UNL     1       5.940  -6.360   4.312  0.00  0.00    -0.315 N 
ATOM     27  H   UNL     1       5.956  -6.859   5.143  0.00  0.00    +0.149 HD
BRANCH  26  28
ATOM     28  C   UNL     1       6.954  -6.614   3.285  0.00  0.00    +0.109 C 
BRANCH  28  29
ATOM     29  C   UNL     1       7.910  -7.705   3.772  0.00  0.00    +0.024 C 
ATOM     30  C   UNL     1       8.893  -8.059   2.653  0.00  0.00    +0.008 C 
ATOM     31  C   UNL     1       9.829  -9.173   3.128  0.00  0.00    +0.019 C 
ATOM     32  C   UNL     1      10.629  -8.681   4.338  0.00  0.00    +0.108 C 
ATOM     33  N   UNL     1       9.691  -8.204   5.363  0.00  0.00    -0.299 N 
ATOM     34  C   UNL     1       8.688  -7.197   4.989  0.00  0.00    +0.113 C 
ATOM     35  C   UNL     1       9.752  -8.693   6.656  0.00  0.00    +0.218 A 
ATOM     36  N   UNL     1       8.889  -8.246   7.557  0.00  0.00    -0.223 NA
ATOM     37  C   UNL     1       8.918  -8.693   8.802  0.00  0.00    +0.116 A 
ATOM     38  C   UNL     1       9.867  -9.639   9.158  0.00  0.00    +0.039 A 
ATOM     39  C   UNL     1      10.754 -10.084   8.191  0.00  0.00    +0.116 A 
ATOM     40  N   UNL     1      10.667  -9.600   6.963  0.00  0.00    -0.223 NA
ENDBRANCH  28  29
ENDBRANCH  26  28
ENDBRANCH   5  24
TORSDOF 6
