REMARK  Name = ZINC32501403
REMARK  7 active torsions:
REMARK  status: ('A' for Active; 'I' for Inactive)
REMARK    1  A    between atoms: C_1  and  O_2
REMARK    2  A    between atoms: O_2  and  C_3
REMARK    3  A    between atoms: C_8  and  C_9
REMARK    4  A    between atoms: C_15  and  O_31
REMARK    5  A    between atoms: C_16  and  C_24
REMARK    6  A    between atoms: C_19  and  C_20
REMARK    7  A    between atoms: C_24  and  N_25
REMARK                            x       y       z     vdW  Elec       q    Type
REMARK                         _______ _______ _______ _____ _____    ______ ____
ROOT
ATOM      1  C   UNL     1       2.337   1.553  -0.011  0.00  0.00    +0.080 A 
ATOM      2  C   UNL     1       2.474   0.086  -0.021  0.00  0.00    +0.201 A 
ATOM      3  O   UNL     1       3.567  -0.453  -0.034  0.00  0.00    -0.286 OA
ATOM      4  C   UNL     1       1.225  -0.697  -0.013  0.00  0.00    +0.065 A 
ATOM      5  C   UNL     1       1.246  -2.092  -0.021  0.00  0.00    +0.019 A 
ATOM      6  C   UNL     1       0.071  -2.788  -0.014  0.00  0.00    +0.046 A 
ATOM      7  C   UNL     1      -1.147  -2.111   0.001  0.00  0.00    +0.122 A 
ATOM      8  C   UNL     1      -1.184  -0.727   0.009  0.00  0.00    +0.021 A 
ATOM      9  C   UNL     1       0.002  -0.004   0.002  0.00  0.00    +0.144 A 
ATOM     10  O   UNL     1      -0.016   1.343   0.009  0.00  0.00    -0.450 OA
ATOM     11  C   UNL     1       1.090   2.092   0.003  0.00  0.00    +0.220 A 
ENDROOT
BRANCH   1  17
ATOM     12  C   UNL     1       4.117   2.830   1.188  0.00  0.00    +0.128 A 
ATOM     13  C   UNL     1       5.237   3.644   1.172  0.00  0.00    +0.046 A 
ATOM     14  C   UNL     1       5.780   4.053  -0.032  0.00  0.00    +0.004 A 
ATOM     15  C   UNL     1       5.208   3.653  -1.226  0.00  0.00    +0.001 A 
ATOM     16  C   UNL     1       4.095   2.838  -1.226  0.00  0.00    +0.012 A 
ATOM     17  C   UNL     1       3.537   2.425  -0.018  0.00  0.00    +0.031 A 
BRANCH  12  19
ATOM     18  C   UNL     1       4.229   2.881   3.562  0.00  0.00    +0.277 C 
ATOM     19  O   UNL     1       3.583   2.427   2.371  0.00  0.00    -0.494 OA
ENDBRANCH  12  19
ENDBRANCH   1  17
BRANCH  11  20
ATOM     20  C   UNL     1       0.950   3.592   0.012  0.00  0.00    +0.451 C 
ATOM     21  F   UNL     1       0.894   4.064  -1.304  0.00  0.00    -0.163 F 
ATOM     22  F   UNL     1      -0.225   3.946   0.685  0.00  0.00    -0.163 F 
ATOM     23  F   UNL     1       2.050   4.160   0.664  0.00  0.00    -0.163 F 
ENDBRANCH  11  20
BRANCH   7  24
ATOM     24  O   UNL     1      -2.308  -2.814   0.007  0.00  0.00    -0.506 OA
ATOM     25  H   UNL     1      -3.272  -2.285   0.019  0.00  0.00    +0.292 HD
ENDBRANCH   7  24
BRANCH   8  26
ATOM     26  C   UNL     1      -2.507  -0.007   0.026  0.00  0.00    -0.032 C 
BRANCH  26  27
ATOM     27  N   UNL     1      -2.951   0.236  -1.354  0.00  0.00    +0.398 N 
ATOM     28  C   UNL     1      -1.951   1.014  -2.099  0.00  0.00    -0.073 C 
ATOM     29  C   UNL     1      -2.483   1.295  -3.508  0.00  0.00    +0.009 C 
ATOM     30  C   UNL     1      -2.834  -0.036  -4.182  0.00  0.00    +0.155 C 
ATOM     31  O   UNL     1      -3.750  -0.754  -3.351  0.00  0.00    -0.398 OA
ATOM     32  C   UNL     1      -3.249  -1.028  -2.041  0.00  0.00    +0.086 C 
ATOM     33  H   UNL     1      -3.878   0.826  -1.311  0.00  0.00    -0.078 HD
ENDBRANCH  26  27
ENDBRANCH   8  26
TORSDOF 6
