REMARK  Name = ZINC03018563
REMARK  15 active torsions:
REMARK  status: ('A' for Active; 'I' for Inactive)
REMARK    1  A    between atoms: C_1  and  C_2
REMARK    2  A    between atoms: C_2  and  C_3
REMARK    3  A    between atoms: C_3  and  C_5
REMARK    4  A    between atoms: C_3  and  S_17
REMARK    5  A    between atoms: N_7  and  C_8
REMARK    6  A    between atoms: N_7  and  C_10
REMARK    7  A    between atoms: C_8  and  C_9
REMARK    8  A    between atoms: C_10  and  C_11
REMARK    9  A    between atoms: S_17  and  C_18
REMARK   10  A    between atoms: C_22  and  C_30
REMARK   11  A    between atoms: C_23  and  C_25
REMARK   12  A    between atoms: C_25  and  O_27
REMARK   13  A    between atoms: O_27  and  C_28
REMARK   14  A    between atoms: C_28  and  C_29
REMARK   15  A    between atoms: N_33  and  N_34
REMARK                            x       y       z     vdW  Elec       q    Type
REMARK                         _______ _______ _______ _____ _____    ______ ____
ROOT
ATOM      1  C   UNL     1       1.983   0.711  -2.349  0.00  0.00    +0.190 A 
ATOM      2  N   UNL     1       0.837   1.267  -2.687  0.00  0.00    -0.215 NA
ATOM      3  C   UNL     1       0.295   1.068  -3.877  0.00  0.00    +0.117 A 
ATOM      4  C   UNL     1       0.913   0.250  -4.855  0.00  0.00    +0.077 A 
ATOM      5  C   UNL     1       0.229   0.130  -6.066  0.00  0.00    -0.015 A 
ATOM      6  C   UNL     1      -0.957   0.782  -6.244  0.00  0.00    +0.102 A 
ATOM      7  S   UNL     1      -1.186   1.620  -4.685  0.00  0.00    -0.062 S 
ATOM      8  C   UNL     1       0.800  -0.716  -7.174  0.00  0.00    +0.046 C 
ATOM      9  C   UNL     1       2.198  -0.358  -4.445  0.00  0.00    +0.280 A 
ATOM     10  O   UNL     1       2.817  -1.080  -5.207  0.00  0.00    -0.265 OA
ATOM     11  N   UNL     1       2.670  -0.092  -3.212  0.00  0.00    -0.209 N 
ENDROOT
BRANCH  11  12
ATOM     12  N   UNL     1       3.857  -0.640  -2.816  0.00  0.00    -0.293 N 
ATOM     13  H   UNL     1       4.419  -1.289  -3.503  0.00  0.00    +0.163 HD
ATOM     14  H   UNL     1       4.250  -0.432  -1.809  0.00  0.00    +0.163 HD
ENDBRANCH  11  12
BRANCH   6  15
ATOM     15  C   UNL     1      -1.825   0.791  -7.421  0.00  0.00    +0.346 C 
ATOM     16  O   UNL     1      -1.514   0.157  -8.411  0.00  0.00    -0.244 OA
BRANCH  15  17
ATOM     17  O   UNL     1      -2.971   1.503  -7.408  0.00  0.00    -0.461 OA
BRANCH  17  18
ATOM     18  C   UNL     1      -3.771   1.467  -8.592  0.00  0.00    +0.229 C 
ATOM     19  C   UNL     1      -5.020   2.327  -8.391  0.00  0.00    +0.048 C 
ENDBRANCH  17  18
ENDBRANCH  15  17
ENDBRANCH   6  15
BRANCH   1  20
ATOM     20  S   UNL     1       2.648   1.018  -0.747  0.00  0.00    -0.073 S 
BRANCH  20  21
ATOM     21  C   UNL     1       1.292   1.973  -0.022  0.00  0.00    +0.140 C 
BRANCH  21  22
ATOM     22  C   UNL     1       0.085   1.087   0.142  0.00  0.00    +0.229 C 
ATOM     23  O   UNL     1       0.223  -0.113   0.247  0.00  0.00    -0.274 OA
ATOM     24  N   UNL     1      -1.150   1.628   0.167  0.00  0.00    -0.297 N 
BRANCH  24  25
ATOM     25  C   UNL     1      -1.317   3.078   0.040  0.00  0.00    +0.105 C 
ATOM     26  C   UNL     1      -1.463   3.447  -1.437  0.00  0.00    +0.024 C 
ENDBRANCH  24  25
BRANCH  24  27
ATOM     27  C   UNL     1      -2.324   0.766   0.321  0.00  0.00    +0.142 C 
BRANCH  27  28
ATOM     28  C   UNL     1      -2.640   0.604   1.785  0.00  0.00    -0.030 A 
ATOM     29  C   UNL     1      -2.078  -0.435   2.503  0.00  0.00    +0.005 A 
ATOM     30  C   UNL     1      -2.364  -0.581   3.848  0.00  0.00    +0.000 A 
ATOM     31  C   UNL     1      -3.220   0.306   4.472  0.00  0.00    +0.000 A 
ATOM     32  C   UNL     1      -3.787   1.342   3.753  0.00  0.00    +0.000 A 
ATOM     33  C   UNL     1      -3.497   1.490   2.410  0.00  0.00    +0.005 A 
ENDBRANCH  27  28
ENDBRANCH  24  27
ENDBRANCH  21  22
BRANCH  21  35
ATOM     34  C   UNL     1       2.851   3.525   1.163  0.00  0.00    +0.005 C 
ATOM     35  C   UNL     1       1.721   2.510   1.345  0.00  0.00    +0.020 C 
ENDBRANCH  21  35
ENDBRANCH  20  21
ENDBRANCH   1  20
TORSDOF 11
