REMARK  Name = ZINC64020226
REMARK  4 active torsions:
REMARK  status: ('A' for Active; 'I' for Inactive)
REMARK    1  A    between atoms: C_8  and  N_11
REMARK    2  A    between atoms: C_12  and  C_14
REMARK    3  A    between atoms: C_14  and  S_15
REMARK    4  A    between atoms: S_15  and  C_16
REMARK                            x       y       z     vdW  Elec       q    Type
REMARK                         _______ _______ _______ _____ _____    ______ ____
ROOT
ATOM      1  N   UNL     1       2.955  -3.464   1.161  0.00  0.00    -0.288 N 
ATOM      2  C   UNL     1       4.011  -4.300   1.201  0.00  0.00    +0.225 C 
ATOM      3  O   UNL     1       4.751  -4.389   0.244  0.00  0.00    -0.275 OA
ATOM      4  H   UNL     1       2.363  -3.392   1.927  0.00  0.00    +0.151 HD
ENDROOT
BRANCH   1  12
ATOM      5  C   UNL     1      -0.017   1.371   0.010  0.00  0.00    +0.002 A 
ATOM      6  C   UNL     1       1.157   2.102   0.002  0.00  0.00    +0.001 A 
ATOM      7  C   UNL     1       2.367   1.427  -0.013  0.00  0.00    +0.016 A 
ATOM      8  C   UNL     1       2.384   0.051  -0.020  0.00  0.00    +0.032 A 
ATOM      9  C   UNL     1       1.215  -0.716  -0.013  0.00  0.00    +0.043 A 
ATOM     10  C   UNL     1       0.002  -0.004   0.002  0.00  0.00    +0.024 A 
ATOM     11  N   UNL     1       1.341  -2.104  -0.022  0.00  0.00    -0.316 N 
ATOM     12  C   UNL     1       2.700  -2.663  -0.039  0.00  0.00    +0.224 C 
ATOM     13  S   UNL     1       3.714  -1.130  -0.039  0.00  0.00    -0.082 S 
ATOM     14  H   UNL     1       0.560  -2.680  -0.018  0.00  0.00    +0.149 HD
ENDBRANCH   1  12
BRANCH   2  15
ATOM     15  C   UNL     1       4.274  -5.124   2.436  0.00  0.00    +0.168 C 
BRANCH  15  16
ATOM     16  S   UNL     1       5.755  -6.139   2.181  0.00  0.00    -0.106 S 
BRANCH  16  17
ATOM     17  C   UNL     1       5.930  -7.057   3.736  0.00  0.00    +0.236 C 
ATOM     18  N   UNL     1       6.020  -6.123   4.865  0.00  0.00    -0.355 N 
ATOM     19  C   UNL     1       5.015  -6.367   5.655  0.00  0.00    +0.061 A 
ATOM     20  C   UNL     1       4.575  -5.772   6.925  0.00  0.00    +0.027 A 
ATOM     21  C   UNL     1       3.466  -6.243   7.530  0.00  0.00    +0.002 A 
ATOM     22  C   UNL     1       2.699  -7.294   6.997  0.00  0.00    +0.002 A 
ATOM     23  C   UNL     1       3.014  -7.909   5.840  0.00  0.00    +0.027 A 
ATOM     24  C   UNL     1       4.202  -7.479   5.090  0.00  0.00    +0.061 A 
ATOM     25  N   UNL     1       4.737  -7.880   3.973  0.00  0.00    -0.355 N 
ATOM     26  H   UNL     1       6.704  -5.448   4.998  0.00  0.00    +0.162 HD
ATOM     27  H   UNL     1       4.407  -8.591   3.401  0.00  0.00    +0.162 HD
ENDBRANCH  16  17
ENDBRANCH  15  16
ENDBRANCH   2  15
TORSDOF 4
