REMARK  Name = ZINC39681166
REMARK  5 active torsions:
REMARK  status: ('A' for Active; 'I' for Inactive)
REMARK    1  A    between atoms: C_1  and  C_2
REMARK    2  A    between atoms: C_2  and  C_4
REMARK    3  A    between atoms: C_2  and  N_10
REMARK    4  A    between atoms: C_11  and  C_13
REMARK    5  A    between atoms: C_24  and  C_26
REMARK                            x       y       z     vdW  Elec       q    Type
REMARK                         _______ _______ _______ _____ _____    ______ ____
ROOT
ATOM      1  C   UNL     1      -3.433  -1.176   1.184  0.00  0.00    +0.100 C 
ATOM      2  C   UNL     1      -3.511  -2.571   0.526  0.00  0.00    +0.121 C 
ATOM      3  N   UNL     1      -3.405  -3.525   1.655  0.00  0.00    -0.295 N 
ATOM      4  C   UNL     1      -4.205  -2.904   2.738  0.00  0.00    +0.115 C 
ATOM      5  C   UNL     1      -3.893  -1.397   2.635  0.00  0.00    -0.004 C 
ATOM      6  C   UNL     1      -5.146  -0.577   2.923  0.00  0.00    -0.010 C 
ATOM      7  C   UNL     1      -5.551  -0.768   4.388  0.00  0.00    -0.082 C 
ATOM      8  N   UNL     1      -4.451  -0.341   5.261  0.00  0.00    +0.379 N 
ATOM      9  C   UNL     1      -3.277  -1.196   5.043  0.00  0.00    -0.082 C 
ATOM     10  C   UNL     1      -2.777  -1.023   3.606  0.00  0.00    -0.010 C 
ATOM     11  C   UNL     1      -2.734  -4.693   1.690  0.00  0.00    +0.265 C 
ATOM     12  O   UNL     1      -2.039  -5.023   0.750  0.00  0.00    -0.268 OA
ATOM     13  H   UNL     1      -4.210   0.616   5.053  0.00  0.00    -0.086 HD
ATOM     14  H   UNL     1      -4.742  -0.411   6.224  0.00  0.00    -0.086 HD
ENDROOT
BRANCH  11  15
ATOM     15  C   UNL     1      -2.844  -5.576   2.876  0.00  0.00    +0.126 A 
ATOM     16  C   UNL     1      -2.049  -6.730   2.947  0.00  0.00    +0.033 A 
ATOM     17  C   UNL     1      -2.141  -7.551   4.034  0.00  0.00    +0.012 A 
ATOM     18  C   UNL     1      -3.043  -7.204   5.057  0.00  0.00    +0.000 A 
ATOM     19  C   UNL     1      -3.188  -8.002   6.203  0.00  0.00    +0.010 A 
ATOM     20  C   UNL     1      -4.070  -7.635   7.173  0.00  0.00    +0.001 A 
ATOM     21  C   UNL     1      -4.833  -6.475   7.044  0.00  0.00    +0.002 A 
ATOM     22  C   UNL     1      -4.720  -5.677   5.949  0.00  0.00    +0.028 A 
ATOM     23  C   UNL     1      -3.818  -6.023   4.923  0.00  0.00    +0.072 A 
ATOM     24  N   UNL     1      -3.683  -5.256   3.842  0.00  0.00    -0.242 NA
ENDBRANCH  11  15
BRANCH   1  26
ATOM     25  N   UNL     1      -1.783   0.665   1.084  0.00  0.00    -0.308 N 
ATOM     26  C   UNL     1      -2.017  -0.660   1.156  0.00  0.00    +0.219 C 
ATOM     27  O   UNL     1      -1.087  -1.438   1.197  0.00  0.00    -0.275 OA
ATOM     28  H   UNL     1      -2.527   1.287   1.050  0.00  0.00    +0.149 HD
BRANCH  25  30
ATOM     29  C   UNL     1       0.116   1.300   2.488  0.00  0.00    +0.033 C 
ATOM     30  C   UNL     1      -0.407   1.166   1.056  0.00  0.00    +0.100 C 
BRANCH  30  31
ATOM     31  C   UNL     1      -0.376   2.513   0.382  0.00  0.00    -0.025 A 
ATOM     32  C   UNL     1      -1.372   3.449   0.619  0.00  0.00    +0.025 A 
ATOM     33  C   UNL     1      -1.311   4.674  -0.018  0.00  0.00    +0.111 A 
ATOM     34  N   UNL     1      -0.321   4.957  -0.842  0.00  0.00    -0.263 NA
ATOM     35  C   UNL     1       0.643   4.092  -1.091  0.00  0.00    +0.111 A 
ATOM     36  C   UNL     1       0.651   2.849  -0.486  0.00  0.00    +0.025 A 
ENDBRANCH  30  31
ENDBRANCH  25  30
ENDBRANCH   1  26
TORSDOF 4
