REMARK  Name = ZINC02652161
REMARK  9 active torsions:
REMARK  status: ('A' for Active; 'I' for Inactive)
REMARK    1  A    between atoms: C_1  and  C_2
REMARK    2  A    between atoms: C_6  and  N_8
REMARK    3  A    between atoms: C_21  and  S_22
REMARK    4  A    between atoms: S_22  and  C_23
REMARK    5  A    between atoms: C_23  and  C_24
REMARK    6  A    between atoms: N_26  and  C_27
REMARK    7  A    between atoms: C_27  and  C_28
REMARK    8  A    between atoms: C_28  and  C_29
REMARK    9  A    between atoms: C_28  and  C_30
REMARK                            x       y       z     vdW  Elec       q    Type
REMARK                         _______ _______ _______ _____ _____    ______ ____
ROOT
ATOM      1  N   UNL     1      -0.069   5.242   0.029  0.00  0.00    -0.245 N 
ATOM      2  C   UNL     1       1.092   5.923   0.124  0.00  0.00    +0.268 A 
ATOM      3  O   UNL     1       2.151   5.329   0.203  0.00  0.00    -0.267 OA
ATOM      4  C   UNL     1       1.058   7.396   0.130  0.00  0.00    +0.064 A 
ATOM      5  C   UNL     1       2.228   8.146   0.226  0.00  0.00    +0.015 A 
ATOM      6  C   UNL     1       2.157   9.524   0.229  0.00  0.00    +0.001 A 
ATOM      7  C   UNL     1       0.930  10.161   0.137  0.00  0.00    +0.002 A 
ATOM      8  C   UNL     1      -0.237   9.429   0.042  0.00  0.00    +0.027 A 
ATOM      9  C   UNL     1      -0.185   8.044   0.037  0.00  0.00    +0.064 A 
ATOM     10  N   UNL     1      -1.341   7.279  -0.058  0.00  0.00    -0.255 N 
ATOM     11  C   UNL     1      -1.280   5.910  -0.067  0.00  0.00    +0.245 A 
ATOM     12  N   UNL     1      -2.513   5.475  -0.173  0.00  0.00    -0.109 NA
ATOM     13  N   UNL     1      -3.328   6.467  -0.234  0.00  0.00    -0.120 NA
ATOM     14  C   UNL     1      -2.668   7.598  -0.159  0.00  0.00    +0.198 A 
ENDROOT
BRANCH   1  20
ATOM     15  C   UNL     1      -0.212   0.994   2.501  0.00  0.00    +0.044 C 
ATOM     16  C   UNL     1      -0.118   1.758   1.206  0.00  0.00    -0.048 A 
ATOM     17  C   UNL     1      -0.013   1.076   0.007  0.00  0.00    +0.003 A 
ATOM     18  C   UNL     1       0.079   1.773  -1.183  0.00  0.00    +0.002 A 
ATOM     19  C   UNL     1       0.055   3.154  -1.180  0.00  0.00    +0.026 A 
ATOM     20  C   UNL     1      -0.050   3.842   0.022  0.00  0.00    +0.053 A 
ATOM     21  C   UNL     1      -0.137   3.139   1.216  0.00  0.00    +0.029 A 
ENDBRANCH   1  20
BRANCH  14  22
ATOM     22  S   UNL     1      -3.357   9.219  -0.203  0.00  0.00    -0.076 S 
BRANCH  22  23
ATOM     23  C   UNL     1      -5.143   8.933  -0.344  0.00  0.00    +0.173 C 
BRANCH  23  24
ATOM     24  C   UNL     1      -5.861  10.257  -0.391  0.00  0.00    +0.223 C 
ATOM     25  O   UNL     1      -5.231  11.291  -0.336  0.00  0.00    -0.275 OA
ATOM     26  N   UNL     1      -7.204  10.292  -0.496  0.00  0.00    -0.314 N 
ATOM     27  H   UNL     1      -7.709   9.464  -0.541  0.00  0.00    +0.149 HD
BRANCH  26  28
ATOM     28  C   UNL     1      -7.903  11.579  -0.542  0.00  0.00    +0.107 C 
BRANCH  28  29
ATOM     29  C   UNL     1      -9.409  11.338  -0.661  0.00  0.00    -0.000 C 
ATOM     30  C   UNL     1      -9.917  10.647   0.606  0.00  0.00    +0.009 C 
ATOM     31  C   UNL     1     -10.127  12.677  -0.835  0.00  0.00    +0.009 C 
ENDBRANCH  28  29
ENDBRANCH  26  28
ENDBRANCH  23  24
ENDBRANCH  22  23
ENDBRANCH  14  22
TORSDOF 6
