REMARK  Name = ZINC02645160
REMARK  3 active torsions:
REMARK  status: ('A' for Active; 'I' for Inactive)
REMARK    1  A    between atoms: N_8  and  C_10
REMARK    2  A    between atoms: C_13  and  C_16
REMARK    3  A    between atoms: C_19  and  N_22
REMARK                            x       y       z     vdW  Elec       q    Type
REMARK                         _______ _______ _______ _____ _____    ______ ____
ROOT
ATOM      1  C   UNL     1       3.995   3.905  -0.019  0.00  0.00    +0.035 A 
ATOM      2  C   UNL     1       4.884   4.973  -0.018  0.00  0.00    +0.024 A 
ATOM      3  C   UNL     1       4.409   6.268  -0.013  0.00  0.00    +0.010 A 
ATOM      4  C   UNL     1       3.035   6.504   0.001  0.00  0.00    -0.018 A 
ATOM      5  C   UNL     1       2.145   5.431   0.005  0.00  0.00    +0.010 A 
ATOM      6  C   UNL     1       2.625   4.139  -0.005  0.00  0.00    +0.024 A 
ENDROOT
BRANCH   1  14
ATOM      7  C   UNL     1       6.660  -1.581  -0.070  0.00  0.00    +0.000 A 
ATOM      8  C   UNL     1       5.347  -2.017  -0.059  0.00  0.00    +0.001 A 
ATOM      9  C   UNL     1       4.312  -1.105  -0.044  0.00  0.00    +0.011 A 
ATOM     10  C   UNL     1       4.590   0.262  -0.040  0.00  0.00    +0.018 A 
ATOM     11  C   UNL     1       5.917   0.692  -0.051  0.00  0.00    -0.019 A 
ATOM     12  C   UNL     1       6.943  -0.227  -0.065  0.00  0.00    +0.006 A 
ATOM     13  C   UNL     1       5.892   2.200  -0.044  0.00  0.00    +0.148 C 
ATOM     14  N   UNL     1       4.479   2.594  -0.029  0.00  0.00    -0.282 N 
ATOM     15  C   UNL     1       3.712   1.451  -0.027  0.00  0.00    +0.104 C 
ATOM     16  H   UNL     1       1.853   0.621  -0.022  0.00  0.00    +0.157 HD
ATOM     17  N   UNL     1       2.388   1.490  -0.019  0.00  0.00    -0.386 N 
ATOM     18  H   UNL     1       1.901   2.393  -0.010  0.00  0.00    +0.157 HD
ENDBRANCH   1  14
BRANCH   4  19
ATOM     19  C   UNL     1       2.522   7.896   0.012  0.00  0.00    -0.018 A 
ATOM     20  C   UNL     1       1.148   8.133   0.022  0.00  0.00    +0.010 A 
ATOM     21  C   UNL     1       0.673   9.427   0.038  0.00  0.00    +0.024 A 
ATOM     22  C   UNL     1       1.562  10.495   0.034  0.00  0.00    +0.035 A 
ATOM     23  C   UNL     1       2.932  10.261   0.019  0.00  0.00    +0.024 A 
ATOM     24  C   UNL     1       3.412   8.969   0.008  0.00  0.00    +0.010 A 
BRANCH  22  25
ATOM     25  N   UNL     1       1.078  11.806   0.044  0.00  0.00    -0.282 N 
ATOM     26  C   UNL     1      -0.335  12.200   0.055  0.00  0.00    +0.148 C 
ATOM     27  C   UNL     1      -0.360  13.708   0.067  0.00  0.00    -0.019 A 
ATOM     28  C   UNL     1      -1.386  14.627   0.080  0.00  0.00    +0.006 A 
ATOM     29  C   UNL     1      -1.103  15.981   0.082  0.00  0.00    +0.000 A 
ATOM     30  C   UNL     1       0.210  16.417   0.071  0.00  0.00    +0.001 A 
ATOM     31  C   UNL     1       1.245  15.505   0.057  0.00  0.00    +0.011 A 
ATOM     32  C   UNL     1       0.967  14.138   0.055  0.00  0.00    +0.018 A 
ATOM     33  C   UNL     1       1.845  12.949   0.041  0.00  0.00    +0.104 C 
ATOM     34  H   UNL     1       3.704  13.779   0.025  0.00  0.00    +0.157 HD
ATOM     35  N   UNL     1       3.169  12.910   0.027  0.00  0.00    -0.386 N 
ATOM     36  H   UNL     1       3.656  12.007   0.019  0.00  0.00    +0.157 HD
ENDBRANCH  22  25
ENDBRANCH   4  19
TORSDOF 3
