REMARK  Name = ZINC12846691
REMARK  9 active torsions:
REMARK  status: ('A' for Active; 'I' for Inactive)
REMARK    1  A    between atoms: C_1  and  C_2
REMARK    2  A    between atoms: C_2  and  C_3
REMARK    3  A    between atoms: C_2  and  C_4
REMARK    4  A    between atoms: C_2  and  C_5
REMARK    5  A    between atoms: C_12  and  N_17
REMARK    6  A    between atoms: C_13  and  C_14
REMARK    7  A    between atoms: C_18  and  C_20
REMARK    8  A    between atoms: C_20  and  N_21
REMARK    9  A    between atoms: C_24  and  C_26
REMARK                            x       y       z     vdW  Elec       q    Type
REMARK                         _______ _______ _______ _____ _____    ______ ____
ROOT
ATOM      1  N   UNL     1       6.380  -0.196  -2.793  0.00  0.00    -0.278 N 
ATOM      2  C   UNL     1       5.420  -0.524  -1.906  0.00  0.00    +0.239 C 
ATOM      3  O   UNL     1       4.666  -1.444  -2.141  0.00  0.00    -0.273 OA
ATOM      4  H   UNL     1       6.983   0.540  -2.605  0.00  0.00    +0.155 HD
ENDROOT
BRANCH   1  11
ATOM      5  C   UNL     1       6.750  -3.229  -8.408  0.00  0.00    -0.000 C 
ATOM      6  C   UNL     1       8.208  -2.877  -8.100  0.00  0.00    +0.009 C 
ATOM      7  C   UNL     1       8.274  -1.549  -7.344  0.00  0.00    +0.037 C 
ATOM      8  C   UNL     1       7.342  -1.623  -6.141  0.00  0.00    -0.023 A 
ATOM      9  C   UNL     1       6.363  -2.552  -6.075  0.00  0.00    -0.004 A 
ATOM     10  S   UNL     1       5.559  -2.252  -4.527  0.00  0.00    -0.077 S 
ATOM     11  C   UNL     1       6.506  -0.912  -3.974  0.00  0.00    +0.084 A 
ATOM     12  C   UNL     1       7.419  -0.724  -5.002  0.00  0.00    +0.068 A 
ATOM     13  C   UNL     1       6.042  -3.599  -7.097  0.00  0.00    +0.046 C 
BRANCH  12  14
ATOM     14  C   UNL     1       8.427   0.340  -4.940  0.00  0.00    +0.244 C 
ATOM     15  O   UNL     1       9.515   0.119  -4.441  0.00  0.00    -0.270 OA
ATOM     16  N   UNL     1       8.148   1.562  -5.435  0.00  0.00    -0.325 N 
ATOM     17  H   UNL     1       7.281   1.738  -5.832  0.00  0.00    +0.145 HD
ATOM     18  H   UNL     1       8.814   2.265  -5.394  0.00  0.00    +0.145 HD
ENDBRANCH  12  14
BRANCH   5  20
ATOM     19  C   UNL     1       5.243  -4.777  -9.663  0.00  0.00    +0.011 C 
ATOM     20  C   UNL     1       6.701  -4.417  -9.370  0.00  0.00    -0.035 C 
ATOM     21  C   UNL     1       7.406  -4.046 -10.676  0.00  0.00    +0.011 C 
ATOM     22  C   UNL     1       7.404  -5.618  -8.734  0.00  0.00    +0.011 C 
ENDBRANCH   5  20
ENDBRANCH   1  11
BRANCH   2  23
ATOM     23  C   UNL     1       5.282   0.254  -0.622  0.00  0.00    +0.239 C 
BRANCH  23  24
ATOM     24  N   UNL     1       4.174  -0.294   0.164  0.00  0.00    -0.259 N 
ATOM     25  C   UNL     1       2.886   0.098   0.099  0.00  0.00    +0.043 A 
ATOM     26  C   UNL     1       2.183  -0.639   0.991  0.00  0.00    +0.005 A 
ATOM     27  C   UNL     1       3.070  -1.523   1.611  0.00  0.00    +0.169 A 
ATOM     28  N   UNL     1       4.265  -1.318   1.116  0.00  0.00    -0.166 NA
ATOM     29  C   UNL     1       0.705  -0.518   1.261  0.00  0.00    +0.039 C 
ATOM     30  C   UNL     1       0.002  -0.004   0.002  0.00  0.00    +0.005 C 
ATOM     31  C   UNL     1      -0.019   1.522   0.010  0.00  0.00    +0.001 C 
ATOM     32  C   UNL     1       1.402   2.080  -0.000  0.00  0.00    +0.006 C 
ATOM     33  C   UNL     1       2.312   1.154  -0.811  0.00  0.00    +0.055 C 
BRANCH  27  34
ATOM     34  C   UNL     1       2.714  -2.538   2.667  0.00  0.00    +0.436 C 
ATOM     35  F   UNL     1       2.368  -3.747   2.054  0.00  0.00    -0.164 F 
ATOM     36  F   UNL     1       3.812  -2.740   3.510  0.00  0.00    -0.164 F 
ATOM     37  F   UNL     1       1.630  -2.070   3.417  0.00  0.00    -0.164 F 
ENDBRANCH  27  34
ENDBRANCH  23  24
ENDBRANCH   2  23
TORSDOF 6
