REMARK  Name = ZINC47873472
REMARK  6 active torsions:
REMARK  status: ('A' for Active; 'I' for Inactive)
REMARK    1  A    between atoms: C_1  and  C_2
REMARK    2  A    between atoms: C_2  and  C_3
REMARK    3  A    between atoms: C_9  and  N_11
REMARK    4  A    between atoms: N_11  and  C_12
REMARK    5  A    between atoms: C_13  and  N_22
REMARK    6  A    between atoms: N_14  and  C_21
REMARK                            x       y       z     vdW  Elec       q    Type
REMARK                         _______ _______ _______ _____ _____    ______ ____
ROOT
ATOM      1  C   UNL     1       0.811  -3.842   0.367  0.00  0.00    +0.131 A 
ATOM      2  C   UNL     1       1.329  -4.346   1.530  0.00  0.00    +0.127 A 
ATOM      3  N   UNL     1       0.868  -5.552   2.007  0.00  0.00    -0.284 N 
ATOM      4  C   UNL     1      -0.082  -6.230   1.338  0.00  0.00    +0.331 A 
ATOM      5  O   UNL     1      -0.477  -7.294   1.774  0.00  0.00    -0.246 OA
ATOM      6  N   UNL     1      -0.602  -5.750   0.194  0.00  0.00    -0.273 N 
ATOM      7  H   UNL     1      -1.286  -6.255  -0.273  0.00  0.00    +0.173 HD
ATOM      8  C   UNL     1      -0.185  -4.571  -0.307  0.00  0.00    +0.277 A 
ATOM      9  O   UNL     1      -0.665  -4.139  -1.342  0.00  0.00    -0.266 OA
ATOM     10  C   UNL     1       1.416  -6.101   3.250  0.00  0.00    +0.155 C 
ENDROOT
BRANCH   2  11
ATOM     11  N   UNL     1       2.301  -3.653   2.215  0.00  0.00    -0.343 N 
ATOM     12  H   UNL     1       2.622  -2.804   1.874  0.00  0.00    +0.144 HD
ATOM     13  H   UNL     1       2.664  -4.015   3.038  0.00  0.00    +0.144 HD
ENDBRANCH   2  11
BRANCH   1  14
ATOM     14  N   UNL     1       1.267  -2.605  -0.145  0.00  0.00    -0.334 N 
ATOM     15  H   UNL     1       2.008  -2.147   0.282  0.00  0.00    +0.147 HD
BRANCH  14  21
ATOM     16  C   UNL     1       0.846  -0.502  -1.320  0.00  0.00    +0.009 C 
ATOM     17  C   UNL     1       2.347  -0.210  -1.364  0.00  0.00    +0.005 C 
ATOM     18  C   UNL     1       2.947  -0.816  -2.634  0.00  0.00    +0.000 C 
ATOM     19  C   UNL     1       2.722  -2.329  -2.634  0.00  0.00    +0.002 C 
ATOM     20  C   UNL     1       1.221  -2.621  -2.590  0.00  0.00    +0.022 C 
ATOM     21  C   UNL     1       0.620  -2.016  -1.319  0.00  0.00    +0.074 C 
BRANCH  16  23
ATOM     22  C   UNL     1       0.359   1.628  -0.108  0.00  0.00    +0.004 C 
ATOM     23  C   UNL     1       0.245   0.103  -0.050  0.00  0.00    +0.002 C 
ENDBRANCH  16  23
ENDBRANCH  14  21
ENDBRANCH   1  14
TORSDOF 4
