REMARK  Name = ZINC19298739
REMARK  14 active torsions:
REMARK  status: ('A' for Active; 'I' for Inactive)
REMARK    1  A    between atoms: C_1  and  C_2
REMARK    2  A    between atoms: C_2  and  O_3
REMARK    3  A    between atoms: O_3  and  C_4
REMARK    4  A    between atoms: C_4  and  C_6
REMARK    5  A    between atoms: C_10  and  N_11
REMARK    6  A    between atoms: C_12  and  C_14
REMARK    7  A    between atoms: C_14  and  O_15
REMARK    8  A    between atoms: O_15  and  C_16
REMARK    9  A    between atoms: C_16  and  C_18
REMARK   10  A    between atoms: C_21  and  C_24
REMARK   11  A    between atoms: C_24  and  N_25
REMARK   12  A    between atoms: N_28  and  C_29
REMARK   13  A    between atoms: C_29  and  C_30
REMARK   14  A    between atoms: C_29  and  C_31
REMARK                            x       y       z     vdW  Elec       q    Type
REMARK                         _______ _______ _______ _____ _____    ______ ____
ROOT
ATOM      1  O   UNL     1       1.143   1.900   0.001  0.00  0.00    -0.452 OA
ENDROOT
BRANCH   1   2
ATOM      2  C   UNL     1      -0.014   1.210   0.009  0.00  0.00    +0.340 C 
ATOM      3  O   UNL     1       0.002  -0.004   0.002  0.00  0.00    -0.245 OA
BRANCH   2   4
ATOM      4  C   UNL     1      -1.304   1.932   0.019  0.00  0.00    +0.059 A 
ATOM      5  C   UNL     1      -1.326   3.328   0.032  0.00  0.00    +0.015 A 
ATOM      6  C   UNL     1      -2.534   3.995   0.036  0.00  0.00    +0.006 A 
ATOM      7  C   UNL     1      -3.720   3.284   0.037  0.00  0.00    -0.030 A 
ATOM      8  C   UNL     1      -3.705   1.900   0.030  0.00  0.00    +0.006 A 
ATOM      9  C   UNL     1      -2.505   1.220   0.021  0.00  0.00    +0.015 A 
BRANCH   7  10
ATOM     10  C   UNL     1      -5.036   4.019   0.047  0.00  0.00    +0.141 C 
BRANCH  10  11
ATOM     11  N   UNL     1      -5.456   4.250   1.431  0.00  0.00    -0.295 N 
ATOM     12  C   UNL     1      -6.611   4.896   1.686  0.00  0.00    +0.300 C 
ATOM     13  O   UNL     1      -7.305   5.287   0.767  0.00  0.00    -0.253 OA
ATOM     14  N   UNL     1      -6.998   5.108   2.960  0.00  0.00    -0.297 N 
ATOM     15  H   UNL     1      -4.829   3.897   2.263  0.00  0.00    +0.151 HD
ATOM     16  H   UNL     1      -6.370   4.755   3.791  0.00  0.00    +0.150 HD
BRANCH  14  17
ATOM     17  C   UNL     1      -8.254   5.810   3.237  0.00  0.00    +0.068 C 
ATOM     18  C   UNL     1      -9.413   4.812   3.206  0.00  0.00    +0.027 C 
ATOM     19  C   UNL     1      -8.179   6.463   4.619  0.00  0.00    +0.027 C 
ENDBRANCH  14  17
ENDBRANCH  10  11
ENDBRANCH   7  10
ENDBRANCH   2   4
ENDBRANCH   1   2
BRANCH   1  20
ATOM     20  C   UNL     1       2.371   1.126  -0.015  0.00  0.00    +0.328 C 
BRANCH  20  22
ATOM     21  N   UNL     1       4.806   1.562  -0.035  0.00  0.00    -0.277 N 
ATOM     22  C   UNL     1       3.554   2.060  -0.021  0.00  0.00    +0.255 C 
ATOM     23  O   UNL     1       3.379   3.260  -0.013  0.00  0.00    -0.272 OA
ATOM     24  H   UNL     1       4.965   0.473  -0.043  0.00  0.00    +0.155 HD
BRANCH  21  29
ATOM     25  C   UNL     1       7.242   2.103  -0.050  0.00  0.00    +0.091 A 
ATOM     26  C   UNL     1       8.198   3.210  -0.059  0.00  0.00    -0.021 A 
ATOM     27  C   UNL     1       7.650   4.438  -0.047  0.00  0.00    -0.004 A 
ATOM     28  S   UNL     1       5.897   4.152  -0.031  0.00  0.00    -0.077 S 
ATOM     29  C   UNL     1       5.894   2.421  -0.041  0.00  0.00    +0.086 A 
ATOM     30  C   UNL     1       8.694   5.522  -0.054  0.00  0.00    +0.043 C 
ATOM     31  C   UNL     1       9.989   4.812  -0.509  0.00  0.00    +0.010 C 
ATOM     32  C   UNL     1       9.720   3.359  -0.071  0.00  0.00    +0.037 C 
BRANCH  25  33
ATOM     33  C   UNL     1       7.694   0.710  -0.055  0.00  0.00    +0.342 C 
ATOM     34  O   UNL     1       7.875   0.134  -1.111  0.00  0.00    -0.245 OA
BRANCH  33  35
ATOM     35  O   UNL     1       7.908   0.066   1.110  0.00  0.00    -0.461 OA
BRANCH  35  37
ATOM     36  C   UNL     1       8.543  -1.872   2.441  0.00  0.00    +0.048 C 
ATOM     37  C   UNL     1       8.355  -1.313   1.029  0.00  0.00    +0.229 C 
ENDBRANCH  35  37
ENDBRANCH  33  35
ENDBRANCH  25  33
ENDBRANCH  21  29
ENDBRANCH  20  22
ENDBRANCH   1  20
TORSDOF 11
