REMARK  Name = ZINC39675267
REMARK  12 active torsions:
REMARK  status: ('A' for Active; 'I' for Inactive)
REMARK    1  A    between atoms: C_1  and  C_2
REMARK    2  A    between atoms: C_2  and  C_3
REMARK    3  A    between atoms: C_3  and  C_5
REMARK    4  A    between atoms: C_3  and  C_6
REMARK    5  A    between atoms: C_10  and  C_19
REMARK    6  A    between atoms: N_21  and  C_22
REMARK    7  A    between atoms: C_22  and  C_24
REMARK    8  A    between atoms: C_22  and  C_25
REMARK    9  A    between atoms: C_25  and  C_26
REMARK   10  A    between atoms: C_26  and  C_27
REMARK   11  A    between atoms: C_30  and  O_33
REMARK   12  A    between atoms: O_33  and  C_34
REMARK                            x       y       z     vdW  Elec       q    Type
REMARK                         _______ _______ _______ _____ _____    ______ ____
ROOT
ATOM      1  C   UNL     1      -1.383  -2.168  -0.102  0.00  0.00    +0.218 C 
ATOM      2  O   UNL     1      -0.342  -2.774  -0.243  0.00  0.00    -0.275 OA
ATOM      3  N   UNL     1      -2.558  -2.828  -0.143  0.00  0.00    -0.300 N 
ATOM      4  C   UNL     1      -3.921  -2.265   0.001  0.00  0.00    +0.121 C 
ATOM      5  C   UNL     1      -4.774  -3.040  -1.029  0.00  0.00    +0.100 C 
ATOM      6  C   UNL     1      -4.020  -4.362  -1.248  0.00  0.00    -0.004 C 
ATOM      7  C   UNL     1      -2.778  -4.280  -0.347  0.00  0.00    +0.115 C 
ATOM      8  C   UNL     1      -3.597  -4.494  -2.707  0.00  0.00    -0.010 C 
ATOM      9  C   UNL     1      -2.899  -5.842  -2.912  0.00  0.00    -0.082 C 
ATOM     10  N   UNL     1      -3.815  -6.929  -2.546  0.00  0.00    +0.379 N 
ATOM     11  C   UNL     1      -4.143  -6.849  -1.118  0.00  0.00    -0.082 C 
ATOM     12  C   UNL     1      -4.893  -5.543  -0.837  0.00  0.00    -0.010 C 
ATOM     13  H   UNL     1      -4.662  -6.851  -3.089  0.00  0.00    -0.086 HD
ATOM     14  H   UNL     1      -3.375  -7.817  -2.739  0.00  0.00    -0.086 HD
ENDROOT
BRANCH   5  15
ATOM     15  C   UNL     1      -6.151  -3.304  -0.477  0.00  0.00    +0.218 C 
ATOM     16  O   UNL     1      -6.307  -3.461   0.715  0.00  0.00    -0.275 OA
ATOM     17  N   UNL     1      -7.210  -3.365  -1.309  0.00  0.00    -0.312 N 
ATOM     18  H   UNL     1      -7.085  -3.240  -2.263  0.00  0.00    +0.149 HD
BRANCH  17  19
ATOM     19  C   UNL     1      -8.549  -3.622  -0.773  0.00  0.00    +0.070 C 
ATOM     20  C   UNL     1      -9.175  -2.304  -0.311  0.00  0.00    +0.028 C 
BRANCH  19  21
ATOM     21  C   UNL     1      -9.423  -4.248  -1.862  0.00  0.00    +0.026 C 
BRANCH  21  22
ATOM     22  C   UNL     1      -8.866  -5.623  -2.235  0.00  0.00    +0.037 C 
BRANCH  22  23
ATOM     23  C   UNL     1      -9.727  -6.240  -3.307  0.00  0.00    -0.047 A 
ATOM     24  C   UNL     1     -10.811  -7.024  -2.957  0.00  0.00    +0.007 A 
ATOM     25  C   UNL     1     -11.601  -7.590  -3.938  0.00  0.00    +0.046 A 
ATOM     26  C   UNL     1     -11.307  -7.372  -5.276  0.00  0.00    +0.120 A 
ATOM     27  C   UNL     1     -10.220  -6.584  -5.625  0.00  0.00    +0.046 A 
ATOM     28  C   UNL     1      -9.435  -6.016  -4.640  0.00  0.00    +0.007 A 
BRANCH  26  29
ATOM     29  O   UNL     1     -12.083  -7.928  -6.243  0.00  0.00    -0.495 OA
ATOM     30  C   UNL     1     -11.721  -7.660  -7.599  0.00  0.00    +0.277 C 
ENDBRANCH  26  29
ENDBRANCH  22  23
ENDBRANCH  21  22
ENDBRANCH  19  21
ENDBRANCH  17  19
ENDBRANCH   5  15
BRANCH   1  31
ATOM     31  C   UNL     1      -1.364  -0.678   0.118  0.00  0.00    +0.072 C 
ATOM     32  C   UNL     1      -2.017  -0.352   1.462  0.00  0.00    +0.017 C 
BRANCH  31  34
ATOM     33  C   UNL     1       0.100   1.345   0.219  0.00  0.00    +0.004 C 
ATOM     34  C   UNL     1       0.084  -0.182   0.121  0.00  0.00    +0.009 C 
ENDBRANCH  31  34
ENDBRANCH   1  31
TORSDOF 8
