REMARK  Name = ZINC35486673
REMARK  12 active torsions:
REMARK  status: ('A' for Active; 'I' for Inactive)
REMARK    1  A    between atoms: C_1  and  C_2
REMARK    2  A    between atoms: C_2  and  C_3
REMARK    3  A    between atoms: C_2  and  C_4
REMARK    4  A    between atoms: C_4  and  C_5
REMARK    5  A    between atoms: C_5  and  O_6
REMARK    6  A    between atoms: O_6  and  C_7
REMARK    7  A    between atoms: C_11  and  C_13
REMARK    8  A    between atoms: N_28  and  C_29
REMARK    9  A    between atoms: C_29  and  C_30
REMARK   10  A    between atoms: C_30  and  N_31
REMARK   11  A    between atoms: N_31  and  C_32
REMARK   12  A    between atoms: N_31  and  C_33
REMARK                            x       y       z     vdW  Elec       q    Type
REMARK                         _______ _______ _______ _____ _____    ______ ____
ROOT
ATOM      1  C   UNL     1       0.798  -0.954   8.520  0.00  0.00    +0.145 C 
ATOM      2  C   UNL     1       1.491   0.191   9.183  0.00  0.00    +0.072 A 
ATOM      3  C   UNL     1       2.584   1.056   8.724  0.00  0.00    +0.199 A 
ATOM      4  O   UNL     1       2.999   1.055   7.578  0.00  0.00    -0.287 OA
ATOM      5  C   UNL     1       3.136   1.931   9.788  0.00  0.00    +0.065 A 
ATOM      6  C   UNL     1       4.302   2.663   9.566  0.00  0.00    +0.030 A 
ATOM      7  C   UNL     1       4.803   3.467  10.566  0.00  0.00    +0.019 A 
ATOM      8  C   UNL     1       4.148   3.545  11.789  0.00  0.00    +0.019 A 
ATOM      9  C   UNL     1       2.995   2.829  12.019  0.00  0.00    +0.048 A 
ATOM     10  C   UNL     1       2.467   2.010  11.021  0.00  0.00    +0.140 A 
ATOM     11  O   UNL     1       1.327   1.325  11.269  0.00  0.00    -0.450 OA
ATOM     12  C   UNL     1       0.929   0.362  10.416  0.00  0.00    +0.199 A 
ATOM     13  C   UNL     1      -0.123  -0.655  10.588  0.00  0.00    +0.283 C 
ATOM     14  O   UNL     1      -0.815  -0.779  11.579  0.00  0.00    -0.267 OA
ATOM     15  N   UNL     1      -0.207  -1.429   9.485  0.00  0.00    -0.285 N 
ATOM     16 BR   UNL     1       6.384   4.463  10.276  0.00  0.00    -0.050 Br
ENDROOT
BRANCH   1  21
ATOM     17  C   UNL     1       0.083  -0.335   4.862  0.00  0.00    +0.121 A 
ATOM     18  C   UNL     1      -1.117   0.359   4.931  0.00  0.00    +0.045 A 
ATOM     19  C   UNL     1      -1.690   0.625   6.159  0.00  0.00    +0.004 A 
ATOM     20  C   UNL     1      -1.071   0.199   7.319  0.00  0.00    +0.006 A 
ATOM     21  C   UNL     1       0.125  -0.492   7.254  0.00  0.00    -0.019 A 
ATOM     22  C   UNL     1       0.700  -0.765   6.027  0.00  0.00    +0.051 A 
BRANCH  17  23
ATOM     23  O   UNL     1       0.650  -0.597   3.655  0.00  0.00    -0.492 OA
BRANCH  23  24
ATOM     24  C   UNL     1      -0.042  -0.124   2.497  0.00  0.00    +0.229 C 
BRANCH  24  25
ATOM     25  C   UNL     1       0.742  -0.511   1.242  0.00  0.00    +0.044 C 
BRANCH  25  27
ATOM     26  C   UNL     1      -0.019   1.526   0.010  0.00  0.00    +0.007 C 
ATOM     27  C   UNL     1       0.002  -0.004   0.002  0.00  0.00    -0.014 C 
ATOM     28  C   UNL     1       0.718  -0.497  -1.257  0.00  0.00    +0.007 C 
ENDBRANCH  25  27
ENDBRANCH  24  25
ENDBRANCH  23  24
ENDBRANCH  17  23
ENDBRANCH   1  21
BRANCH  15  29
ATOM     29  C   UNL     1      -1.135  -2.545   9.283  0.00  0.00    +0.090 C 
BRANCH  29  30
ATOM     30  C   UNL     1      -0.488  -3.841   9.775  0.00  0.00    -0.060 C 
BRANCH  30  31
ATOM     31  N   UNL     1      -1.418  -4.960   9.572  0.00  0.00    +0.377 N 
ATOM     32  C   UNL     1      -0.755  -6.220   9.932  0.00  0.00    -0.097 C 
ATOM     33  C   UNL     1      -2.604  -4.771  10.419  0.00  0.00    -0.097 C 
ATOM     34  H   UNL     1      -1.699  -4.993   8.603  0.00  0.00    -0.083 HD
ENDBRANCH  30  31
ENDBRANCH  29  30
ENDBRANCH  15  29
TORSDOF 8
