REMARK  Name = ZINC15972494
REMARK  6 active torsions:
REMARK  status: ('A' for Active; 'I' for Inactive)
REMARK    1  A    between atoms: C_1  and  C_2
REMARK    2  A    between atoms: C_2  and  C_3
REMARK    3  A    between atoms: C_2  and  C_4
REMARK    4  A    between atoms: C_4  and  C_5
REMARK    5  A    between atoms: N_13  and  C_16
REMARK    6  A    between atoms: C_16  and  C_17
REMARK                            x       y       z     vdW  Elec       q    Type
REMARK                         _______ _______ _______ _____ _____    ______ ____
ROOT
ATOM      1  C   UNL     1      -1.416  -2.058  -0.121  0.00  0.00    -0.057 C 
ATOM      2  C   UNL     1      -2.849  -2.622  -0.025  0.00  0.00    +0.073 C 
ATOM      3  C   UNL     1      -2.888  -3.791  -1.049  0.00  0.00    +0.088 C 
ATOM      4  C   UNL     1      -3.888  -3.316  -2.080  0.00  0.00    +0.225 C 
ATOM      5  O   UNL     1      -4.227  -3.938  -3.063  0.00  0.00    -0.275 OA
ATOM      6  N   UNL     1      -4.339  -2.104  -1.737  0.00  0.00    -0.239 N 
ATOM      7  C   UNL     1      -3.823  -1.612  -0.588  0.00  0.00    +0.224 C 
ATOM      8  O   UNL     1      -4.089  -0.541  -0.086  0.00  0.00    -0.275 OA
ATOM      9  C   UNL     1      -1.479  -3.820  -1.654  0.00  0.00    +0.050 C 
ATOM     10  N   UNL     1      -0.937  -2.453  -1.473  0.00  0.00    +0.394 N 
ATOM     11  C   UNL     1      -1.511  -4.200  -3.107  0.00  0.00    -0.026 A 
ATOM     12  C   UNL     1      -2.115  -3.652  -4.217  0.00  0.00    +0.004 A 
ATOM     13  C   UNL     1      -1.957  -4.247  -5.456  0.00  0.00    +0.002 A 
ATOM     14  C   UNL     1      -1.192  -5.393  -5.577  0.00  0.00    +0.022 A 
ATOM     15  C   UNL     1      -0.585  -5.945  -4.468  0.00  0.00    +0.062 A 
ATOM     16  C   UNL     1      -0.738  -5.351  -3.216  0.00  0.00    +0.054 A 
ATOM     17  N   UNL     1      -0.231  -5.714  -1.966  0.00  0.00    -0.285 N 
ATOM     18  C   UNL     1      -0.620  -4.864  -0.995  0.00  0.00    +0.211 C 
ATOM     19  O   UNL     1      -0.333  -4.929   0.182  0.00  0.00    -0.277 OA
ATOM     20 CL   UNL     1       0.373  -7.384  -4.632  0.00  0.00    -0.082 Cl
ATOM     21  H   UNL     1      -1.300  -1.824  -2.173  0.00  0.00    -0.083 HD
ATOM     22  H   UNL     1       0.334  -6.487  -1.814  0.00  0.00    +0.155 HD
ATOM     23  H   UNL     1       0.071  -2.469  -1.499  0.00  0.00    -0.083 HD
ENDROOT
BRANCH   1  24
ATOM     24  C   UNL     1      -1.433  -0.534   0.013  0.00  0.00    -0.012 C 
BRANCH  24  26
ATOM     25  C   UNL     1      -0.019   1.526   0.010  0.00  0.00    +0.007 C 
ATOM     26  C   UNL     1       0.002  -0.004   0.002  0.00  0.00    -0.019 C 
ATOM     27  C   UNL     1       0.742  -0.511   1.242  0.00  0.00    +0.007 C 
ENDBRANCH  24  26
ENDBRANCH   1  24
BRANCH   6  28
ATOM     28  C   UNL     1      -5.320  -1.368  -2.539  0.00  0.00    +0.148 C 
BRANCH  28  29
ATOM     29  C   UNL     1      -6.732  -1.722  -2.068  0.00  0.00    +0.136 C 
ATOM     30  C   UNL     1      -7.774  -1.046  -2.984  0.00  0.00    +0.035 C 
ATOM     31  C   UNL     1      -8.868  -0.609  -1.972  0.00  0.00    +0.031 C 
ATOM     32  C   UNL     1      -8.002  -0.264  -0.734  0.00  0.00    +0.160 C 
ATOM     33  O   UNL     1      -6.938  -1.232  -0.738  0.00  0.00    -0.375 OA
ENDBRANCH  28  29
ENDBRANCH   6  28
TORSDOF 4
