REMARK  Name = ZINC21255352
REMARK  12 active torsions:
REMARK  status: ('A' for Active; 'I' for Inactive)
REMARK    1  A    between atoms: C_1  and  C_2
REMARK    2  A    between atoms: C_2  and  C_3
REMARK    3  A    between atoms: C_3  and  O_4
REMARK    4  A    between atoms: O_4  and  C_5
REMARK    5  A    between atoms: C_8  and  C_11
REMARK    6  A    between atoms: C_16  and  C_26
REMARK    7  A    between atoms: C_29  and  O_36
REMARK    8  A    between atoms: C_30  and  O_34
REMARK    9  A    between atoms: C_31  and  O_32
REMARK   10  A    between atoms: O_32  and  C_33
REMARK   11  A    between atoms: O_34  and  C_35
REMARK   12  A    between atoms: O_36  and  C_37
REMARK                            x       y       z     vdW  Elec       q    Type
REMARK                         _______ _______ _______ _____ _____    ______ ____
ROOT
ATOM      1  C   UNL     1      -1.670   1.956   1.705  0.00  0.00    +0.032 C 
ATOM      2  C   UNL     1      -3.115   1.538   1.418  0.00  0.00    +0.059 C 
ATOM      3  C   UNL     1      -3.523   1.997   0.028  0.00  0.00    +0.017 C 
ATOM      4  C   UNL     1      -2.617   2.058  -0.963  0.00  0.00    +0.037 C 
ATOM      5  C   UNL     1      -2.887   2.490  -2.384  0.00  0.00    +0.140 C 
ATOM      6  N   UNL     1      -4.290   2.605  -2.721  0.00  0.00    -0.331 N 
ATOM      7  C   UNL     1      -5.101   3.556  -2.104  0.00  0.00    +0.049 A 
ATOM      8  C   UNL     1      -5.620   4.630  -2.809  0.00  0.00    +0.025 A 
ATOM      9  C   UNL     1      -6.327   5.609  -2.132  0.00  0.00    +0.002 A 
ATOM     10  C   UNL     1      -6.514   5.519  -0.765  0.00  0.00    +0.002 A 
ATOM     11  C   UNL     1      -6.015   4.435  -0.061  0.00  0.00    +0.025 A 
ATOM     12  C   UNL     1      -5.324   3.446  -0.740  0.00  0.00    +0.052 A 
ATOM     13  N   UNL     1      -4.838   2.310  -0.105  0.00  0.00    -0.316 N 
ATOM     14  C   UNL     1      -1.268   1.713  -0.715  0.00  0.00    +0.163 C 
ATOM     15  O   UNL     1      -0.474   1.753  -1.635  0.00  0.00    -0.292 OA
ATOM     16  C   UNL     1      -0.781   1.300   0.642  0.00  0.00    +0.088 C 
ATOM     17  H   UNL     1      -4.731   1.937  -3.475  0.00  0.00    +0.147 HD
ATOM     18  H   UNL     1      -5.607   1.639   0.305  0.00  0.00    +0.152 HD
ENDROOT
BRANCH   1  22
ATOM     19  C   UNL     1      -0.503   0.624   5.594  0.00  0.00    +0.121 A 
ATOM     20  C   UNL     1      -0.453   1.974   5.278  0.00  0.00    +0.046 A 
ATOM     21  C   UNL     1      -0.830   2.402   4.020  0.00  0.00    +0.007 A 
ATOM     22  C   UNL     1      -1.258   1.486   3.076  0.00  0.00    -0.043 A 
ATOM     23  C   UNL     1      -1.315   0.141   3.390  0.00  0.00    +0.007 A 
ATOM     24  C   UNL     1      -0.933  -0.293   4.645  0.00  0.00    +0.046 A 
BRANCH  19  25
ATOM     25  O   UNL     1      -0.131   0.200   6.830  0.00  0.00    -0.492 OA
BRANCH  25  26
ATOM     26  C   UNL     1      -0.209  -1.204   7.085  0.00  0.00    +0.229 C 
BRANCH  26  28
ATOM     27  C   UNL     1       0.163  -2.991   8.791  0.00  0.00    +0.007 C 
ATOM     28  C   UNL     1       0.246  -1.488   8.518  0.00  0.00    +0.038 C 
ENDBRANCH  26  28
ENDBRANCH  25  26
ENDBRANCH  19  25
ENDBRANCH   1  22
BRANCH   5  29
ATOM     29  C   UNL     1      -2.229   3.827  -2.610  0.00  0.00    +0.023 A 
ATOM     30  C   UNL     1      -1.846   4.599  -1.530  0.00  0.00    +0.013 A 
ATOM     31  C   UNL     1      -1.238   5.824  -1.732  0.00  0.00    +0.050 A 
ATOM     32  C   UNL     1      -1.021   6.288  -3.020  0.00  0.00    +0.165 A 
ATOM     33  C   UNL     1      -1.410   5.517  -4.109  0.00  0.00    +0.204 A 
ATOM     34  C   UNL     1      -2.016   4.284  -3.902  0.00  0.00    +0.170 A 
BRANCH  34  35
ATOM     35  O   UNL     1      -2.399   3.526  -4.964  0.00  0.00    -0.491 OA
ATOM     36  C   UNL     1      -1.405   2.684  -5.552  0.00  0.00    +0.277 C 
ENDBRANCH  34  35
BRANCH  33  37
ATOM     37  O   UNL     1      -1.198   5.969  -5.375  0.00  0.00    -0.488 OA
ATOM     38  C   UNL     1      -2.232   6.762  -5.962  0.00  0.00    +0.277 C 
ENDBRANCH  33  37
BRANCH  32  39
ATOM     39  O   UNL     1      -0.427   7.495  -3.218  0.00  0.00    -0.491 OA
ATOM     40  C   UNL     1      -0.053   8.233  -2.053  0.00  0.00    +0.277 C 
ENDBRANCH  32  39
ENDBRANCH   5  29
TORSDOF 8
