REMARK  Name = ZINC36653785
REMARK  9 active torsions:
REMARK  status: ('A' for Active; 'I' for Inactive)
REMARK    1  A    between atoms: C_1  and  N_2
REMARK    2  A    between atoms: N_2  and  C_3
REMARK    3  A    between atoms: N_2  and  C_4
REMARK    4  A    between atoms: C_7  and  C_10
REMARK    5  A    between atoms: C_10  and  C_12
REMARK    6  A    between atoms: C_10  and  N_25
REMARK    7  A    between atoms: C_12  and  N_13
REMARK    8  A    between atoms: C_14  and  C_16
REMARK    9  A    between atoms: C_21  and  N_22
REMARK                            x       y       z     vdW  Elec       q    Type
REMARK                         _______ _______ _______ _____ _____    ______ ____
ROOT
ATOM      1  C   UNL     1      -6.183  -2.820  -1.468  0.00  0.00    +0.104 C 
ENDROOT
BRANCH   1   2
ATOM      2  N   UNL     1      -7.385  -2.294  -0.806  0.00  0.00    -0.289 NA
ATOM      3  C   UNL     1      -7.037  -1.588   0.437  0.00  0.00    +0.090 C 
ATOM      4  C   UNL     1      -8.244  -0.763   0.881  0.00  0.00    +0.051 C 
ATOM      5  C   UNL     1      -9.479  -1.626   0.898  0.00  0.00    -0.042 A 
ATOM      6  C   UNL     1     -10.589  -1.180   1.600  0.00  0.00    +0.004 A 
ATOM      7  C   UNL     1     -11.742  -1.938   1.638  0.00  0.00    +0.000 A 
ATOM      8  C   UNL     1     -11.791  -3.149   0.971  0.00  0.00    +0.000 A 
ATOM      9  C   UNL     1     -10.687  -3.594   0.273  0.00  0.00    +0.005 A 
ATOM     10  C   UNL     1      -9.526  -2.835   0.237  0.00  0.00    -0.030 A 
ATOM     11  C   UNL     1      -8.344  -3.368  -0.529  0.00  0.00    +0.120 C 
ENDBRANCH   1   2
BRANCH   1  15
ATOM     12  C   UNL     1      -3.736   0.433  -2.771  0.00  0.00    +0.029 A 
ATOM     13  C   UNL     1      -3.152  -0.701  -2.221  0.00  0.00    +0.023 A 
ATOM     14  C   UNL     1      -3.946  -1.750  -1.801  0.00  0.00    +0.007 A 
ATOM     15  C   UNL     1      -5.320  -1.673  -1.927  0.00  0.00    -0.029 A 
ATOM     16  C   UNL     1      -5.905  -0.545  -2.474  0.00  0.00    +0.007 A 
ATOM     17  C   UNL     1      -5.118   0.510  -2.891  0.00  0.00    +0.023 A 
BRANCH  12  19
ATOM     18  C   UNL     1      -3.555   2.694  -3.771  0.00  0.00    +0.129 C 
ATOM     19  N   UNL     1      -2.937   1.496  -3.197  0.00  0.00    -0.336 N 
ATOM     20  C   UNL     1      -1.479   1.414  -3.069  0.00  0.00    +0.129 C 
ENDBRANCH  12  19
ENDBRANCH   1  15
BRANCH   1  21
ATOM     21  C   UNL     1      -6.594  -3.664  -2.676  0.00  0.00    +0.128 C 
BRANCH  21  22
ATOM     22  N   UNL     1      -5.399  -4.233  -3.303  0.00  0.00    -0.309 N 
ATOM     23  C   UNL     1      -5.507  -4.931  -4.451  0.00  0.00    +0.246 C 
ATOM     24  O   UNL     1      -6.597  -5.087  -4.966  0.00  0.00    -0.270 OA
ATOM     25  H   UNL     1      -4.529  -4.108  -2.892  0.00  0.00    +0.149 HD
BRANCH  23  26
ATOM     26  C   UNL     1      -4.301  -5.505  -5.084  0.00  0.00    +0.067 A 
ATOM     27  C   UNL     1      -3.193  -4.697  -5.343  0.00  0.00    +0.015 A 
ATOM     28  C   UNL     1      -2.070  -5.239  -5.934  0.00  0.00    +0.001 A 
ATOM     29  C   UNL     1      -2.041  -6.581  -6.269  0.00  0.00    +0.002 A 
ATOM     30  C   UNL     1      -3.136  -7.388  -6.015  0.00  0.00    +0.033 A 
ATOM     31  C   UNL     1      -4.263  -6.859  -5.420  0.00  0.00    +0.138 A 
BRANCH  31  32
ATOM     32  N   UNL     1      -5.431  -7.725  -5.143  0.00  0.00    +0.057 N 
ATOM     33  O   UNL     1      -5.444  -8.867  -5.539  0.00  0.00    -0.126 OA
ATOM     34  O   UNL     1      -6.372  -7.290  -4.521  0.00  0.00    -0.126 OA
ENDBRANCH  31  32
ENDBRANCH  23  26
ENDBRANCH  21  22
ENDBRANCH   1  21
TORSDOF 7
