REMARK  Name = ZINC08748826
REMARK  11 active torsions:
REMARK  status: ('A' for Active; 'I' for Inactive)
REMARK    1  A    between atoms: C_1  and  C_2
REMARK    2  A    between atoms: C_2  and  O_3
REMARK    3  A    between atoms: O_3  and  C_4
REMARK    4  A    between atoms: C_4  and  C_6
REMARK    5  A    between atoms: C_7  and  C_15
REMARK    6  A    between atoms: C_12  and  C_14
REMARK    7  A    between atoms: C_15  and  S_16
REMARK    8  A    between atoms: S_16  and  C_17
REMARK    9  A    between atoms: C_20  and  C_29
REMARK   10  A    between atoms: N_21  and  C_22
REMARK   11  A    between atoms: C_22  and  C_23
REMARK                            x       y       z     vdW  Elec       q    Type
REMARK                         _______ _______ _______ _____ _____    ______ ____
ROOT
ATOM      1  C   UNL     1       5.052  -0.128   1.363  0.00  0.00    +0.192 A 
ATOM      2  N   UNL     1       5.681   0.117   0.235  0.00  0.00    -0.122 NA
ATOM      3  N   UNL     1       6.945   0.209   0.446  0.00  0.00    -0.128 NA
ATOM      4  C   UNL     1       7.202   0.019   1.719  0.00  0.00    +0.165 A 
ATOM      5  N   UNL     1       5.998  -0.202   2.345  0.00  0.00    -0.300 N 
ENDROOT
BRANCH   4   6
ATOM      6  C   UNL     1       8.535   0.040   2.359  0.00  0.00    +0.019 A 
ATOM      7  C   UNL     1       9.620   0.621   1.700  0.00  0.00    +0.014 A 
ATOM      8  C   UNL     1      10.859   0.643   2.304  0.00  0.00    +0.039 A 
ATOM      9  C   UNL     1      11.031   0.080   3.558  0.00  0.00    +0.123 A 
ATOM     10  C   UNL     1       9.959  -0.503   4.215  0.00  0.00    +0.039 A 
ATOM     11  C   UNL     1       8.714  -0.525   3.623  0.00  0.00    +0.014 A 
ATOM     12  F   UNL     1      12.249   0.100   4.144  0.00  0.00    -0.205 F 
ENDBRANCH   4   6
BRANCH   1  13
ATOM     13  S   UNL     1       3.314  -0.330   1.567  0.00  0.00    -0.080 S 
BRANCH  13  14
ATOM     14  C   UNL     1       2.767  -0.094  -0.142  0.00  0.00    +0.128 C 
BRANCH  14  16
ATOM     15  C   UNL     1       0.509   0.880  -0.368  0.00  0.00    +0.074 C 
ATOM     16  C   UNL     1       1.267  -0.227  -0.212  0.00  0.00    +0.034 C 
ATOM     17  N   UNL     1       0.697  -1.464  -0.116  0.00  0.00    -0.272 N 
ATOM     18  C   UNL     1      -0.624  -1.679  -0.173  0.00  0.00    +0.304 C 
ATOM     19  O   UNL     1      -1.038  -2.818  -0.083  0.00  0.00    -0.253 OA
ATOM     20  N   UNL     1      -1.509  -0.674  -0.321  0.00  0.00    -0.292 N 
ATOM     21  C   UNL     1      -0.994   0.702  -0.434  0.00  0.00    +0.110 C 
ATOM     22  C   UNL     1      -1.480   1.279  -1.765  0.00  0.00    +0.033 C 
ATOM     23  H   UNL     1       1.281  -2.230  -0.004  0.00  0.00    +0.156 HD
ATOM     24  H   UNL     1      -2.461  -0.852  -0.356  0.00  0.00    +0.151 HD
BRANCH  15  25
ATOM     25  C   UNL     1       1.098   2.162  -0.467  0.00  0.00    +0.338 C 
ATOM     26  O   UNL     1       1.183   2.871   0.518  0.00  0.00    -0.245 OA
BRANCH  25  27
ATOM     27  O   UNL     1       1.567   2.600  -1.655  0.00  0.00    -0.462 OA
BRANCH  27  29
ATOM     28  C   UNL     1       2.619   4.224  -3.102  0.00  0.00    +0.048 C 
ATOM     29  C   UNL     1       2.149   3.904  -1.682  0.00  0.00    +0.229 C 
ENDBRANCH  27  29
ENDBRANCH  25  27
ENDBRANCH  15  25
ENDBRANCH  14  16
ENDBRANCH  13  14
ENDBRANCH   1  13
BRANCH   5  30
ATOM     30  C   UNL     1       5.776  -0.464   3.770  0.00  0.00    +0.157 C 
BRANCH  30  31
ATOM     31  C   UNL     1       5.658  -1.972   3.999  0.00  0.00    +0.138 C 
ATOM     32  C   UNL     1       5.430  -2.258   5.499  0.00  0.00    +0.035 C 
ATOM     33  C   UNL     1       6.297  -3.528   5.726  0.00  0.00    +0.031 C 
ATOM     34  C   UNL     1       7.472  -3.262   4.752  0.00  0.00    +0.160 C 
ATOM     35  O   UNL     1       6.876  -2.619   3.614  0.00  0.00    -0.375 OA
ENDBRANCH  30  31
ENDBRANCH   5  30
TORSDOF 9
