REMARK  Name = ZINC17303681
REMARK  6 active torsions:
REMARK  status: ('A' for Active; 'I' for Inactive)
REMARK    1  A    between atoms: C_1  and  C_2
REMARK    2  A    between atoms: C_5  and  O_8
REMARK    3  A    between atoms: O_8  and  C_9
REMARK    4  A    between atoms: C_9  and  C_11
REMARK    5  A    between atoms: C_9  and  C_12
REMARK    6  A    between atoms: C_12  and  N_14
REMARK                            x       y       z     vdW  Elec       q    Type
REMARK                         _______ _______ _______ _____ _____    ______ ____
ROOT
ATOM      1  C   UNL     1      -0.394  -6.171   1.153  0.00  0.00    +0.280 C 
ATOM      2  O   UNL     1      -0.781  -6.598   0.082  0.00  0.00    -0.270 OA
ENDROOT
BRANCH   1   3
ATOM      3  N   UNL     1      -0.494  -6.924   2.244  0.00  0.00    -0.144 NA
ATOM      4  C   UNL     1      -0.925  -8.179   2.148  0.00  0.00    +0.199 A 
ATOM      5  N   UNL     1      -1.390  -8.768   1.016  0.00  0.00    -0.326 N 
ATOM      6  H   UNL     1      -1.464  -8.347   0.145  0.00  0.00    +0.169 HD
ATOM      7  C   UNL     1      -1.742 -10.079   1.319  0.00  0.00    +0.065 A 
ATOM      8  C   UNL     1      -2.264 -11.119   0.562  0.00  0.00    +0.028 A 
ATOM      9  C   UNL     1      -2.517 -12.341   1.153  0.00  0.00    +0.002 A 
ATOM     10  C   UNL     1      -2.254 -12.533   2.499  0.00  0.00    +0.002 A 
ATOM     11  C   UNL     1      -1.735 -11.505   3.261  0.00  0.00    +0.028 A 
ATOM     12  C   UNL     1      -1.477 -10.273   2.676  0.00  0.00    +0.065 A 
ATOM     13  N   UNL     1      -0.963  -9.078   3.167  0.00  0.00    -0.326 N 
ATOM     14  H   UNL     1      -0.683  -8.913   4.081  0.00  0.00    +0.169 HD
ENDBRANCH   1   3
BRANCH   1  15
ATOM     15  C   UNL     1       0.199  -4.789   1.243  0.00  0.00    +0.258 C 
ATOM     16  C   UNL     1       1.673  -4.891   1.640  0.00  0.00    +0.062 C 
BRANCH  15  17
ATOM     17  O   UNL     1       0.092  -4.141  -0.026  0.00  0.00    -0.480 OA
BRANCH  17  22
ATOM     18  C   UNL     1       0.198   1.491  -0.038  0.00  0.00    +0.044 C 
ATOM     19  C   UNL     1       0.170  -0.016  -0.035  0.00  0.00    -0.050 A 
ATOM     20  C   UNL     1       0.193  -0.704   1.164  0.00  0.00    +0.007 A 
ATOM     21  C   UNL     1       0.167  -2.085   1.170  0.00  0.00    +0.046 A 
ATOM     22  C   UNL     1       0.117  -2.782  -0.029  0.00  0.00    +0.122 A 
ATOM     23  C   UNL     1       0.093  -2.089  -1.231  0.00  0.00    +0.046 A 
ATOM     24  C   UNL     1       0.114  -0.708  -1.231  0.00  0.00    +0.007 A 
ENDBRANCH  17  22
ENDBRANCH  15  17
ENDBRANCH   1  15
TORSDOF 4
