REMARK  Name = ZINC27019564
REMARK  6 active torsions:
REMARK  status: ('A' for Active; 'I' for Inactive)
REMARK    1  A    between atoms: C_1  and  C_2
REMARK    2  A    between atoms: C_5  and  C_35
REMARK    3  A    between atoms: C_6  and  C_8
REMARK    4  A    between atoms: C_9  and  C_19
REMARK    5  A    between atoms: N_11  and  C_13
REMARK    6  A    between atoms: C_29  and  C_32
REMARK                            x       y       z     vdW  Elec       q    Type
REMARK                         _______ _______ _______ _____ _____    ______ ____
ROOT
ATOM      1  C   UNL     1       3.611  -3.724   0.058  0.00  0.00    +0.101 A 
ATOM      2  C   UNL     1       3.085  -2.377  -0.197  0.00  0.00    +0.022 A 
ATOM      3  C   UNL     1       4.179  -1.533  -0.236  0.00  0.00    +0.123 A 
ATOM      4  N   UNL     1       5.281  -2.278  -0.031  0.00  0.00    -0.239 N 
ATOM      5  N   UNL     1       4.918  -3.616   0.143  0.00  0.00    -0.166 NA
ENDROOT
BRANCH   2   6
ATOM      6  C   UNL     1       1.678  -2.002  -0.371  0.00  0.00    +0.032 C 
ATOM      7  C   UNL     1       1.305  -0.700  -0.265  0.00  0.00    +0.080 C 
ATOM      8  C   UNL     1      -0.034  -0.085  -0.397  0.00  0.00    +0.276 C 
ATOM      9  O   UNL     1      -1.028  -0.752  -0.637  0.00  0.00    -0.267 OA
ATOM     10  N   UNL     1      -0.096   1.220  -0.241  0.00  0.00    -0.154 NA
ATOM     11  C   UNL     1       0.974   1.954   0.020  0.00  0.00    +0.154 C 
ATOM     12  S   UNL     1       2.293   0.751   0.074  0.00  0.00    -0.052 S 
ATOM     13  N   UNL     1       1.051   3.310   0.204  0.00  0.00    -0.311 N 
ATOM     14  C   UNL     1       2.339   3.955   0.493  0.00  0.00    +0.107 C 
ATOM     15  C   UNL     1       2.561   5.083  -0.526  0.00  0.00    +0.032 C 
ATOM     16  C   UNL     1       1.362   6.033  -0.495  0.00  0.00    +0.078 C 
ATOM     17  C   UNL     1       0.095   5.272  -0.888  0.00  0.00    +0.032 C 
ATOM     18  C   UNL     1      -0.154   4.146   0.121  0.00  0.00    +0.107 C 
BRANCH  16  19
ATOM     19  C   UNL     1       1.592   7.163  -1.466  0.00  0.00    +0.214 C 
ATOM     20  O   UNL     1       0.818   7.341  -2.383  0.00  0.00    -0.276 OA
ATOM     21  N   UNL     1       2.657   7.975  -1.316  0.00  0.00    -0.329 N 
ATOM     22  H   UNL     1       2.824   8.799  -2.025  0.00  0.00    +0.145 HD
ATOM     23  H   UNL     1       3.359   7.813  -0.484  0.00  0.00    +0.145 HD
ENDBRANCH  16  19
ENDBRANCH   2   6
BRANCH   1  29
ATOM     24  C   UNL     1      -0.260  -6.193   2.016  0.00  0.00    +0.044 C 
ATOM     25  C   UNL     1       0.958  -6.160   1.130  0.00  0.00    -0.050 A 
ATOM     26  C   UNL     1       1.339  -7.296   0.438  0.00  0.00    +0.003 A 
ATOM     27  C   UNL     1       2.457  -7.274  -0.377  0.00  0.00    +0.004 A 
ATOM     28  C   UNL     1       3.195  -6.116  -0.509  0.00  0.00    -0.041 A 
ATOM     29  C   UNL     1       2.819  -4.970   0.190  0.00  0.00    +0.006 A 
ATOM     30  C   UNL     1       1.692  -4.998   1.010  0.00  0.00    +0.013 A 
ATOM     31  C   UNL     1       4.408  -6.091  -1.402  0.00  0.00    +0.044 C 
ENDBRANCH   1  29
BRANCH   4  32
ATOM     32  C   UNL     1       6.593  -1.787   0.002  0.00  0.00    +0.065 A 
ATOM     33  C   UNL     1       6.834  -0.433  -0.191  0.00  0.00    +0.028 A 
ATOM     34  C   UNL     1       8.127   0.049  -0.151  0.00  0.00    +0.002 A 
ATOM     35  C   UNL     1       9.183  -0.817   0.068  0.00  0.00    +0.000 A 
ATOM     36  C   UNL     1       8.947  -2.167   0.254  0.00  0.00    +0.002 A 
ATOM     37  C   UNL     1       7.655  -2.654   0.222  0.00  0.00    +0.028 A 
ENDBRANCH   4  32
TORSDOF 4
