REMARK  Name = ZINC12871253
REMARK  7 active torsions:
REMARK  status: ('A' for Active; 'I' for Inactive)
REMARK    1  A    between atoms: C_5  and  O_8
REMARK    2  A    between atoms: O_8  and  C_9
REMARK    3  A    between atoms: C_11  and  O_24
REMARK    4  A    between atoms: C_13  and  O_23
REMARK    5  A    between atoms: C_15  and  O_22
REMARK    6  A    between atoms: C_17  and  C_20
REMARK    7  A    between atoms: C_20  and  O_21
REMARK                            x       y       z     vdW  Elec       q    Type
REMARK                         _______ _______ _______ _____ _____    ______ ____
ROOT
ATOM      1  C   UNL     1      -1.448   3.165  -3.567  0.00  0.00    +0.035 A 
ATOM      2  C   UNL     1      -1.354   3.820  -2.334  0.00  0.00    +0.023 A 
ATOM      3  C   UNL     1      -1.594   5.202  -2.250  0.00  0.00    +0.143 A 
ATOM      4  C   UNL     1      -1.923   5.909  -3.397  0.00  0.00    +0.094 A 
ATOM      5  C   UNL     1      -2.012   5.247  -4.610  0.00  0.00    +0.146 A 
ATOM      6  C   UNL     1      -1.772   3.875  -4.688  0.00  0.00    +0.083 A 
ATOM      7 CL   UNL     1      -1.888   3.065  -6.219  0.00  0.00    -0.080 Cl
ATOM      8  O   UNL     1      -1.501   5.825  -1.056  0.00  0.00    -0.422 OA
ATOM      9  C   UNL     1      -1.183   5.152   0.058  0.00  0.00    +0.341 A 
ATOM     10  O   UNL     1      -1.112   5.757   1.112  0.00  0.00    -0.245 OA
ATOM     11  C   UNL     1      -0.925   3.759   0.048  0.00  0.00    +0.041 A 
ATOM     12  C   UNL     1      -1.007   3.077  -1.115  0.00  0.00    -0.027 A 
ATOM     13  C   UNL     1      -0.763   1.597  -1.221  0.00  0.00    +0.036 C 
ATOM     14  C   UNL     1      -0.013   1.086   0.008  0.00  0.00    +0.005 C 
ATOM     15  C   UNL     1      -0.742   1.586   1.261  0.00  0.00    +0.005 C 
ATOM     16  C   UNL     1      -0.559   3.099   1.352  0.00  0.00    +0.042 C 
ENDROOT
BRANCH   5  17
ATOM     17  O   UNL     1      -2.335   5.939  -5.733  0.00  0.00    -0.459 OA
BRANCH  17  18
ATOM     18  C   UNL     1      -2.568   7.341  -5.587  0.00  0.00    +0.339 C 
ATOM     19  C   UNL     1      -3.153   7.899  -6.886  0.00  0.00    +0.214 C 
ATOM     20  C   UNL     1      -2.137   7.713  -8.017  0.00  0.00    +0.180 C 
ATOM     21  C   UNL     1      -0.825   8.400  -7.628  0.00  0.00    +0.177 C 
ATOM     22  C   UNL     1      -0.329   7.822  -6.300  0.00  0.00    +0.179 C 
ATOM     23  O   UNL     1      -1.334   8.001  -5.299  0.00  0.00    -0.331 OA
BRANCH  21  24
ATOM     24  O   UNL     1       0.154   8.171  -8.644  0.00  0.00    -0.386 OA
ATOM     25  H   UNL     1      -0.095   8.512  -9.514  0.00  0.00    +0.210 HD
ENDBRANCH  21  24
BRANCH  20  26
ATOM     26  O   UNL     1      -2.645   8.297  -9.218  0.00  0.00    -0.386 OA
ATOM     27  H   UNL     1      -3.477   7.909  -9.523  0.00  0.00    +0.210 HD
ENDBRANCH  20  26
BRANCH  19  28
ATOM     28  O   UNL     1      -3.436   9.290  -6.723  0.00  0.00    -0.383 OA
ATOM     29  H   UNL     1      -4.070   9.483  -6.019  0.00  0.00    +0.210 HD
ENDBRANCH  19  28
BRANCH  22  30
ATOM     30  C   UNL     1       0.950   8.546  -5.874  0.00  0.00    +0.190 C 
BRANCH  30  31
ATOM     31  O   UNL     1       1.476   7.931  -4.696  0.00  0.00    -0.392 OA
ATOM     32  H   UNL     1       2.289   8.339  -4.369  0.00  0.00    +0.210 HD
ENDBRANCH  30  31
ENDBRANCH  22  30
ENDBRANCH  17  18
ENDBRANCH   5  17
TORSDOF 7
