REMARK  Name = ZINC34849575
REMARK  5 active torsions:
REMARK  status: ('A' for Active; 'I' for Inactive)
REMARK    1  A    between atoms: C_1  and  C_2
REMARK    2  A    between atoms: C_3  and  C_8
REMARK    3  A    between atoms: C_8  and  C_10
REMARK    4  A    between atoms: C_8  and  C_17
REMARK    5  A    between atoms: C_18  and  C_24
REMARK                            x       y       z     vdW  Elec       q    Type
REMARK                         _______ _______ _______ _____ _____    ______ ____
ROOT
ATOM      1  C   UNL     1       0.031  -0.333   2.525  0.00  0.00    +0.093 C 
ENDROOT
BRANCH   1   4
ATOM      2  C   UNL     1       0.299   1.998   0.477  0.00  0.00    +0.065 C 
ATOM      3  C   UNL     1       0.373   0.527   0.155  0.00  0.00    +0.039 A 
ATOM      4  C   UNL     1       0.257  -0.481   1.042  0.00  0.00    +0.050 A 
ATOM      5  C   UNL     1       0.384  -1.702   0.339  0.00  0.00    +0.269 A 
ATOM      6  O   UNL     1       0.330  -2.819   0.821  0.00  0.00    -0.266 OA
ATOM      7  N   UNL     1       0.575  -1.405  -0.963  0.00  0.00    -0.266 N 
ATOM      8  N   UNL     1       0.564  -0.009  -1.087  0.00  0.00    -0.301 N 
ATOM      9  H   UNL     1       0.675   0.490  -1.911  0.00  0.00    +0.186 HD
ATOM     10  H   UNL     1       0.695  -2.043  -1.684  0.00  0.00    +0.190 HD
ENDBRANCH   1   4
BRANCH   1  11
ATOM     11  C   UNL     1       1.086  -1.107   3.273  0.00  0.00    +0.053 A 
ATOM     12  C   UNL     1       0.971  -1.613   4.572  0.00  0.00    +0.068 A 
ATOM     13  N   UNL     1       2.087  -2.224   4.875  0.00  0.00    -0.176 NA
ATOM     14  N   UNL     1       2.954  -2.128   3.779  0.00  0.00    -0.243 N 
ATOM     15  H   UNL     1       3.851  -2.493   3.727  0.00  0.00    +0.192 HD
ATOM     16  C   UNL     1       2.317  -1.442   2.804  0.00  0.00    +0.271 A 
ATOM     17  O   UNL     1       2.817  -1.141   1.578  0.00  0.00    -0.266 OA
ATOM     18  C   UNL     1      -0.233  -1.477   5.468  0.00  0.00    +0.068 C 
ENDBRANCH   1  11
BRANCH   1  19
ATOM     19  C   UNL     1      -1.332  -0.869   2.881  0.00  0.00    -0.035 A 
ATOM     20  C   UNL     1      -1.576  -2.228   2.826  0.00  0.00    +0.006 A 
ATOM     21  C   UNL     1      -2.826  -2.719   3.153  0.00  0.00    +0.020 A 
ATOM     22  C   UNL     1      -3.833  -1.850   3.535  0.00  0.00    +0.041 A 
ATOM     23  C   UNL     1      -3.587  -0.490   3.590  0.00  0.00    +0.020 A 
ATOM     24  C   UNL     1      -2.335  -0.000   3.268  0.00  0.00    +0.006 A 
ATOM     25 CL   UNL     1      -5.403  -2.467   3.945  0.00  0.00    -0.084 Cl
ENDBRANCH   1  19
TORSDOF 3
