REMARK  Name = ZINC24137341
REMARK  10 active torsions:
REMARK  status: ('A' for Active; 'I' for Inactive)
REMARK    1  A    between atoms: C_1  and  C_2
REMARK    2  A    between atoms: C_2  and  C_3
REMARK    3  A    between atoms: C_3  and  C_28
REMARK    4  A    between atoms: N_6  and  N_10
REMARK    5  A    between atoms: C_11  and  C_13
REMARK    6  A    between atoms: C_13  and  S_14
REMARK    7  A    between atoms: S_14  and  C_15
REMARK    8  A    between atoms: C_18  and  C_21
REMARK    9  A    between atoms: N_19  and  C_20
REMARK   10  A    between atoms: C_25  and  C_27
REMARK                            x       y       z     vdW  Elec       q    Type
REMARK                         _______ _______ _______ _____ _____    ______ ____
ROOT
ATOM      1  N   UNL     1      -3.275   2.582  -3.477  0.00  0.00    -0.223 N 
ATOM      2  C   UNL     1      -3.327   1.372  -4.068  0.00  0.00    +0.240 C 
ATOM      3  O   UNL     1      -2.562   0.496  -3.725  0.00  0.00    -0.273 OA
ATOM      4  H   UNL     1      -3.968   3.377  -3.788  0.00  0.00    +0.174 HD
ENDROOT
BRANCH   1   8
ATOM      5  C   UNL     1      -0.519   3.553  -1.287  0.00  0.00    +0.139 C 
ATOM      6  C   UNL     1      -1.218   3.560  -2.632  0.00  0.00    +0.268 C 
ATOM      7  O   UNL     1      -0.848   4.111  -3.647  0.00  0.00    -0.271 OA
ATOM      8  N   UNL     1      -2.337   2.828  -2.466  0.00  0.00    -0.137 N 
ATOM      9  C   UNL     1      -2.440   2.363  -1.215  0.00  0.00    +0.327 C 
ATOM     10  O   UNL     1      -3.364   1.677  -0.824  0.00  0.00    -0.251 OA
ATOM     11  N   UNL     1      -1.408   2.740  -0.439  0.00  0.00    -0.280 N 
ATOM     12  H   UNL     1      -1.149   2.559   0.614  0.00  0.00    +0.152 HD
BRANCH   5  13
ATOM     13  C   UNL     1       0.840   2.910  -1.399  0.00  0.00    -0.015 A 
ATOM     14  C   UNL     1       1.948   3.683  -1.688  0.00  0.00    +0.006 A 
ATOM     15  C   UNL     1       3.193   3.092  -1.798  0.00  0.00    +0.000 A 
ATOM     16  C   UNL     1       3.330   1.729  -1.618  0.00  0.00    +0.000 A 
ATOM     17  C   UNL     1       2.221   0.956  -1.328  0.00  0.00    +0.000 A 
ATOM     18  C   UNL     1       0.976   1.546  -1.220  0.00  0.00    +0.006 A 
ENDBRANCH   5  13
BRANCH   5  20
ATOM     19  C   UNL     1      -1.792   5.559  -0.515  0.00  0.00    +0.007 C 
ATOM     20  C   UNL     1      -0.396   4.975  -0.736  0.00  0.00    +0.037 C 
ENDBRANCH   5  20
ENDBRANCH   1   8
BRANCH   2  21
ATOM     21  C   UNL     1      -4.336   1.108  -5.156  0.00  0.00    +0.174 C 
BRANCH  21  22
ATOM     22  S   UNL     1      -4.157  -0.594  -5.745  0.00  0.00    -0.077 S 
BRANCH  22  23
ATOM     23  C   UNL     1      -5.420  -0.627  -6.973  0.00  0.00    +0.192 A 
ATOM     24  N   UNL     1      -6.223   0.363  -7.293  0.00  0.00    -0.122 NA
ATOM     25  N   UNL     1      -7.021  -0.002  -8.231  0.00  0.00    -0.128 NA
ATOM     26  C   UNL     1      -6.784  -1.250  -8.562  0.00  0.00    +0.165 A 
ATOM     27  N   UNL     1      -5.751  -1.689  -7.766  0.00  0.00    -0.305 N 
ATOM     28  C   UNL     1      -5.135  -3.018  -7.768  0.00  0.00    +0.153 C 
BRANCH  26  29
ATOM     29  C   UNL     1      -7.493  -2.035  -9.594  0.00  0.00    +0.020 A 
ATOM     30  C   UNL     1      -7.454  -3.430  -9.563  0.00  0.00    +0.011 A 
ATOM     31  C   UNL     1      -8.118  -4.157 -10.529  0.00  0.00    +0.001 A 
ATOM     32  C   UNL     1      -8.822  -3.507 -11.527  0.00  0.00    +0.003 A 
ATOM     33  C   UNL     1      -8.864  -2.125 -11.564  0.00  0.00    -0.050 A 
ATOM     34  C   UNL     1      -8.208  -1.386 -10.601  0.00  0.00    +0.015 A 
ATOM     35  C   UNL     1      -9.633  -1.425 -12.655  0.00  0.00    +0.044 C 
ENDBRANCH  26  29
ENDBRANCH  22  23
ENDBRANCH  21  22
ENDBRANCH   2  21
TORSDOF 7
