REMARK  Name = ZINC18353558
REMARK  6 active torsions:
REMARK  status: ('A' for Active; 'I' for Inactive)
REMARK    1  A    between atoms: C_1  and  C_2
REMARK    2  A    between atoms: N_13  and  C_16
REMARK    3  A    between atoms: C_16  and  C_17
REMARK    4  A    between atoms: N_19  and  C_20
REMARK    5  A    between atoms: C_20  and  C_22
REMARK    6  A    between atoms: C_20  and  C_28
REMARK                            x       y       z     vdW  Elec       q    Type
REMARK                         _______ _______ _______ _____ _____    ______ ____
ROOT
ATOM      1  C   UNL     1      -4.650  -0.862   1.619  0.00  0.00    +0.222 C 
ENDROOT
BRANCH   1  13
ATOM      2  C   UNL     1       3.546   2.093  -1.324  0.00  0.00    +0.008 C 
ATOM      3  C   UNL     1       2.193   1.398  -1.158  0.00  0.00    -0.009 C 
ATOM      4  C   UNL     1       1.421   2.037  -0.001  0.00  0.00    +0.008 C 
ATOM      5  C   UNL     1      -0.019   1.522   0.010  0.00  0.00    +0.037 C 
ATOM      6  C   UNL     1       0.002  -0.004   0.002  0.00  0.00    -0.023 A 
ATOM      7  C   UNL     1       1.113  -0.674  -0.386  0.00  0.00    -0.004 A 
ATOM      8  S   UNL     1       0.692  -2.393  -0.240  0.00  0.00    -0.073 S 
ATOM      9  C   UNL     1      -0.965  -2.210   0.338  0.00  0.00    +0.116 A 
ATOM     10  C   UNL     1      -1.139  -0.809   0.399  0.00  0.00    +0.076 A 
ATOM     11  C   UNL     1      -2.417  -0.330   0.843  0.00  0.00    +0.263 A 
ATOM     12  O   UNL     1      -2.669   0.859   0.932  0.00  0.00    -0.267 OA
ATOM     13  N   UNL     1      -3.325  -1.284   1.159  0.00  0.00    -0.290 N 
ATOM     14  C   UNL     1      -3.065  -2.611   1.067  0.00  0.00    +0.203 A 
ATOM     15  N   UNL     1      -1.908  -3.088   0.664  0.00  0.00    -0.230 NA
ATOM     16  C   UNL     1       2.413  -0.088  -0.840  0.00  0.00    +0.046 C 
ENDBRANCH   1  13
BRANCH   1  17
ATOM     17  C   UNL     1      -5.571  -0.717   0.435  0.00  0.00    +0.234 C 
ATOM     18  O   UNL     1      -5.160  -0.944  -0.683  0.00  0.00    -0.274 OA
ATOM     19  N   UNL     1      -6.850  -0.335   0.619  0.00  0.00    -0.303 N 
ATOM     20  H   UNL     1      -7.178  -0.154   1.514  0.00  0.00    +0.150 HD
BRANCH  19  21
ATOM     21  C   UNL     1      -7.745  -0.194  -0.532  0.00  0.00    +0.140 C 
BRANCH  21  22
ATOM     22  C   UNL     1      -8.846   0.779  -0.196  0.00  0.00    -0.022 A 
ATOM     23  C   UNL     1      -9.429   0.758   1.058  0.00  0.00    +0.006 A 
ATOM     24  C   UNL     1     -10.435   1.653   1.367  0.00  0.00    +0.000 A 
ATOM     25  C   UNL     1     -10.866   2.563   0.420  0.00  0.00    +0.000 A 
ATOM     26  C   UNL     1     -10.286   2.582  -0.835  0.00  0.00    +0.000 A 
ATOM     27  C   UNL     1      -9.277   1.689  -1.143  0.00  0.00    +0.006 A 
ENDBRANCH  21  22
BRANCH  21  28
ATOM     28  C   UNL     1      -8.345  -1.535  -0.869  0.00  0.00    +0.014 A 
ATOM     29  C   UNL     1      -8.582  -2.082  -2.086  0.00  0.00    +0.013 A 
ATOM     30  C   UNL     1      -9.145  -3.343  -2.156  0.00  0.00    +0.008 A 
ATOM     31  C   UNL     1      -9.452  -3.990  -1.005  0.00  0.00    +0.045 A 
ATOM     32  S   UNL     1      -8.936  -2.811   0.232  0.00  0.00    -0.099 S 
ENDBRANCH  21  28
ENDBRANCH  19  21
ENDBRANCH   1  17
TORSDOF 5
