REMARK  Name = ZINC10696625
REMARK  7 active torsions:
REMARK  status: ('A' for Active; 'I' for Inactive)
REMARK    1  A    between atoms: C_1  and  C_2
REMARK    2  A    between atoms: C_10  and  C_12
REMARK    3  A    between atoms: C_12  and  O_13
REMARK    4  A    between atoms: O_13  and  C_14
REMARK    5  A    between atoms: C_14  and  C_16
REMARK    6  A    between atoms: C_16  and  N_17
REMARK    7  A    between atoms: C_25  and  C_27
REMARK                            x       y       z     vdW  Elec       q    Type
REMARK                         _______ _______ _______ _____ _____    ______ ____
ROOT
ATOM      1  C   UNL     1      -0.018   1.503   0.010  0.00  0.00    +0.326 C 
ATOM      2  O   UNL     1      -1.073   2.093   0.018  0.00  0.00    -0.249 OA
ENDROOT
BRANCH   1   3
ATOM      3  O   UNL     1       1.135   2.190   0.003  0.00  0.00    -0.454 OA
BRANCH   3   4
ATOM      4  C   UNL     1       1.039   3.639   0.012  0.00  0.00    +0.328 C 
BRANCH   4  14
ATOM      5  C   UNL     1       5.510   9.530  -0.001  0.00  0.00    +0.047 C 
ATOM      6  C   UNL     1       5.298   8.038  -0.007  0.00  0.00    -0.009 A 
ATOM      7  C   UNL     1       6.379   7.166  -0.022  0.00  0.00    +0.063 A 
ATOM      8  C   UNL     1       6.149   5.804  -0.026  0.00  0.00    +0.133 A 
ATOM      9  N   UNL     1       4.920   5.325  -0.016  0.00  0.00    -0.237 NA
ATOM     10  C   UNL     1       3.864   6.122  -0.002  0.00  0.00    +0.144 A 
ATOM     11  C   UNL     1       4.020   7.505  -0.002  0.00  0.00    +0.085 A 
ATOM     12 CL   UNL     1       2.631   8.547   0.010  0.00  0.00    -0.080 Cl
ATOM     13  N   UNL     1       2.582   5.572   0.007  0.00  0.00    -0.266 N 
ATOM     14  C   UNL     1       2.424   4.233   0.002  0.00  0.00    +0.256 C 
ATOM     15  O   UNL     1       3.395   3.508  -0.011  0.00  0.00    -0.272 OA
ATOM     16 CL   UNL     1       8.002   7.782  -0.035  0.00  0.00    -0.082 Cl
ATOM     17  H   UNL     1       1.805   6.152   0.018  0.00  0.00    +0.156 HD
ENDBRANCH   4  14
ENDBRANCH   3   4
ENDBRANCH   1   3
BRANCH   1  18
ATOM     18  C   UNL     1       0.002  -0.004   0.002  0.00  0.00    +0.238 C 
BRANCH  18  19
ATOM     19  N   UNL     1      -1.372  -0.511   0.012  0.00  0.00    -0.213 N 
ATOM     20  C   UNL     1      -2.094  -0.768  -1.098  0.00  0.00    +0.247 C 
ATOM     21  O   UNL     1      -1.743  -0.628  -2.250  0.00  0.00    -0.273 OA
ATOM     22  C   UNL     1      -3.433  -1.266  -0.603  0.00  0.00    +0.115 C 
ATOM     23  C   UNL     1      -4.550  -0.337  -1.065  0.00  0.00    +0.035 C 
ATOM     24  C   UNL     1      -4.633  -0.359  -2.594  0.00  0.00    +0.003 C 
ATOM     25  C   UNL     1      -4.906  -1.788  -3.068  0.00  0.00    +0.000 C 
ATOM     26  C   UNL     1      -3.768  -2.704  -2.615  0.00  0.00    +0.006 C 
ATOM     27  C   UNL     1      -3.681  -2.691  -1.087  0.00  0.00    +0.018 C 
ATOM     28  C   UNL     1      -2.530  -3.591  -0.634  0.00  0.00    +0.010 C 
ATOM     29  N   UNL     1      -3.307  -1.233   0.860  0.00  0.00    -0.285 N 
ATOM     30  C   UNL     1      -2.066  -0.783   1.125  0.00  0.00    +0.310 C 
ATOM     31  O   UNL     1      -1.625  -0.636   2.248  0.00  0.00    -0.252 OA
ATOM     32  H   UNL     1      -3.983  -1.488   1.507  0.00  0.00    +0.151 HD
ENDBRANCH  18  19
ENDBRANCH   1  18
TORSDOF 5
