REMARK  Name = ZINC12659585
REMARK  7 active torsions:
REMARK  status: ('A' for Active; 'I' for Inactive)
REMARK    1  A    between atoms: C_1  and  C_2
REMARK    2  A    between atoms: C_5  and  C_8
REMARK    3  A    between atoms: N_12  and  C_13
REMARK    4  A    between atoms: C_16  and  N_19
REMARK    5  A    between atoms: N_19  and  C_20
REMARK    6  A    between atoms: C_20  and  N_22
REMARK    7  A    between atoms: C_23  and  C_25
REMARK                            x       y       z     vdW  Elec       q    Type
REMARK                         _______ _______ _______ _____ _____    ______ ____
ROOT
ATOM      1  C   UNL     1      -4.104   2.390   0.325  0.00  0.00    +0.068 A 
ATOM      2  C   UNL     1      -3.266   1.896  -0.665  0.00  0.00    +0.029 A 
ATOM      3  C   UNL     1      -2.473   0.795  -0.413  0.00  0.00    +0.025 A 
ATOM      4  C   UNL     1      -2.512   0.182   0.833  0.00  0.00    +0.033 A 
ATOM      5  C   UNL     1      -3.354   0.673   1.823  0.00  0.00    +0.025 A 
ATOM      6  C   UNL     1      -4.144   1.777   1.571  0.00  0.00    +0.029 A 
ENDROOT
BRANCH   1  11
ATOM      7  C   UNL     1      -5.087   4.581   0.899  0.00  0.00    +0.095 A 
ATOM      8  C   UNL     1      -5.946   5.420   0.244  0.00  0.00    +0.165 A 
ATOM      9  N   UNL     1      -6.243   4.825  -0.914  0.00  0.00    -0.137 NA
ATOM     10  N   UNL     1      -5.620   3.703  -0.988  0.00  0.00    -0.060 NA
ATOM     11  N   UNL     1      -4.911   3.508   0.068  0.00  0.00    -0.212 N 
BRANCH   7  16
ATOM     12  C   UNL     1      -2.705   5.398   6.075  0.00  0.00    +0.044 C 
ATOM     13  C   UNL     1      -3.328   5.184   4.720  0.00  0.00    -0.050 A 
ATOM     14  C   UNL     1      -4.522   5.808   4.405  0.00  0.00    +0.004 A 
ATOM     15  C   UNL     1      -5.099   5.616   3.166  0.00  0.00    +0.010 A 
ATOM     16  C   UNL     1      -4.475   4.792   2.230  0.00  0.00    +0.002 A 
ATOM     17  C   UNL     1      -3.273   4.161   2.555  0.00  0.00    +0.010 A 
ATOM     18  C   UNL     1      -2.705   4.365   3.796  0.00  0.00    +0.004 A 
ENDBRANCH   7  16
ENDBRANCH   1  11
BRANCH   4  19
ATOM     19  N   UNL     1      -1.708  -0.934   1.089  0.00  0.00    -0.297 N 
ATOM     20  H   UNL     1      -2.085  -1.713   1.528  0.00  0.00    +0.154 HD
BRANCH  19  21
ATOM     21  C   UNL     1      -0.412  -0.930   0.721  0.00  0.00    +0.141 C 
ATOM     22  S   UNL     1       0.226   0.399  -0.151  0.00  0.00    -0.018 S 
BRANCH  21  23
ATOM     23  N   UNL     1       0.383  -1.971   1.039  0.00  0.00    -0.267 N 
ATOM     24  C   UNL     1       1.679  -1.966   0.671  0.00  0.00    +0.225 C 
ATOM     25  O   UNL     1       2.131  -1.026   0.053  0.00  0.00    -0.275 OA
ATOM     26  H   UNL     1       0.021  -2.724   1.533  0.00  0.00    +0.157 HD
BRANCH  24  27
ATOM     27  C   UNL     1       2.567  -3.131   1.026  0.00  0.00    +0.048 C 
ATOM     28  C   UNL     1       2.616  -3.290   2.547  0.00  0.00    +0.019 C 
ATOM     29  C   UNL     1       3.518  -4.472   2.908  0.00  0.00    -0.009 C 
ATOM     30  C   UNL     1       4.930  -4.217   2.377  0.00  0.00    +0.007 C 
ATOM     31  C   UNL     1       4.881  -4.058   0.856  0.00  0.00    -0.009 C 
ATOM     32  C   UNL     1       3.979  -2.876   0.495  0.00  0.00    +0.019 C 
ATOM     33  C   UNL     1       4.323  -5.336   0.227  0.00  0.00    +0.007 C 
ATOM     34  C   UNL     1       2.911  -5.591   0.758  0.00  0.00    -0.009 C 
ATOM     35  C   UNL     1       2.959  -5.750   2.279  0.00  0.00    +0.007 C 
ATOM     36  C   UNL     1       2.009  -4.409   0.397  0.00  0.00    +0.019 C 
ENDBRANCH  24  27
ENDBRANCH  21  23
ENDBRANCH  19  21
ENDBRANCH   4  19
TORSDOF 6
