REMARK  Name = ZINC57867521
REMARK  10 active torsions:
REMARK  status: ('A' for Active; 'I' for Inactive)
REMARK    1  A    between atoms: C_1  and  C_2
REMARK    2  A    between atoms: C_2  and  C_3
REMARK    3  A    between atoms: C_3  and  C_4
REMARK    4  A    between atoms: C_4  and  N_5
REMARK    5  A    between atoms: C_6  and  C_10
REMARK    6  A    between atoms: C_10  and  S_11
REMARK    7  A    between atoms: S_11  and  C_12
REMARK    8  A    between atoms: C_15  and  C_20
REMARK    9  A    between atoms: N_16  and  C_17
REMARK   10  A    between atoms: C_20  and  C_21
REMARK                            x       y       z     vdW  Elec       q    Type
REMARK                         _______ _______ _______ _____ _____    ______ ____
ROOT
ATOM      1  C   UNL     1       5.514  -0.788   0.013  0.00  0.00    +0.192 A 
ATOM      2  N   UNL     1       5.867  -1.806  -0.737  0.00  0.00    -0.122 NA
ATOM      3  N   UNL     1       6.953  -1.529  -1.365  0.00  0.00    -0.133 NA
ATOM      4  C   UNL     1       7.355  -0.328  -1.056  0.00  0.00    +0.139 A 
ATOM      5  N   UNL     1       6.449   0.189  -0.171  0.00  0.00    -0.303 N 
ENDROOT
BRANCH   5   6
ATOM      6  C   UNL     1       6.479   1.514   0.452  0.00  0.00    +0.091 C 
ATOM      7  C   UNL     1       5.606   1.733   1.689  0.00  0.00    +0.027 C 
ATOM      8  C   UNL     1       5.214   2.370   0.353  0.00  0.00    +0.027 C 
ENDBRANCH   5   6
BRANCH   1   9
ATOM      9  S   UNL     1       4.096  -0.697   1.056  0.00  0.00    -0.078 S 
BRANCH   9  10
ATOM     10  C   UNL     1       3.290  -2.308   0.842  0.00  0.00    +0.155 C 
BRANCH  10  12
ATOM     11  N   UNL     1       0.805  -1.996   1.323  0.00  0.00    -0.228 N 
ATOM     12  C   UNL     1       2.046  -2.364   1.690  0.00  0.00    +0.161 A 
ATOM     13  N   UNL     1       1.962  -2.782   2.930  0.00  0.00    -0.113 NA
ATOM     14  N   UNL     1       0.734  -2.675   3.304  0.00  0.00    -0.023 NA
ATOM     15  N   UNL     1       0.033  -2.195   2.337  0.00  0.00    -0.044 NA
BRANCH  11  16
ATOM     16  C   UNL     1       0.406  -1.462   0.018  0.00  0.00    +0.147 C 
BRANCH  16  17
ATOM     17  C   UNL     1       0.533   0.063   0.030  0.00  0.00    +0.023 C 
BRANCH  17  19
ATOM     18  C   UNL     1       0.244   2.145  -1.320  0.00  0.00    +0.004 C 
ATOM     19  C   UNL     1       0.117   0.620  -1.333  0.00  0.00    -0.002 C 
ENDBRANCH  17  19
ENDBRANCH  16  17
ENDBRANCH  11  16
ENDBRANCH  10  12
ENDBRANCH   9  10
ENDBRANCH   1   9
BRANCH   4  20
ATOM     20  C   UNL     1       8.586   0.364  -1.581  0.00  0.00    +0.118 C 
BRANCH  20  21
ATOM     21  C   UNL     1       8.238   1.127  -2.833  0.00  0.00    -0.003 A 
ATOM     22  C   UNL     1       7.817   2.409  -2.962  0.00  0.00    +0.011 A 
ATOM     23  C   UNL     1       7.554   2.904  -4.226  0.00  0.00    +0.008 A 
ATOM     24  C   UNL     1       7.726   2.093  -5.299  0.00  0.00    +0.045 A 
ATOM     25  S   UNL     1       8.281   0.579  -4.532  0.00  0.00    -0.101 S 
ENDBRANCH  20  21
ENDBRANCH   4  20
TORSDOF 9
