REMARK  Name = ZINC04948842
REMARK  4 active torsions:
REMARK  status: ('A' for Active; 'I' for Inactive)
REMARK    1  A    between atoms: C_1  and  C_2
REMARK    2  A    between atoms: C_5  and  N_8
REMARK    3  A    between atoms: C_11  and  C_13
REMARK    4  A    between atoms: C_14  and  C_24
REMARK                            x       y       z     vdW  Elec       q    Type
REMARK                         _______ _______ _______ _____ _____    ______ ____
ROOT
ATOM      1  N   UNL     1       0.388  -3.936   0.508  0.00  0.00    -0.218 N 
ATOM      2  C   UNL     1       1.115  -4.887   1.129  0.00  0.00    +0.130 A 
ATOM      3  C   UNL     1       0.863  -6.079   0.501  0.00  0.00    +0.023 A 
ATOM      4  C   UNL     1      -0.042  -5.838  -0.523  0.00  0.00    +0.066 A 
ATOM      5  N   UNL     1      -0.337  -4.558  -0.522  0.00  0.00    -0.170 NA
ATOM      6  C   UNL     1      -0.598  -6.870  -1.470  0.00  0.00    +0.068 C 
ATOM      7  C   UNL     1       1.512  -7.365   0.927  0.00  0.00    +0.062 C 
ATOM      8  C   UNL     1       2.153  -7.186   2.287  0.00  0.00    +0.020 C 
ATOM      9  C   UNL     1       2.360  -5.969   2.835  0.00  0.00    +0.016 C 
ATOM     10  N   UNL     1       1.985  -4.807   2.209  0.00  0.00    -0.302 N 
ATOM     11  C   UNL     1       3.032  -5.833   4.182  0.00  0.00    +0.051 C 
ATOM     12  C   UNL     1       2.690  -7.043   5.053  0.00  0.00    +0.014 C 
ATOM     13  C   UNL     1       3.165  -8.307   4.328  0.00  0.00    +0.080 C 
ATOM     14  C   UNL     1       2.527  -8.358   2.969  0.00  0.00    +0.161 C 
ATOM     15  O   UNL     1       2.329  -9.437   2.446  0.00  0.00    -0.292 OA
ATOM     16  H   UNL     1       2.320  -3.949   2.513  0.00  0.00    +0.153 HD
ENDROOT
BRANCH   1  21
ATOM     17  C   UNL     1       0.257   1.581   1.833  0.00  0.00    +0.044 C 
ATOM     18  C   UNL     1       0.292   0.116   1.482  0.00  0.00    -0.050 A 
ATOM     19  C   UNL     1       0.185  -0.279   0.161  0.00  0.00    +0.005 A 
ATOM     20  C   UNL     1       0.216  -1.621  -0.165  0.00  0.00    +0.028 A 
ATOM     21  C   UNL     1       0.356  -2.573   0.835  0.00  0.00    +0.067 A 
ATOM     22  C   UNL     1       0.464  -2.173   2.161  0.00  0.00    +0.028 A 
ATOM     23  C   UNL     1       0.438  -0.830   2.479  0.00  0.00    +0.005 A 
ENDBRANCH   1  21
BRANCH   7  24
ATOM     24  C   UNL     1       2.584  -7.757  -0.092  0.00  0.00    +0.005 C 
ATOM     25  C   UNL     1       1.921  -8.087  -1.436  0.00  0.00    +0.009 C 
ATOM     26  C   UNL     1       2.990  -8.644  -2.379  0.00  0.00    +0.027 C 
ATOM     27  C   UNL     1       4.192  -7.745  -2.386  0.00  0.00    -0.031 C 
ATOM     28  C   UNL     1       4.436  -6.853  -1.481  0.00  0.00    -0.031 C 
ATOM     29  C   UNL     1       3.550  -6.588  -0.298  0.00  0.00    +0.031 C 
ENDBRANCH   7  24
TORSDOF 2
