REMARK  Name = ZINC27630685
REMARK  5 active torsions:
REMARK  status: ('A' for Active; 'I' for Inactive)
REMARK    1  A    between atoms: C_1  and  C_2
REMARK    2  A    between atoms: C_5  and  C_17
REMARK    3  A    between atoms: C_7  and  N_8
REMARK    4  A    between atoms: C_9  and  C_11
REMARK    5  A    between atoms: C_14  and  C_16
REMARK                            x       y       z     vdW  Elec       q    Type
REMARK                         _______ _______ _______ _____ _____    ______ ____
ROOT
ATOM      1  C   UNL     1      -0.144   1.469   0.290  0.00  0.00    +0.045 C 
ATOM      2  C   UNL     1      -0.037  -0.033   0.243  0.00  0.00    -0.029 A 
ATOM      3  C   UNL     1      -0.019  -0.685  -0.976  0.00  0.00    +0.006 A 
ATOM      4  C   UNL     1       0.080  -2.060  -1.028  0.00  0.00    +0.012 A 
ATOM      5  C   UNL     1       0.162  -2.798   0.154  0.00  0.00    +0.021 A 
ATOM      6  C   UNL     1       0.144  -2.142   1.384  0.00  0.00    +0.035 A 
ATOM      7  C   UNL     1       0.050  -0.759   1.425  0.00  0.00    +0.037 A 
ENDROOT
BRANCH   5   8
ATOM      8  C   UNL     1       0.266  -4.273   0.102  0.00  0.00    +0.164 A 
ATOM      9  N   UNL     1       0.693  -5.064   1.064  0.00  0.00    -0.129 NA
ATOM     10  N   UNL     1       0.642  -6.290   0.673  0.00  0.00    -0.134 NA
ATOM     11  C   UNL     1       0.182  -6.349  -0.545  0.00  0.00    +0.134 A 
ATOM     12  N   UNL     1      -0.066  -5.076  -0.950  0.00  0.00    -0.311 N 
ATOM     13  C   UNL     1      -0.570  -4.660  -2.259  0.00  0.00    +0.125 C 
ATOM     14  C   UNL     1      -1.424  -5.784  -2.854  0.00  0.00    +0.022 C 
ATOM     15  C   UNL     1      -0.539  -6.729  -3.664  0.00  0.00    +0.002 C 
ATOM     16  C   UNL     1       0.515  -7.375  -2.771  0.00  0.00    +0.008 C 
ATOM     17  C   UNL     1      -0.053  -7.588  -1.371  0.00  0.00    +0.076 C 
ENDBRANCH   5   8
BRANCH   7  18
ATOM     18  N   UNL     1       0.038  -0.095   2.655  0.00  0.00    -0.279 N 
ATOM     19  C   UNL     1       0.755  -0.578   3.689  0.00  0.00    +0.284 C 
ATOM     20  O   UNL     1       1.494  -1.531   3.524  0.00  0.00    -0.266 OA
ATOM     21  H   UNL     1      -0.487   0.713   2.765  0.00  0.00    +0.155 HD
BRANCH  19  22
ATOM     22  C   UNL     1       0.646   0.045   5.012  0.00  0.00    +0.190 A 
ATOM     23  C   UNL     1       1.317  -0.340   6.138  0.00  0.00    +0.055 A 
ATOM     24  C   UNL     1       0.913   0.528   7.164  0.00  0.00    +0.045 A 
ATOM     25  C   UNL     1       0.023   1.392   6.628  0.00  0.00    +0.103 A 
ATOM     26  O   UNL     1      -0.131   1.101   5.329  0.00  0.00    -0.455 OA
ATOM     27  C   UNL     1      -0.676   2.503   7.367  0.00  0.00    +0.086 C 
ENDBRANCH  19  22
ENDBRANCH   7  18
TORSDOF 3
