REMARK  Name = ZINC09189913
REMARK  8 active torsions:
REMARK  status: ('A' for Active; 'I' for Inactive)
REMARK    1  A    between atoms: C_1  and  C_2
REMARK    2  A    between atoms: C_2  and  O_3
REMARK    3  A    between atoms: O_3  and  C_4
REMARK    4  A    between atoms: C_4  and  C_6
REMARK    5  A    between atoms: C_7  and  N_36
REMARK    6  A    between atoms: C_11  and  C_35
REMARK    7  A    between atoms: N_24  and  C_27
REMARK    8  A    between atoms: C_27  and  C_28
REMARK                            x       y       z     vdW  Elec       q    Type
REMARK                         _______ _______ _______ _____ _____    ______ ____
ROOT
ATOM      1  C   UNL     1      -0.823   1.644  -3.530  0.00  0.00    +0.117 C 
ATOM      2  C   UNL     1      -0.250   1.375  -4.732  0.00  0.00    +0.196 C 
ATOM      3  O   UNL     1      -0.817   1.756  -5.888  0.00  0.00    -0.441 OA
ATOM      4  C   UNL     1      -2.124   2.087  -5.928  0.00  0.00    +0.142 A 
ATOM      5  C   UNL     1      -2.809   2.108  -7.161  0.00  0.00    +0.067 A 
ATOM      6  C   UNL     1      -4.117   2.442  -7.197  0.00  0.00    +0.019 A 
ATOM      7  N   UNL     1      -4.787   2.760  -6.058  0.00  0.00    -0.326 N 
ATOM      8  H   UNL     1      -5.726   2.998  -6.108  0.00  0.00    +0.169 HD
ATOM      9  C   UNL     1      -4.169   2.751  -4.863  0.00  0.00    +0.257 A 
ATOM     10  O   UNL     1      -4.791   3.038  -3.852  0.00  0.00    -0.267 OA
ATOM     11  C   UNL     1      -2.813   2.410  -4.777  0.00  0.00    +0.083 A 
ATOM     12  C   UNL     1      -2.120   2.397  -3.445  0.00  0.00    +0.144 C 
ATOM     13  C   UNL     1      -1.897   3.790  -2.943  0.00  0.00    -0.002 A 
ATOM     14  C   UNL     1      -1.169   4.840  -3.460  0.00  0.00    +0.007 A 
ATOM     15  C   UNL     1      -1.168   6.025  -2.732  0.00  0.00    +0.000 A 
ATOM     16  C   UNL     1      -1.865   6.141  -1.547  0.00  0.00    +0.002 A 
ATOM     17  C   UNL     1      -2.600   5.090  -1.022  0.00  0.00    +0.024 A 
ATOM     18  C   UNL     1      -2.609   3.895  -1.743  0.00  0.00    +0.041 A 
ATOM     19  N   UNL     1      -3.248   2.701  -1.457  0.00  0.00    -0.265 N 
ATOM     20  C   UNL     1      -3.018   1.765  -2.401  0.00  0.00    +0.240 C 
ATOM     21  O   UNL     1      -3.448   0.631  -2.411  0.00  0.00    -0.274 OA
ATOM     22  C   UNL     1      -4.843   2.462  -8.517  0.00  0.00    +0.063 C 
ENDROOT
BRANCH   2  23
ATOM     23  N   UNL     1       0.935   0.690  -4.765  0.00  0.00    -0.329 N 
ATOM     24  H   UNL     1       1.315   0.339  -3.945  0.00  0.00    +0.145 HD
ATOM     25  H   UNL     1       1.394   0.557  -5.609  0.00  0.00    +0.145 HD
ENDBRANCH   2  23
BRANCH   1  26
ATOM     26  C   UNL     1      -0.192   1.218  -2.352  0.00  0.00    +0.342 C 
ATOM     27  O   UNL     1       0.451   2.009  -1.685  0.00  0.00    -0.245 OA
BRANCH  26  28
ATOM     28  O   UNL     1      -0.298  -0.069  -1.956  0.00  0.00    -0.462 OA
BRANCH  28  30
ATOM     29  C   UNL     1       0.138  -1.919  -0.464  0.00  0.00    +0.048 C 
ATOM     30  C   UNL     1       0.370  -0.433  -0.747  0.00  0.00    +0.229 C 
ENDBRANCH  28  30
ENDBRANCH  26  28
ENDBRANCH   1  26
BRANCH  19  31
ATOM     31  C   UNL     1      -4.079   2.481  -0.271  0.00  0.00    +0.148 C 
BRANCH  31  32
ATOM     32  C   UNL     1      -5.507   2.846  -0.582  0.00  0.00    -0.030 A 
ATOM     33  C   UNL     1      -5.954   4.136  -0.364  0.00  0.00    +0.006 A 
ATOM     34  C   UNL     1      -7.262   4.473  -0.654  0.00  0.00    +0.020 A 
ATOM     35  C   UNL     1      -8.128   3.516  -1.153  0.00  0.00    +0.041 A 
ATOM     36  C   UNL     1      -7.682   2.224  -1.366  0.00  0.00    +0.020 A 
ATOM     37  C   UNL     1      -6.372   1.890  -1.081  0.00  0.00    +0.006 A 
ATOM     38 CL   UNL     1      -9.774   3.937  -1.512  0.00  0.00    -0.084 Cl
ENDBRANCH  31  32
ENDBRANCH  19  31
TORSDOF 6
