REMARK  Name = ZINC11855076
REMARK  10 active torsions:
REMARK  status: ('A' for Active; 'I' for Inactive)
REMARK    1  A    between atoms: C_1  and  C_2
REMARK    2  A    between atoms: C_2  and  C_3
REMARK    3  A    between atoms: C_4  and  C_34
REMARK    4  A    between atoms: C_12  and  N_21
REMARK    5  A    between atoms: C_14  and  C_16
REMARK    6  A    between atoms: C_22  and  C_24
REMARK    7  A    between atoms: C_27  and  O_32
REMARK    8  A    between atoms: C_29  and  O_30
REMARK    9  A    between atoms: O_30  and  C_31
REMARK   10  A    between atoms: O_32  and  C_33
REMARK                            x       y       z     vdW  Elec       q    Type
REMARK                         _______ _______ _______ _____ _____    ______ ____
ROOT
ATOM      1  C   UNL     1       0.878  -5.066  -0.003  0.00  0.00    +0.038 A 
ATOM      2  C   UNL     1       0.617  -3.727   0.001  0.00  0.00    +0.050 A 
ATOM      3  N   UNL     1       1.621  -2.852  -0.006  0.00  0.00    -0.217 NA
ATOM      4  C   UNL     1       2.875  -3.247  -0.026  0.00  0.00    +0.234 A 
ATOM      5  N   UNL     1       3.198  -4.568  -0.031  0.00  0.00    -0.291 N 
ATOM      6  H   UNL     1       4.128  -4.842  -0.042  0.00  0.00    +0.172 HD
ATOM      7  C   UNL     1       2.218  -5.497  -0.019  0.00  0.00    +0.256 A 
ATOM      8  O   UNL     1       2.489  -6.686  -0.022  0.00  0.00    -0.267 OA
ATOM      9  N   UNL     1       3.884  -2.303  -0.038  0.00  0.00    -0.185 N 
ATOM     10  C   UNL     1       3.715  -0.947  -0.036  0.00  0.00    +0.132 A 
ATOM     11  C   UNL     1       4.947  -0.379  -0.044  0.00  0.00    +0.074 A 
ATOM     12  C   UNL     1       5.902  -1.417  -0.057  0.00  0.00    +0.102 A 
ATOM     13  N   UNL     1       5.259  -2.567  -0.057  0.00  0.00    -0.162 NA
ATOM     14  C   UNL     1      -0.808  -3.238   0.019  0.00  0.00    +0.066 C 
ENDROOT
BRANCH  12  15
ATOM     15  C   UNL     1       7.370  -1.245  -0.069  0.00  0.00    +0.039 A 
ATOM     16  C   UNL     1       8.351  -2.200  -0.082  0.00  0.00    +0.018 A 
ATOM     17  C   UNL     1       9.668  -1.797  -0.092  0.00  0.00    +0.008 A 
ATOM     18  C   UNL     1       9.954  -0.470  -0.088  0.00  0.00    +0.046 A 
ATOM     19  S   UNL     1       8.326   0.263  -0.077  0.00  0.00    -0.095 S 
ENDBRANCH  12  15
BRANCH  10  20
ATOM     20  N   UNL     1       2.498  -0.271  -0.021  0.00  0.00    -0.266 N 
ATOM     21  C   UNL     1       2.476   1.077  -0.015  0.00  0.00    +0.253 C 
ATOM     22  O   UNL     1       3.519   1.702  -0.021  0.00  0.00    -0.270 OA
ATOM     23  H   UNL     1       1.666  -0.770  -0.016  0.00  0.00    +0.157 HD
BRANCH  21  24
ATOM     24  C   UNL     1       1.189   1.792   0.000  0.00  0.00    +0.079 A 
ATOM     25  C   UNL     1      -0.013   1.076   0.008  0.00  0.00    +0.020 A 
ATOM     26  C   UNL     1      -1.213   1.748   0.017  0.00  0.00    +0.046 A 
ATOM     27  C   UNL     1      -1.237   3.139   0.029  0.00  0.00    +0.124 A 
ATOM     28  C   UNL     1      -0.052   3.859   0.022  0.00  0.00    +0.092 A 
ATOM     29  C   UNL     1       1.163   3.195   0.008  0.00  0.00    +0.136 A 
BRANCH  29  30
ATOM     30  O   UNL     1       2.323   3.897   0.001  0.00  0.00    -0.494 OA
ATOM     31  C   UNL     1       2.219   5.323   0.009  0.00  0.00    +0.277 C 
ENDBRANCH  29  30
BRANCH  27  32
ATOM     32  O   UNL     1      -2.425   3.794   0.043  0.00  0.00    -0.495 OA
ATOM     33  C   UNL     1      -3.608   2.992   0.049  0.00  0.00    +0.277 C 
ENDBRANCH  27  32
ENDBRANCH  21  24
ENDBRANCH  10  20
BRANCH   1  35
ATOM     34  C   UNL     1      -0.564  -6.498  -1.423  0.00  0.00    +0.009 C 
ATOM     35  C   UNL     1      -0.249  -6.067   0.010  0.00  0.00    +0.039 C 
ENDBRANCH   1  35
TORSDOF 6
