REMARK  Name = ZINC40138067
REMARK  8 active torsions:
REMARK  status: ('A' for Active; 'I' for Inactive)
REMARK    1  A    between atoms: C_4  and  C_7
REMARK    2  A    between atoms: N_9  and  C_10
REMARK    3  A    between atoms: C_10  and  C_11
REMARK    4  A    between atoms: N_13  and  N_14
REMARK    5  A    between atoms: N_22  and  C_25
REMARK    6  A    between atoms: C_25  and  C_26
REMARK    7  A    between atoms: C_26  and  O_27
REMARK    8  A    between atoms: O_27  and  C_28
REMARK                            x       y       z     vdW  Elec       q    Type
REMARK                         _______ _______ _______ _____ _____    ______ ____
ROOT
ATOM      1  N   UNL     1       5.551  -6.471  -0.086  0.00  0.00    -0.174 NA
ATOM      2  C   UNL     1       6.560  -7.306  -0.101  0.00  0.00    +0.153 C 
ATOM      3  C   UNL     1       6.506  -8.787  -0.114  0.00  0.00    +0.030 A 
ATOM      4  C   UNL     1       5.459  -9.701  -0.115  0.00  0.00    +0.032 A 
ATOM      5  C   UNL     1       5.731 -11.055  -0.129  0.00  0.00    +0.042 A 
ATOM      6  C   UNL     1       7.044 -11.498  -0.142  0.00  0.00    +0.022 A 
ATOM      7  C   UNL     1       8.090 -10.598  -0.140  0.00  0.00    +0.025 A 
ATOM      8  C   UNL     1       7.835  -9.231  -0.127  0.00  0.00    +0.046 A 
ATOM      9  N   UNL     1       8.687  -8.132  -0.123  0.00  0.00    -0.262 N 
ATOM     10  C   UNL     1       8.000  -6.977  -0.114  0.00  0.00    +0.271 C 
ATOM     11  O   UNL     1       8.479  -5.858  -0.114  0.00  0.00    -0.268 OA
ATOM     12 CL   UNL     1       4.428 -12.202  -0.131  0.00  0.00    -0.084 Cl
ENDROOT
BRANCH   1  15
ATOM     13  C   UNL     1       4.746  -4.230  -0.067  0.00  0.00    +0.249 C 
ATOM     14  O   UNL     1       3.610  -4.653  -0.058  0.00  0.00    -0.272 OA
ATOM     15  N   UNL     1       5.784  -5.089  -0.081  0.00  0.00    -0.205 N 
ATOM     16  H   UNL     1       6.694  -4.751  -0.089  0.00  0.00    +0.177 HD
BRANCH  13  17
ATOM     17  C   UNL     1       4.997  -2.744  -0.061  0.00  0.00    +0.202 C 
BRANCH  17  20
ATOM     18  C   UNL     1       3.696  -0.685  -0.037  0.00  0.00    +0.244 C 
ATOM     19  O   UNL     1       4.738  -0.060  -0.044  0.00  0.00    -0.270 OA
ATOM     20  N   UNL     1       3.717  -2.032  -0.045  0.00  0.00    -0.303 N 
ATOM     21  H   UNL     1       2.885  -2.531  -0.039  0.00  0.00    +0.150 HD
BRANCH  18  25
ATOM     22  C   UNL     1      -0.017   1.379   0.010  0.00  0.00    +0.000 A 
ATOM     23  C   UNL     1       1.168   2.094   0.002  0.00  0.00    +0.001 A 
ATOM     24  C   UNL     1       2.377   1.429  -0.013  0.00  0.00    +0.013 A 
ATOM     25  C   UNL     1       2.403   0.034  -0.021  0.00  0.00    +0.037 A 
ATOM     26  C   UNL     1       1.204  -0.681  -0.013  0.00  0.00    +0.013 A 
ATOM     27  C   UNL     1       0.002  -0.004   0.002  0.00  0.00    +0.001 A 
ENDBRANCH  18  25
ENDBRANCH  17  20
ENDBRANCH  13  17
ENDBRANCH   1  15
BRANCH   9  28
ATOM     28  C   UNL     1      10.150  -8.222  -0.133  0.00  0.00    +0.155 C 
BRANCH  28  29
ATOM     29  C   UNL     1      10.649  -8.240  -1.579  0.00  0.00    +0.248 C 
BRANCH  29  30
ATOM     30  O   UNL     1      10.343  -6.992  -2.205  0.00  0.00    -0.490 OA
BRANCH  30  31
ATOM     31  C   UNL     1      10.722  -6.842  -3.501  0.00  0.00    +0.121 A 
ATOM     32  C   UNL     1      11.369  -7.877  -4.160  0.00  0.00    +0.047 A 
ATOM     33  C   UNL     1      11.754  -7.723  -5.478  0.00  0.00    +0.023 A 
ATOM     34  C   UNL     1      11.493  -6.537  -6.141  0.00  0.00    +0.041 A 
ATOM     35  C   UNL     1      10.847  -5.503  -5.486  0.00  0.00    +0.023 A 
ATOM     36  C   UNL     1      10.456  -5.656  -4.170  0.00  0.00    +0.047 A 
ATOM     37 CL   UNL     1      11.977  -6.345  -7.797  0.00  0.00    -0.084 Cl
ENDBRANCH  30  31
ENDBRANCH  29  30
ENDBRANCH  28  29
ENDBRANCH   9  28
TORSDOF 8
