REMARK  Name = ZINC65323301
REMARK  5 active torsions:
REMARK  status: ('A' for Active; 'I' for Inactive)
REMARK    1  A    between atoms: C_1  and  C_2
REMARK    2  A    between atoms: C_3  and  N_9
REMARK    3  A    between atoms: N_9  and  C_10
REMARK    4  A    between atoms: C_11  and  C_19
REMARK    5  A    between atoms: C_24  and  O_25
REMARK                            x       y       z     vdW  Elec       q    Type
REMARK                         _______ _______ _______ _____ _____    ______ ____
ROOT
ATOM      1  C   UNL     1       0.077  -0.724  -3.593  0.00  0.00    +0.136 A 
ATOM      2  C   UNL     1       0.183  -0.214  -4.875  0.00  0.00    +0.115 A 
ATOM      3  N   UNL     1       0.266  -1.246  -5.728  0.00  0.00    -0.224 NA
ATOM      4  C   UNL     1       0.217  -2.378  -5.049  0.00  0.00    +0.158 A 
ATOM      5  N   UNL     1       0.105  -2.080  -3.707  0.00  0.00    -0.285 N 
ATOM      6  C   UNL     1       0.043  -3.105  -2.798  0.00  0.00    +0.114 A 
ATOM      7  C   UNL     1       0.096  -4.382  -3.227  0.00  0.00    +0.129 A 
ATOM      8  N   UNL     1       0.209  -4.674  -4.527  0.00  0.00    -0.258 NA
ATOM      9  C   UNL     1       0.263  -3.732  -5.438  0.00  0.00    +0.157 A 
ENDROOT
BRANCH   2  10
ATOM     10  C   UNL     1       0.201   1.222  -5.242  0.00  0.00    +0.045 A 
ATOM     11  C   UNL     1       0.229   2.198  -4.248  0.00  0.00    +0.014 A 
ATOM     12  C   UNL     1       0.246   3.534  -4.595  0.00  0.00    +0.001 A 
ATOM     13  C   UNL     1       0.237   3.908  -5.927  0.00  0.00    +0.004 A 
ATOM     14  C   UNL     1       0.209   2.948  -6.921  0.00  0.00    +0.046 A 
ATOM     15  C   UNL     1       0.197   1.604  -6.588  0.00  0.00    +0.126 A 
BRANCH  15  16
ATOM     16  O   UNL     1       0.176   0.659  -7.564  0.00  0.00    -0.506 OA
ATOM     17  H   UNL     1      -0.713   0.399  -7.841  0.00  0.00    +0.292 HD
ENDBRANCH  15  16
ENDBRANCH   2  10
BRANCH   1  18
ATOM     18  N   UNL     1      -0.032   0.009  -2.413  0.00  0.00    -0.299 N 
ATOM     19  H   UNL     1       0.735   0.497  -2.073  0.00  0.00    +0.154 HD
BRANCH  18  22
ATOM     20  C   UNL     1      -0.108   1.352   0.094  0.00  0.00    +0.047 C 
ATOM     21  C   UNL     1      -1.327   0.686  -0.492  0.00  0.00    -0.011 A 
ATOM     22  C   UNL     1      -1.244   0.041  -1.720  0.00  0.00    +0.037 A 
ATOM     23  C   UNL     1      -2.369  -0.572  -2.257  0.00  0.00    +0.023 A 
ATOM     24  C   UNL     1      -3.566  -0.539  -1.569  0.00  0.00    +0.003 A 
ATOM     25  C   UNL     1      -3.646   0.104  -0.348  0.00  0.00    +0.020 A 
ATOM     26  C   UNL     1      -2.526   0.712   0.193  0.00  0.00    +0.046 A 
ATOM     27 CL   UNL     1      -2.630   1.512   1.730  0.00  0.00    -0.083 Cl
ENDBRANCH  18  22
ENDBRANCH   1  18
TORSDOF 4
