REMARK  Name = ZINC04312497
REMARK  7 active torsions:
REMARK  status: ('A' for Active; 'I' for Inactive)
REMARK    1  A    between atoms: C_1  and  C_2
REMARK    2  A    between atoms: C_2  and  N_47
REMARK    3  A    between atoms: C_9  and  C_21
REMARK    4  A    between atoms: C_11  and  C_17
REMARK    5  A    between atoms: C_11  and  C_19
REMARK    6  A    between atoms: C_13  and  C_14
REMARK    7  A    between atoms: C_26  and  C_27
REMARK                            x       y       z     vdW  Elec       q    Type
REMARK                         _______ _______ _______ _____ _____    ______ ____
ROOT
ATOM      1  C   UNL     1      -2.080   0.970   3.557  0.00  0.00    -0.051 C 
ATOM      2  C   UNL     1      -2.799   0.850   2.236  0.00  0.00    -0.044 C 
ATOM      3  C   UNL     1      -2.198   1.215   1.119  0.00  0.00    -0.051 C 
ATOM      4  C   UNL     1      -0.819   1.810   1.087  0.00  0.00    +0.010 C 
ATOM      5  C   UNL     1      -0.115   1.789   2.426  0.00  0.00    -0.070 C 
ATOM      6  C   UNL     1      -0.013   1.086   0.008  0.00  0.00    +0.065 C 
ATOM      7  C   UNL     1      -0.662   1.338  -1.353  0.00  0.00    +0.188 C 
ATOM      8  C   UNL     1      -2.134   1.040  -1.327  0.00  0.00    +0.065 C 
ATOM      9  C   UNL     1      -2.868   0.990  -0.186  0.00  0.00    +0.163 C 
ATOM     10  N   UNL     1      -2.767   0.808  -2.515  0.00  0.00    -0.304 NA
ATOM     11  H   UNL     1      -3.717   0.613  -2.529  0.00  0.00    +0.186 HD
ATOM     12  N   UNL     1      -0.645   0.726   3.294  0.00  0.00    +0.382 N 
ATOM     13  H   UNL     1      -0.539  -0.178   2.820  0.00  0.00    -0.081 HD
ENDROOT
BRANCH   6  14
ATOM     14  C   UNL     1       1.400   1.610  -0.003  0.00  0.00    -0.029 A 
ATOM     15  C   UNL     1       1.633   2.969  -0.106  0.00  0.00    +0.004 A 
ATOM     16  C   UNL     1       2.929   3.449  -0.116  0.00  0.00    +0.000 A 
ATOM     17  C   UNL     1       3.993   2.571  -0.022  0.00  0.00    +0.001 A 
ATOM     18  C   UNL     1       3.760   1.212   0.083  0.00  0.00    +0.012 A 
ATOM     19  C   UNL     1       2.463   0.732   0.097  0.00  0.00    +0.058 A 
BRANCH  19  20
ATOM     20  C   UNL     1       2.210  -0.749   0.216  0.00  0.00    +0.418 C 
ATOM     21  F   UNL     1       3.431  -1.426   0.303  0.00  0.00    -0.166 F 
ATOM     22  F   UNL     1       1.454  -1.001   1.367  0.00  0.00    -0.166 F 
ATOM     23  F   UNL     1       1.508  -1.194  -0.909  0.00  0.00    -0.166 F 
ENDBRANCH  19  20
ENDBRANCH   6  14
BRANCH  12  25
ATOM     24  C   UNL     1       0.064   2.062   5.247  0.00  0.00    -0.017 C 
ATOM     25  C   UNL     1       0.106   0.691   4.569  0.00  0.00    -0.082 C 
ENDBRANCH  12  25
BRANCH   9  26
ATOM     26  C   UNL     1      -4.274   0.723  -0.242  0.00  0.00    +0.076 C 
ATOM     27  N   UNL     1      -5.389   0.512  -0.286  0.00  0.00    -0.196 NA
ENDBRANCH   9  26
BRANCH   7  28
ATOM     28  C   UNL     1      -0.464   2.748  -1.726  0.00  0.00    +0.091 C 
ATOM     29  N   UNL     1      -0.311   3.836  -2.013  0.00  0.00    -0.195 NA
ENDBRANCH   7  28
BRANCH   7  30
ATOM     30  C   UNL     1      -0.014   0.482  -2.360  0.00  0.00    +0.091 C 
ATOM     31  N   UNL     1       0.486  -0.179  -3.137  0.00  0.00    -0.195 NA
ENDBRANCH   7  30
TORSDOF 6
