REMARK  Name = ZINC12566981
REMARK  7 active torsions:
REMARK  status: ('A' for Active; 'I' for Inactive)
REMARK    1  A    between atoms: C_1  and  C_2
REMARK    2  A    between atoms: C_2  and  C_26
REMARK    3  A    between atoms: N_5  and  C_9
REMARK    4  A    between atoms: C_9  and  C_10
REMARK    5  A    between atoms: N_12  and  C_13
REMARK    6  A    between atoms: C_13  and  C_15
REMARK    7  A    between atoms: C_13  and  C_21
REMARK                            x       y       z     vdW  Elec       q    Type
REMARK                         _______ _______ _______ _____ _____    ______ ____
ROOT
ATOM      1  C   UNL     1      -1.730   5.978  -7.747  0.00  0.00    +0.047 C 
ATOM      2  C   UNL     1      -2.365   5.187  -6.601  0.00  0.00    +0.135 C 
ATOM      3  C   UNL     1      -1.558   5.358  -5.329  0.00  0.00    +0.251 C 
ATOM      4  O   UNL     1      -0.402   5.040  -5.147  0.00  0.00    -0.272 OA
ATOM      5  N   UNL     1      -2.393   5.935  -4.442  0.00  0.00    -0.215 N 
ATOM      6  C   UNL     1      -3.600   6.157  -4.974  0.00  0.00    +0.310 C 
ATOM      7  O   UNL     1      -4.521   6.671  -4.369  0.00  0.00    -0.252 OA
ATOM      8  N   UNL     1      -3.683   5.747  -6.253  0.00  0.00    -0.281 N 
ATOM      9  H   UNL     1      -4.458   5.808  -6.832  0.00  0.00    +0.152 HD
ENDROOT
BRANCH   2  10
ATOM     10  C   UNL     1      -2.488   3.731  -6.968  0.00  0.00    -0.015 A 
ATOM     11  C   UNL     1      -1.445   2.861  -6.709  0.00  0.00    +0.006 A 
ATOM     12  C   UNL     1      -1.562   1.526  -7.042  0.00  0.00    +0.004 A 
ATOM     13  C   UNL     1      -2.717   1.056  -7.644  0.00  0.00    -0.044 A 
ATOM     14  C   UNL     1      -3.758   1.927  -7.908  0.00  0.00    -0.044 A 
ATOM     15  C   UNL     1      -3.641   3.265  -7.569  0.00  0.00    +0.010 A 
ATOM     16  C   UNL     1      -4.898   1.177  -8.565  0.00  0.00    +0.036 C 
ATOM     17  C   UNL     1      -4.620  -0.313  -8.276  0.00  0.00    +0.009 C 
ATOM     18  C   UNL     1      -3.086  -0.337  -8.105  0.00  0.00    +0.036 C 
ENDBRANCH   2  10
BRANCH   5  19
ATOM     19  C   UNL     1      -2.022   6.281  -3.068  0.00  0.00    +0.213 C 
BRANCH  19  20
ATOM     20  C   UNL     1      -2.323   5.119  -2.158  0.00  0.00    +0.232 C 
ATOM     21  O   UNL     1      -2.801   4.101  -2.612  0.00  0.00    -0.274 OA
ATOM     22  N   UNL     1      -2.062   5.210  -0.839  0.00  0.00    -0.303 N 
ATOM     23  H   UNL     1      -1.680   6.024  -0.475  0.00  0.00    +0.150 HD
BRANCH  22  24
ATOM     24  C   UNL     1      -2.355   4.080   0.046  0.00  0.00    +0.140 C 
BRANCH  24  25
ATOM     25  C   UNL     1      -2.571   4.583   1.450  0.00  0.00    -0.022 A 
ATOM     26  C   UNL     1      -1.766   5.588   1.955  0.00  0.00    +0.006 A 
ATOM     27  C   UNL     1      -1.968   6.053   3.241  0.00  0.00    +0.000 A 
ATOM     28  C   UNL     1      -2.966   5.507   4.026  0.00  0.00    +0.000 A 
ATOM     29  C   UNL     1      -3.767   4.499   3.522  0.00  0.00    +0.000 A 
ATOM     30  C   UNL     1      -3.569   4.037   2.234  0.00  0.00    +0.006 A 
ENDBRANCH  24  25
BRANCH  24  31
ATOM     31  C   UNL     1      -1.196   3.116   0.030  0.00  0.00    +0.014 A 
ATOM     32  C   UNL     1      -1.213   1.761   0.017  0.00  0.00    +0.013 A 
ATOM     33  C   UNL     1      -0.013   1.076   0.008  0.00  0.00    +0.008 A 
ATOM     34  C   UNL     1       1.146   1.780   0.001  0.00  0.00    +0.045 A 
ATOM     35  S   UNL     1       0.555   3.464   0.015  0.00  0.00    -0.099 S 
ENDBRANCH  24  31
ENDBRANCH  22  24
ENDBRANCH  19  20
ENDBRANCH   5  19
TORSDOF 6
