REMARK  Name = ZINC12246643
REMARK  9 active torsions:
REMARK  status: ('A' for Active; 'I' for Inactive)
REMARK    1  A    between atoms: C_1  and  C_2
REMARK    2  A    between atoms: C_2  and  C_4
REMARK    3  A    between atoms: C_2  and  N_59
REMARK    4  A    between atoms: C_4  and  C_5
REMARK    5  A    between atoms: C_10  and  N_59
REMARK    6  A    between atoms: N_13  and  C_16
REMARK    7  A    between atoms: C_19  and  N_22
REMARK    8  A    between atoms: N_22  and  S_23
REMARK    9  A    between atoms: S_23  and  C_26
REMARK                            x       y       z     vdW  Elec       q    Type
REMARK                         _______ _______ _______ _____ _____    ______ ____
ROOT
ATOM      1  C   UNL     1       1.897   2.380  -0.450  0.00  0.00    -0.069 C 
ATOM      2  C   UNL     1       0.411   2.127  -0.719  0.00  0.00    +0.003 C 
ATOM      3  C   UNL     1       0.176   0.623  -0.882  0.00  0.00    +0.103 C 
ATOM      4  N   UNL     1       0.597  -0.075   0.339  0.00  0.00    -0.330 N 
ATOM      5  C   UNL     1       2.031   0.115   0.592  0.00  0.00    +0.103 C 
ATOM      6  C   UNL     1       2.321   1.604   0.799  0.00  0.00    +0.003 C 
ENDROOT
BRANCH   4   7
ATOM      7  C   UNL     1       0.275  -1.436   0.276  0.00  0.00    +0.030 A 
ATOM      8  C   UNL     1      -0.366  -1.946  -0.846  0.00  0.00    +0.025 A 
ATOM      9  C   UNL     1      -0.680  -3.289  -0.910  0.00  0.00    +0.026 A 
ATOM     10  C   UNL     1      -0.363  -4.128   0.151  0.00  0.00    +0.048 A 
ATOM     11  C   UNL     1       0.273  -3.616   1.274  0.00  0.00    +0.026 A 
ATOM     12  C   UNL     1       0.591  -2.274   1.337  0.00  0.00    +0.025 A 
BRANCH  10  13
ATOM     13  N   UNL     1      -0.686  -5.489   0.087  0.00  0.00    -0.216 N 
ATOM     14  H   UNL     1      -0.028  -6.155   0.340  0.00  0.00    +0.174 HD
BRANCH  13  15
ATOM     15  S   UNL     1      -2.190  -5.960  -0.418  0.00  0.00    +0.072 S 
ATOM     16  O   UNL     1      -2.422  -5.313  -1.662  0.00  0.00    -0.150 OA
ATOM     17  O   UNL     1      -2.243  -7.373  -0.273  0.00  0.00    -0.150 OA
BRANCH  15  18
ATOM     18  C   UNL     1      -3.356  -5.293   0.722  0.00  0.00    +0.108 A 
ATOM     19  C   UNL     1      -3.648  -5.974   1.889  0.00  0.00    +0.029 A 
ATOM     20  C   UNL     1      -4.559  -5.448   2.787  0.00  0.00    +0.002 A 
ATOM     21  C   UNL     1      -5.186  -4.247   2.511  0.00  0.00    +0.000 A 
ATOM     22  C   UNL     1      -4.897  -3.569   1.342  0.00  0.00    +0.002 A 
ATOM     23  C   UNL     1      -3.983  -4.092   0.447  0.00  0.00    +0.029 A 
ENDBRANCH  15  18
ENDBRANCH  13  15
ENDBRANCH  10  13
ENDBRANCH   4   7
BRANCH   1  24
ATOM     24  N   UNL     1       2.112   3.823  -0.230  0.00  0.00    +0.383 N 
ATOM     25  H   UNL     1       1.394   4.354  -0.738  0.00  0.00    -0.085 HD
ATOM     26  H   UNL     1       2.042   4.026   0.774  0.00  0.00    -0.085 HD
BRANCH  24  28
ATOM     27  C   UNL     1       4.465   4.081   0.416  0.00  0.00    -0.013 C 
ATOM     28  C   UNL     1       3.446   4.222  -0.716  0.00  0.00    -0.070 C 
BRANCH  28  29
ATOM     29  C   UNL     1       3.397   5.680  -1.179  0.00  0.00    +0.019 C 
BRANCH  29  30
ATOM     30  C   UNL     1       2.486   5.797  -2.374  0.00  0.00    -0.042 A 
ATOM     31  C   UNL     1       1.137   6.050  -2.206  0.00  0.00    +0.011 A 
ATOM     32  C   UNL     1       0.346   6.149  -3.302  0.00  0.00    +0.045 A 
ATOM     33  S   UNL     1       1.513   5.882  -4.626  0.00  0.00    -0.105 S 
ATOM     34  C   UNL     1       2.978   5.661  -3.630  0.00  0.00    +0.048 A 
ENDBRANCH  29  30
ENDBRANCH  28  29
ENDBRANCH  24  28
ENDBRANCH   1  24
TORSDOF 8
