REMARK  Name = ZINC20332402
REMARK  11 active torsions:
REMARK  status: ('A' for Active; 'I' for Inactive)
REMARK    1  A    between atoms: C_1  and  C_2
REMARK    2  A    between atoms: C_2  and  C_3
REMARK    3  A    between atoms: C_3  and  N_20
REMARK    4  A    between atoms: N_10  and  C_13
REMARK    5  A    between atoms: C_18  and  C_19
REMARK    6  A    between atoms: N_20  and  C_21
REMARK    7  A    between atoms: C_21  and  C_23
REMARK    8  A    between atoms: C_21  and  C_34
REMARK    9  A    between atoms: C_23  and  C_24
REMARK   10  A    between atoms: C_34  and  O_36
REMARK   11  A    between atoms: O_36  and  C_37
REMARK                            x       y       z     vdW  Elec       q    Type
REMARK                         _______ _______ _______ _____ _____    ______ ____
ROOT
ATOM      1  C   UNL     1       0.707  -0.490  -1.238  0.00  0.00    +0.022 C 
ATOM      2  C   UNL     1       2.013  -0.945  -1.251  0.00  0.00    +0.116 C 
ATOM      3  C   UNL     1       2.612  -1.529  -2.464  0.00  0.00    +0.258 C 
ATOM      4  O   UNL     1       1.970  -1.628  -3.493  0.00  0.00    -0.270 OA
ATOM      5  N   UNL     1       3.892  -1.952  -2.403  0.00  0.00    -0.235 N 
ATOM      6  C   UNL     1       4.611  -1.849  -1.277  0.00  0.00    +0.320 C 
ATOM      7  O   UNL     1       5.758  -2.248  -1.288  0.00  0.00    -0.251 OA
ATOM      8  N   UNL     1       4.131  -1.329  -0.138  0.00  0.00    -0.189 N 
ATOM      9  C   UNL     1       2.868  -0.861  -0.054  0.00  0.00    +0.265 C 
ATOM     10  O   UNL     1       2.446  -0.387   0.984  0.00  0.00    -0.269 OA
ATOM     11  H   UNL     1       4.301  -2.339  -3.193  0.00  0.00    +0.159 HD
ENDROOT
BRANCH   8  12
ATOM     12  C   UNL     1       4.961  -1.265   0.989  0.00  0.00    +0.049 A 
ATOM     13  C   UNL     1       5.746  -0.141   1.212  0.00  0.00    +0.024 A 
ATOM     14  C   UNL     1       6.563  -0.081   2.324  0.00  0.00    +0.002 A 
ATOM     15  C   UNL     1       6.601  -1.139   3.214  0.00  0.00    +0.000 A 
ATOM     16  C   UNL     1       5.821  -2.259   2.995  0.00  0.00    +0.005 A 
ATOM     17  C   UNL     1       4.997  -2.323   1.887  0.00  0.00    -0.029 A 
ATOM     18  C   UNL     1       4.143  -3.542   1.651  0.00  0.00    +0.045 C 
ENDBRANCH   8  12
BRANCH   1  20
ATOM     19  C   UNL     1       0.384   1.418   0.312  0.00  0.00    +0.010 C 
ATOM     20  C   UNL     1       0.073  -0.058   0.059  0.00  0.00    +0.048 C 
ENDBRANCH   1  20
BRANCH   1  21
ATOM     21  N   UNL     1       0.002  -0.433  -2.385  0.00  0.00    -0.334 N 
ATOM     22  H   UNL     1       0.438  -0.619  -3.232  0.00  0.00    +0.147 HD
BRANCH  21  23
ATOM     23  C   UNL     1      -1.422  -0.090  -2.354  0.00  0.00    +0.184 C 
BRANCH  23  24
ATOM     24  C   UNL     1      -2.232  -1.332  -2.087  0.00  0.00    +0.328 C 
ATOM     25  O   UNL     1      -1.677  -2.395  -1.938  0.00  0.00    -0.249 OA
BRANCH  24  26
ATOM     26  O   UNL     1      -3.570  -1.257  -2.014  0.00  0.00    -0.467 OA
ATOM     27  C   UNL     1      -4.275  -2.474  -1.758  0.00  0.00    +0.280 C 
ENDBRANCH  24  26
ENDBRANCH  23  24
BRANCH  23  28
ATOM     28  C   UNL     1      -1.832   0.507  -3.701  0.00  0.00    +0.071 C 
BRANCH  28  29
ATOM     29  C   UNL     1      -1.112   1.814  -3.912  0.00  0.00    -0.020 A 
ATOM     30  C   UNL     1      -1.579   3.039  -3.624  0.00  0.00    +0.087 A 
ATOM     31  N   UNL     1      -0.645   3.984  -3.952  0.00  0.00    -0.360 N 
ATOM     32  H   UNL     1      -0.755   4.941  -3.835  0.00  0.00    +0.165 HD
ATOM     33  C   UNL     1       0.474   3.374  -4.473  0.00  0.00    +0.047 A 
ATOM     34  C   UNL     1       0.234   1.988  -4.465  0.00  0.00    +0.003 A 
ATOM     35  C   UNL     1       1.210   1.109  -4.937  0.00  0.00    +0.010 A 
ATOM     36  C   UNL     1       2.397   1.600  -5.402  0.00  0.00    +0.001 A 
ATOM     37  C   UNL     1       2.641   2.966  -5.408  0.00  0.00    +0.002 A 
ATOM     38  C   UNL     1       1.688   3.852  -4.955  0.00  0.00    +0.026 A 
ENDBRANCH  28  29
ENDBRANCH  23  28
ENDBRANCH  21  23
ENDBRANCH   1  21
TORSDOF 8
