REMARK  Name = ZINC02438853
REMARK  8 active torsions:
REMARK  status: ('A' for Active; 'I' for Inactive)
REMARK    1  A    between atoms: C_1  and  C_2
REMARK    2  A    between atoms: C_9  and  C_11
REMARK    3  A    between atoms: C_14  and  N_17
REMARK    4  A    between atoms: C_18  and  C_20
REMARK    5  A    between atoms: C_20  and  S_21
REMARK    6  A    between atoms: S_21  and  C_22
REMARK    7  A    between atoms: C_25  and  C_28
REMARK    8  A    between atoms: N_26  and  N_27
REMARK                            x       y       z     vdW  Elec       q    Type
REMARK                         _______ _______ _______ _____ _____    ______ ____
ROOT
ATOM      1  N   UNL     1      -5.056   7.441   0.088  0.00  0.00    -0.285 N 
ATOM      2  C   UNL     1      -4.739   8.747   0.194  0.00  0.00    +0.227 C 
ATOM      3  O   UNL     1      -3.576   9.091   0.186  0.00  0.00    -0.275 OA
ATOM      4  H   UNL     1      -5.986   7.172   0.018  0.00  0.00    +0.155 HD
ENDROOT
BRANCH   1   8
ATOM      5  C   UNL     1      -2.046   4.559   0.064  0.00  0.00    +0.007 A 
ATOM      6  C   UNL     1      -3.206   4.365  -0.688  0.00  0.00    +0.012 A 
ATOM      7  C   UNL     1      -4.202   5.317  -0.674  0.00  0.00    +0.024 A 
ATOM      8  C   UNL     1      -4.047   6.476   0.080  0.00  0.00    +0.033 A 
ATOM      9  C   UNL     1      -2.890   6.674   0.826  0.00  0.00    +0.024 A 
ATOM     10  C   UNL     1      -1.893   5.724   0.820  0.00  0.00    +0.012 A 
BRANCH   5  19
ATOM     11  C   UNL     1       3.589  -0.916  -0.032  0.00  0.00    +0.044 C 
ATOM     12  C   UNL     1       2.700   0.283   0.177  0.00  0.00    -0.049 A 
ATOM     13  C   UNL     1       3.108   1.323   1.001  0.00  0.00    +0.005 A 
ATOM     14  C   UNL     1       2.328   2.417   1.208  0.00  0.00    +0.029 A 
ATOM     15  C   UNL     1       1.062   2.535   0.586  0.00  0.00    +0.079 A 
ATOM     16  C   UNL     1       0.675   1.459  -0.247  0.00  0.00    +0.040 A 
ATOM     17  C   UNL     1       1.470   0.357  -0.450  0.00  0.00    +0.020 A 
ATOM     18  S   UNL     1      -0.925   1.979  -0.818  0.00  0.00    -0.067 S 
ATOM     19  C   UNL     1      -0.978   3.538   0.055  0.00  0.00    +0.109 A 
ATOM     20  N   UNL     1       0.174   3.542   0.691  0.00  0.00    -0.239 NA
ENDBRANCH   5  19
ENDBRANCH   1   8
BRANCH   2  21
ATOM     21  C   UNL     1      -5.829   9.780   0.323  0.00  0.00    +0.173 C 
BRANCH  21  22
ATOM     22  S   UNL     1      -5.089  11.427   0.445  0.00  0.00    -0.075 S 
BRANCH  22  23
ATOM     23  C   UNL     1      -6.546  12.408   0.582  0.00  0.00    +0.209 A 
ATOM     24  N   UNL     1      -7.784  11.971   0.585  0.00  0.00    -0.121 NA
ATOM     25  N   UNL     1      -8.596  12.960   0.701  0.00  0.00    -0.132 NA
ATOM     26  C   UNL     1      -7.931  14.078   0.778  0.00  0.00    +0.154 A 
ATOM     27  N   UNL     1      -6.601  13.766   0.711  0.00  0.00    -0.228 N 
BRANCH  26  28
ATOM     28  C   UNL     1      -8.518  15.458   0.920  0.00  0.00    +0.059 C 
ATOM     29  C   UNL     1      -9.339  15.533   2.209  0.00  0.00    +0.011 C 
ATOM     30  C   UNL     1      -9.935  16.934   2.354  0.00  0.00    +0.001 C 
ATOM     31  C   UNL     1     -10.839  17.230   1.156  0.00  0.00    +0.000 C 
ATOM     32  C   UNL     1     -10.019  17.156  -0.133  0.00  0.00    +0.001 C 
ATOM     33  C   UNL     1      -9.422  15.754  -0.278  0.00  0.00    +0.011 C 
ENDBRANCH  26  28
BRANCH  27  34
ATOM     34  N   UNL     1      -5.547  14.633   0.759  0.00  0.00    -0.295 N 
ATOM     35  H   UNL     1      -5.297  14.951  -0.166  0.00  0.00    +0.163 HD
ATOM     36  H   UNL     1      -5.748  15.413   1.367  0.00  0.00    +0.163 HD
ENDBRANCH  27  34
ENDBRANCH  22  23
ENDBRANCH  21  22
ENDBRANCH   2  21
TORSDOF 7
