REMARK  Name = ZINC08993809
REMARK  15 active torsions:
REMARK  status: ('A' for Active; 'I' for Inactive)
REMARK    1  A    between atoms: C_1  and  C_2
REMARK    2  A    between atoms: C_2  and  C_3
REMARK    3  A    between atoms: C_3  and  C_4
REMARK    4  A    between atoms: C_4  and  N_5
REMARK    5  A    between atoms: C_6  and  C_25
REMARK    6  A    between atoms: C_9  and  S_10
REMARK    7  A    between atoms: S_10  and  C_11
REMARK    8  A    between atoms: C_11  and  C_12
REMARK    9  A    between atoms: C_18  and  C_24
REMARK   10  A    between atoms: C_19  and  C_23
REMARK   11  A    between atoms: C_25  and  C_27
REMARK   12  A    between atoms: C_25  and  N_59
REMARK   13  A    between atoms: C_27  and  C_28
REMARK   14  A    between atoms: C_29  and  N_59
REMARK   15  A    between atoms: C_30  and  N_59
REMARK                            x       y       z     vdW  Elec       q    Type
REMARK                         _______ _______ _______ _____ _____    ______ ____
ROOT
ATOM      1  N   UNL     1      -1.681  -1.181  -1.717  0.00  0.00    -0.307 N 
ATOM      2  C   UNL     1      -1.331  -0.622  -0.519  0.00  0.00    +0.120 A 
ATOM      3  N   UNL     1      -2.361  -0.727   0.274  0.00  0.00    -0.135 NA
ATOM      4  N   UNL     1      -3.333  -1.301  -0.340  0.00  0.00    -0.123 NA
ATOM      5  C   UNL     1      -2.970  -1.605  -1.564  0.00  0.00    +0.192 A 
ENDROOT
BRANCH   1   6
ATOM      6  C   UNL     1      -0.846  -1.300  -2.915  0.00  0.00    +0.125 C 
BRANCH   6   7
ATOM      7  C   UNL     1      -0.079  -2.623  -2.872  0.00  0.00    +0.021 C 
BRANCH   7   9
ATOM      8  C   UNL     1       1.559  -4.071  -4.081  0.00  0.00    +0.004 C 
ATOM      9  C   UNL     1       0.792  -2.748  -4.123  0.00  0.00    -0.002 C 
ENDBRANCH   7   9
ENDBRANCH   6   7
ENDBRANCH   1   6
BRANCH   5  10
ATOM     10  S   UNL     1      -3.959  -2.409  -2.781  0.00  0.00    -0.078 S 
BRANCH  10  11
ATOM     11  C   UNL     1      -5.488  -2.640  -1.841  0.00  0.00    +0.151 C 
BRANCH  11  12
ATOM     12  C   UNL     1      -6.511  -3.330  -2.707  0.00  0.00    +0.121 A 
ATOM     13  N   UNL     1      -7.738  -3.609  -2.196  0.00  0.00    -0.310 N 
ATOM     14  H   UNL     1      -7.939  -3.360  -1.280  0.00  0.00    +0.170 HD
ATOM     15  C   UNL     1      -8.682  -4.218  -2.936  0.00  0.00    +0.260 A 
ATOM     16  O   UNL     1      -9.780  -4.457  -2.464  0.00  0.00    -0.267 OA
ATOM     17  C   UNL     1      -8.374  -4.588  -4.286  0.00  0.00    +0.075 A 
ATOM     18  C   UNL     1      -9.207  -5.250  -5.272  0.00  0.00    -0.026 A 
ATOM     19  C   UNL     1      -8.706  -5.500  -6.492  0.00  0.00    -0.008 A 
ATOM     20  S   UNL     1      -7.048  -4.851  -6.398  0.00  0.00    -0.073 S 
ATOM     21  C   UNL     1      -7.078  -4.263  -4.724  0.00  0.00    +0.116 A 
ATOM     22  N   UNL     1      -6.200  -3.653  -3.933  0.00  0.00    -0.226 NA
ATOM     23  C   UNL     1      -9.382  -6.170  -7.661  0.00  0.00    +0.052 C 
ATOM     24  C   UNL     1     -10.619  -5.653  -4.931  0.00  0.00    +0.045 C 
ENDBRANCH  11  12
ENDBRANCH  10  11
ENDBRANCH   5  10
BRANCH   2  25
ATOM     25  C   UNL     1      -0.000  -0.004  -0.176  0.00  0.00    +0.000 C 
BRANCH  25  28
ATOM     26  C   UNL     1      -0.421  -0.481   2.160  0.00  0.00    -0.096 C 
ATOM     27  C   UNL     1       0.863  -2.035   0.820  0.00  0.00    -0.096 C 
ATOM     28  N   UNL     1       0.551  -0.610   1.054  0.00  0.00    +0.383 N 
ATOM     29  H   UNL     1       1.415  -0.117   1.311  0.00  0.00    -0.082 HD
ENDBRANCH  25  28
BRANCH  25  30
ATOM     30  C   UNL     1      -0.178   1.499   0.049  0.00  0.00    -0.011 C 
ATOM     31  C   UNL     1       1.189   2.143   0.291  0.00  0.00    +0.002 C 
ENDBRANCH  25  30
ENDBRANCH   2  25
TORSDOF 9
