REMARK  Name = ZINC19316455
REMARK  10 active torsions:
REMARK  status: ('A' for Active; 'I' for Inactive)
REMARK    1  A    between atoms: C_1  and  C_2
REMARK    2  A    between atoms: C_2  and  N_3
REMARK    3  A    between atoms: N_3  and  C_4
REMARK    4  A    between atoms: C_4  and  C_5
REMARK    5  A    between atoms: C_16  and  C_18
REMARK    6  A    between atoms: C_18  and  S_19
REMARK    7  A    between atoms: S_19  and  C_20
REMARK    8  A    between atoms: C_23  and  C_33
REMARK    9  A    between atoms: C_24  and  C_26
REMARK   10  A    between atoms: C_26  and  C_27
REMARK                            x       y       z     vdW  Elec       q    Type
REMARK                         _______ _______ _______ _____ _____    ______ ____
ROOT
ATOM      1  N   UNL     1      -0.191   8.015  -0.714  0.00  0.00    -0.297 N 
ATOM      2  C   UNL     1       1.083   8.076  -0.277  0.00  0.00    +0.226 C 
ATOM      3  O   UNL     1       1.386   7.564   0.780  0.00  0.00    -0.275 OA
ENDROOT
BRANCH   1   5
ATOM      4  C   UNL     1      -0.979  10.084  -1.752  0.00  0.00    +0.024 C 
ATOM      5  C   UNL     1      -0.558   8.633  -1.990  0.00  0.00    +0.104 C 
ENDBRANCH   1   5
BRANCH   1   6
ATOM      6  C   UNL     1      -1.208   7.331   0.088  0.00  0.00    +0.155 C 
BRANCH   6   7
ATOM      7  C   UNL     1      -1.270   5.856  -0.315  0.00  0.00    +0.228 C 
ATOM      8  C   UNL     1      -2.417   5.163   0.432  0.00  0.00    +0.275 C 
ATOM      9  O   UNL     1      -2.437   3.785   0.043  0.00  0.00    -0.485 OA
ATOM     10  C   UNL     1      -1.241   3.136   0.031  0.00  0.00    +0.162 A 
ATOM     11  C   UNL     1      -1.219   1.749   0.017  0.00  0.00    +0.049 A 
ATOM     12  C   UNL     1      -0.013   1.076   0.008  0.00  0.00    +0.004 A 
ATOM     13  C   UNL     1       1.176   1.782   0.000  0.00  0.00    +0.004 A 
ATOM     14  C   UNL     1       1.161   3.164   0.009  0.00  0.00    +0.049 A 
ATOM     15  C   UNL     1      -0.046   3.846   0.026  0.00  0.00    +0.163 A 
ATOM     16  O   UNL     1      -0.045   5.207   0.043  0.00  0.00    -0.480 OA
ENDBRANCH   6   7
ENDBRANCH   1   6
BRANCH   2  17
ATOM     17  C   UNL     1       2.129   8.779  -1.102  0.00  0.00    +0.173 C 
BRANCH  17  18
ATOM     18  S   UNL     1       3.726   8.690  -0.254  0.00  0.00    -0.079 S 
BRANCH  18  19
ATOM     19  C   UNL     1       4.733   9.564  -1.406  0.00  0.00    +0.167 A 
ATOM     20  N   UNL     1       6.065   9.812  -1.272  0.00  0.00    -0.337 N 
ATOM     21  H   UNL     1       6.603   9.456  -0.381  0.00  0.00    +0.168 HD
ATOM     22  C   UNL     1       6.458  10.515  -2.388  0.00  0.00    +0.037 A 
ATOM     23  C   UNL     1       5.365  10.679  -3.153  0.00  0.00    +0.067 A 
ATOM     24  N   UNL     1       4.325  10.092  -2.537  0.00  0.00    -0.226 NA
ATOM     25  C   UNL     1       7.848  11.012  -2.692  0.00  0.00    +0.065 C 
BRANCH  23  26
ATOM     26  C   UNL     1       5.314  11.398  -4.476  0.00  0.00    +0.092 C 
BRANCH  26  27
ATOM     27  C   UNL     1       5.008  12.855  -4.244  0.00  0.00    -0.042 A 
ATOM     28  C   UNL     1       3.697  13.292  -4.225  0.00  0.00    +0.004 A 
ATOM     29  C   UNL     1       3.416  14.628  -4.008  0.00  0.00    +0.000 A 
ATOM     30  C   UNL     1       4.447  15.529  -3.820  0.00  0.00    +0.000 A 
ATOM     31  C   UNL     1       5.759  15.094  -3.844  0.00  0.00    +0.000 A 
ATOM     32  C   UNL     1       6.040  13.757  -4.056  0.00  0.00    +0.004 A 
ENDBRANCH  26  27
ENDBRANCH  23  26
ENDBRANCH  18  19
ENDBRANCH  17  18
ENDBRANCH   2  17
TORSDOF 8
