REMARK  Name = ZINC02127726
REMARK  14 active torsions:
REMARK  status: ('A' for Active; 'I' for Inactive)
REMARK    1  A    between atoms: C_1  and  C_2
REMARK    2  A    between atoms: C_2  and  O_3
REMARK    3  A    between atoms: O_3  and  C_4
REMARK    4  A    between atoms: C_5  and  C_12
REMARK    5  A    between atoms: C_9  and  O_10
REMARK    6  A    between atoms: O_10  and  C_11
REMARK    7  A    between atoms: N_19  and  C_34
REMARK    8  A    between atoms: C_22  and  C_33
REMARK    9  A    between atoms: C_34  and  C_35
REMARK   10  A    between atoms: C_35  and  C_36
REMARK   11  A    between atoms: C_36  and  O_37
REMARK   12  A    between atoms: O_37  and  C_38
REMARK   13  A    between atoms: C_38  and  C_39
REMARK   14  A    between atoms: C_38  and  C_40
REMARK                            x       y       z     vdW  Elec       q    Type
REMARK                         _______ _______ _______ _____ _____    ______ ____
ROOT
ATOM      1  C   UNL     1      -1.450   2.814  -1.306  0.00  0.00    +0.072 C 
ATOM      2  C   UNL     1      -1.313   2.034   0.006  0.00  0.00    +0.122 C 
ATOM      3  N   UNL     1      -0.016   1.331   0.009  0.00  0.00    -0.280 N 
ATOM      4  C   UNL     1       0.002  -0.004   0.002  0.00  0.00    +0.234 C 
ATOM      5  O   UNL     1      -1.050  -0.587   0.157  0.00  0.00    -0.274 OA
ATOM      6  C   UNL     1       1.236  -0.827  -0.185  0.00  0.00    +0.203 C 
ATOM      7  N   UNL     1       2.415  -0.005  -0.403  0.00  0.00    -0.291 N 
ATOM      8  C   UNL     1       2.413   1.326  -0.324  0.00  0.00    +0.245 C 
ATOM      9  O   UNL     1       3.455   1.911  -0.528  0.00  0.00    -0.273 OA
ATOM     10  C   UNL     1       1.204   2.138   0.002  0.00  0.00    +0.151 C 
ATOM     11  C   UNL     1       1.027   3.250  -1.005  0.00  0.00    +0.054 A 
ATOM     12  C   UNL     1      -0.160   3.545  -1.580  0.00  0.00    -0.008 A 
ATOM     13  C   UNL     1       0.070   4.660  -2.477  0.00  0.00    +0.004 A 
ATOM     14  C   UNL     1      -0.773   5.381  -3.328  0.00  0.00    +0.010 A 
ATOM     15  C   UNL     1      -0.203   6.402  -4.047  0.00  0.00    +0.001 A 
ATOM     16  C   UNL     1       1.143   6.713  -3.942  0.00  0.00    +0.002 A 
ATOM     17  C   UNL     1       2.000   6.016  -3.108  0.00  0.00    +0.026 A 
ATOM     18  C   UNL     1       1.449   4.973  -2.367  0.00  0.00    +0.047 A 
ATOM     19  N   UNL     1       1.994   4.099  -1.471  0.00  0.00    -0.356 N 
ATOM     20  H   UNL     1       2.927   4.082  -1.204  0.00  0.00    +0.166 HD
ATOM     21  C   UNL     1       1.388   2.768   1.384  0.00  0.00    +0.048 C 
ENDROOT
BRANCH   1  23
ATOM     22  C   UNL     1      -3.654   3.740  -2.055  0.00  0.00    +0.166 A 
ATOM     23  C   UNL     1      -2.576   3.808  -1.187  0.00  0.00    +0.007 A 
ATOM     24  C   UNL     1      -2.538   4.783  -0.208  0.00  0.00    +0.008 A 
ATOM     25  C   UNL     1      -3.567   5.699  -0.100  0.00  0.00    +0.004 A 
ATOM     26  C   UNL     1      -4.646   5.637  -0.962  0.00  0.00    +0.049 A 
ATOM     27  C   UNL     1      -4.693   4.659  -1.942  0.00  0.00    +0.162 A 
BRANCH  27  28
ATOM     28  O   UNL     1      -5.754   4.596  -2.792  0.00  0.00    -0.491 OA
ATOM     29  C   UNL     1      -6.783   5.572  -2.617  0.00  0.00    +0.277 C 
ENDBRANCH  27  28
BRANCH  22  30
ATOM     30  O   UNL     1      -3.696   2.778  -3.016  0.00  0.00    -0.488 OA
BRANCH  30  32
ATOM     31  C   UNL     1      -4.270   0.590  -3.866  0.00  0.00    +0.048 C 
ATOM     32  C   UNL     1      -4.318   1.540  -2.667  0.00  0.00    +0.226 C 
ENDBRANCH  30  32
ENDBRANCH  22  30
ENDBRANCH   1  23
BRANCH   7  33
ATOM     33  C   UNL     1       3.675  -0.677  -0.727  0.00  0.00    +0.110 C 
BRANCH  33  34
ATOM     34  C   UNL     1       3.797  -0.828  -2.245  0.00  0.00    +0.047 C 
BRANCH  34  35
ATOM     35  C   UNL     1       5.113  -1.530  -2.584  0.00  0.00    +0.161 C 
BRANCH  35  36
ATOM     36  O   UNL     1       5.227  -1.671  -4.002  0.00  0.00    -0.377 OA
BRANCH  36  37
ATOM     37  C   UNL     1       6.428  -2.317  -4.427  0.00  0.00    +0.112 C 
ATOM     38  C   UNL     1       6.194  -3.828  -4.504  0.00  0.00    +0.037 C 
ATOM     39  C   UNL     1       6.829  -1.792  -5.807  0.00  0.00    +0.037 C 
ENDBRANCH  36  37
ENDBRANCH  35  36
ENDBRANCH  34  35
ENDBRANCH  33  34
ENDBRANCH   7  33
TORSDOF 9
