REMARK  Name = ZINC35271579
REMARK  9 active torsions:
REMARK  status: ('A' for Active; 'I' for Inactive)
REMARK    1  A    between atoms: C_1  and  C_2
REMARK    2  A    between atoms: C_10  and  O_16
REMARK    3  A    between atoms: C_14  and  C_15
REMARK    4  A    between atoms: O_16  and  C_17
REMARK    5  A    between atoms: C_19  and  O_32
REMARK    6  A    between atoms: C_21  and  O_31
REMARK    7  A    between atoms: C_23  and  O_30
REMARK    8  A    between atoms: C_25  and  C_28
REMARK    9  A    between atoms: C_28  and  O_29
REMARK                            x       y       z     vdW  Elec       q    Type
REMARK                         _______ _______ _______ _____ _____    ______ ____
ROOT
ATOM      1  C   UNL     1      -1.521   0.024   4.090  0.00  0.00    +0.286 C 
ATOM      2  C   UNL     1      -2.070   1.347   4.630  0.00  0.00    +0.201 C 
ATOM      3  C   UNL     1      -3.028   1.057   5.790  0.00  0.00    +0.179 C 
ATOM      4  C   UNL     1      -4.139   0.123   5.299  0.00  0.00    +0.177 C 
ATOM      5  C   UNL     1      -3.510  -1.152   4.732  0.00  0.00    +0.178 C 
ATOM      6  O   UNL     1      -2.607  -0.809   3.679  0.00  0.00    -0.340 OA
ENDROOT
BRANCH   4   7
ATOM      7  O   UNL     1      -4.999  -0.211   6.390  0.00  0.00    -0.386 OA
ATOM      8  H   UNL     1      -5.429   0.552   6.800  0.00  0.00    +0.210 HD
ENDBRANCH   4   7
BRANCH   3   9
ATOM      9  O   UNL     1      -3.601   2.281   6.254  0.00  0.00    -0.386 OA
ATOM     10  H   UNL     1      -2.952   2.922   6.574  0.00  0.00    +0.210 HD
ENDBRANCH   3   9
BRANCH   2  11
ATOM     11  O   UNL     1      -0.990   2.159   5.093  0.00  0.00    -0.384 OA
ATOM     12  H   UNL     1      -0.341   2.378   4.410  0.00  0.00    +0.210 HD
ENDBRANCH   2  11
BRANCH   1  13
ATOM     13  O   UNL     1      -0.670   0.283   2.971  0.00  0.00    -0.310 OA
BRANCH  13  20
ATOM     14  C   UNL     1      -0.019   1.526   0.010  0.00  0.00    +0.008 C 
ATOM     15  C   UNL     1       0.002  -0.004   0.002  0.00  0.00    -0.005 C 
ATOM     16  C   UNL     1       0.787  -0.526  -1.231  0.00  0.00    +0.004 C 
ATOM     17  C   UNL     1       1.921  -1.434  -0.674  0.00  0.00    +0.009 C 
ATOM     18  C   UNL     1       1.366  -1.866   0.682  0.00  0.00    +0.027 C 
ATOM     19  C   UNL     1       0.765  -0.529   1.208  0.00  0.00    +0.068 C 
ATOM     20  C   UNL     1      -0.014  -0.879   2.459  0.00  0.00    +0.313 C 
ATOM     21  O   UNL     1       0.956  -1.363   3.409  0.00  0.00    -0.471 OA
ATOM     22  C   UNL     1       2.036  -2.053   2.988  0.00  0.00    +0.189 C 
ATOM     23  C   UNL     1       2.324  -2.345   1.717  0.00  0.00    -0.035 C 
ATOM     24  C   UNL     1       3.564  -3.114   1.337  0.00  0.00    +0.042 C 
ENDBRANCH  13  20
ENDBRANCH   1  13
BRANCH   5  25
ATOM     25  C   UNL     1      -4.610  -2.064   4.186  0.00  0.00    +0.190 C 
BRANCH  25  26
ATOM     26  O   UNL     1      -4.035  -3.303   3.764  0.00  0.00    -0.392 OA
ATOM     27  H   UNL     1      -4.676  -3.932   3.405  0.00  0.00    +0.210 HD
ENDBRANCH  25  26
ENDBRANCH   5  25
TORSDOF 7
