REMARK  Name = ZINC04877925
REMARK  11 active torsions:
REMARK  status: ('A' for Active; 'I' for Inactive)
REMARK    1  A    between atoms: C_1  and  C_2
REMARK    2  A    between atoms: C_5  and  C_8
REMARK    3  A    between atoms: C_14  and  C_16
REMARK    4  A    between atoms: C_16  and  C_18
REMARK    5  A    between atoms: C_16  and  N_21
REMARK    6  A    between atoms: C_18  and  C_19
REMARK    7  A    between atoms: C_18  and  C_20
REMARK    8  A    between atoms: C_22  and  C_24
REMARK    9  A    between atoms: C_24  and  C_25
REMARK   10  A    between atoms: C_25  and  C_26
REMARK   11  A    between atoms: C_25  and  C_27
REMARK                            x       y       z     vdW  Elec       q    Type
REMARK                         _______ _______ _______ _____ _____    ______ ____
ROOT
ATOM      1  C   UNL     1       2.532  -0.089   6.093  0.00  0.00    +0.134 A 
ATOM      2  N   UNL     1       2.230   1.180   5.845  0.00  0.00    -0.140 NA
ATOM      3  N   UNL     1       1.534   1.485   4.836  0.00  0.00    -0.125 NA
ATOM      4  C   UNL     1       1.072   0.568   4.001  0.00  0.00    +0.188 A 
ATOM      5  S   UNL     1       1.706  -0.884   4.719  0.00  0.00    -0.030 S 
ATOM      6  N   UNL     1       0.296   0.723   2.859  0.00  0.00    -0.262 N 
ATOM      7  C   UNL     1      -0.094   1.954   2.472  0.00  0.00    +0.239 C 
ATOM      8  O   UNL     1       0.150   2.915   3.170  0.00  0.00    -0.273 OA
ATOM      9  H   UNL     1       0.036  -0.054   2.340  0.00  0.00    +0.157 HD
ENDROOT
BRANCH   1  14
ATOM     10  C   UNL     1       5.623  -2.381  10.371  0.00  0.00    +0.044 C 
ATOM     11  C   UNL     1       4.814  -1.780   9.251  0.00  0.00    -0.050 A 
ATOM     12  C   UNL     1       4.626  -0.411   9.193  0.00  0.00    +0.004 A 
ATOM     13  C   UNL     1       3.886   0.145   8.170  0.00  0.00    +0.011 A 
ATOM     14  C   UNL     1       3.326  -0.678   7.192  0.00  0.00    +0.009 A 
ATOM     15  C   UNL     1       3.514  -2.059   7.259  0.00  0.00    +0.011 A 
ATOM     16  C   UNL     1       4.260  -2.602   8.284  0.00  0.00    +0.004 A 
ENDBRANCH   1  14
BRANCH   7  17
ATOM     17  C   UNL     1      -0.835   2.135   1.172  0.00  0.00    +0.162 C 
BRANCH  17  18
ATOM     18  N   UNL     1      -1.607   3.379   1.219  0.00  0.00    -0.304 N 
ATOM     19  C   UNL     1      -2.702   3.522   0.447  0.00  0.00    +0.214 C 
ATOM     20  O   UNL     1      -3.048   2.622  -0.288  0.00  0.00    -0.276 OA
ATOM     21  H   UNL     1      -1.331   4.099   1.807  0.00  0.00    +0.149 HD
BRANCH  19  22
ATOM     22  C   UNL     1      -3.497   4.802   0.495  0.00  0.00    +0.098 C 
BRANCH  22  23
ATOM     23  C   UNL     1      -4.679   4.705  -0.470  0.00  0.00    -0.008 C 
ATOM     24  C   UNL     1      -5.640   3.614   0.008  0.00  0.00    +0.008 C 
ATOM     25  C   UNL     1      -5.413   6.047  -0.514  0.00  0.00    +0.008 C 
ENDBRANCH  22  23
ENDBRANCH  19  22
ENDBRANCH  17  18
BRANCH  17  26
ATOM     26  C   UNL     1       0.168   2.201   0.018  0.00  0.00    +0.012 C 
ATOM     27  C   UNL     1       1.026   3.459   0.160  0.00  0.00    +0.009 C 
ATOM     28  C   UNL     1      -0.587   2.246  -1.312  0.00  0.00    +0.009 C 
ENDBRANCH  17  26
ENDBRANCH   7  17
TORSDOF 6
