REMARK  Name = ZINC20764082
REMARK  7 active torsions:
REMARK  status: ('A' for Active; 'I' for Inactive)
REMARK    1  A    between atoms: C_1  and  C_2
REMARK    2  A    between atoms: C_2  and  O_3
REMARK    3  A    between atoms: O_3  and  C_4
REMARK    4  A    between atoms: C_8  and  C_11
REMARK    5  A    between atoms: C_9  and  O_10
REMARK    6  A    between atoms: C_14  and  C_27
REMARK    7  A    between atoms: C_16  and  C_19
REMARK                            x       y       z     vdW  Elec       q    Type
REMARK                         _______ _______ _______ _____ _____    ______ ____
ROOT
ATOM      1  C   UNL     1       4.725   1.083  -0.921  0.00  0.00    -0.028 C 
ATOM      2  C   UNL     1       4.421  -0.040  -1.918  0.00  0.00    +0.044 C 
ATOM      3  C   UNL     1       3.148  -0.734  -1.518  0.00  0.00    +0.040 C 
ATOM      4  N   UNL     1       2.313  -0.237  -0.684  0.00  0.00    -0.299 NA
ATOM      5  C   UNL     1       2.490   1.046  -0.016  0.00  0.00    +0.081 C 
ATOM      6  N   UNL     1       3.491   1.861  -0.714  0.00  0.00    +0.401 N 
ATOM      7  H   UNL     1       3.717   2.751  -0.109  0.00  0.00    -0.081 HD
ATOM      8  H   UNL     1       3.087   2.172  -1.688  0.00  0.00    -0.081 HD
ENDROOT
BRANCH   3   9
ATOM      9  C   UNL     1       2.849  -2.049  -2.113  0.00  0.00    -0.001 A 
ATOM     10  C   UNL     1       3.737  -2.624  -3.026  0.00  0.00    +0.013 A 
ATOM     11  C   UNL     1       3.455  -3.853  -3.581  0.00  0.00    +0.050 A 
ATOM     12  C   UNL     1       2.290  -4.525  -3.236  0.00  0.00    +0.166 A 
ATOM     13  C   UNL     1       1.399  -3.957  -2.325  0.00  0.00    +0.167 A 
ATOM     14  C   UNL     1       1.679  -2.727  -1.761  0.00  0.00    +0.059 A 
ATOM     15  O   UNL     1       0.345  -4.809  -2.158  0.00  0.00    -0.453 OA
ATOM     16  C   UNL     1       0.398  -5.710  -3.280  0.00  0.00    +0.466 C 
ATOM     17  O   UNL     1       1.793  -5.730  -3.637  0.00  0.00    -0.453 OA
ENDBRANCH   3   9
BRANCH   5  18
ATOM     18  C   UNL     1       1.175   1.783   0.000  0.00  0.00    -0.039 A 
ATOM     19  C   UNL     1       1.158   3.166   0.009  0.00  0.00    +0.006 A 
ATOM     20  C   UNL     1      -0.047   3.842   0.024  0.00  0.00    +0.040 A 
ATOM     21  C   UNL     1      -1.238   3.136   0.031  0.00  0.00    +0.137 A 
ATOM     22  C   UNL     1      -1.220   1.751   0.017  0.00  0.00    +0.053 A 
ATOM     23  C   UNL     1      -0.013   1.076   0.008  0.00  0.00    +0.022 A 
ATOM     24 BR   UNL     1      -2.845   0.783   0.020  0.00  0.00    -0.047 Br
ATOM     25  F   UNL     1      -2.416   3.797   0.045  0.00  0.00    -0.204 F 
ENDBRANCH   5  18
BRANCH   1  30
ATOM     26  C   UNL     1       8.128   2.435  -1.882  0.00  0.00    +0.162 A 
ATOM     27  C   UNL     1       7.781   3.627  -2.498  0.00  0.00    +0.049 A 
ATOM     28  C   UNL     1       6.452   3.991  -2.602  0.00  0.00    +0.004 A 
ATOM     29  C   UNL     1       5.465   3.166  -2.096  0.00  0.00    +0.006 A 
ATOM     30  C   UNL     1       5.803   1.978  -1.476  0.00  0.00    -0.016 A 
ATOM     31  C   UNL     1       7.134   1.607  -1.369  0.00  0.00    +0.160 A 
BRANCH  31  32
ATOM     32  O   UNL     1       7.469   0.436  -0.763  0.00  0.00    -0.503 OA
ATOM     33  H   UNL     1       6.683  -0.217  -0.357  0.00  0.00    +0.292 HD
ENDBRANCH  31  32
BRANCH  26  34
ATOM     34  O   UNL     1       9.435   2.075  -1.780  0.00  0.00    -0.489 OA
BRANCH  34  36
ATOM     35  C   UNL     1      11.805   2.405  -2.121  0.00  0.00    +0.048 C 
ATOM     36  C   UNL     1      10.400   2.975  -2.330  0.00  0.00    +0.226 C 
ENDBRANCH  34  36
ENDBRANCH  26  34
ENDBRANCH   1  30
TORSDOF 6
