REMARK  Name = ZINC04512306
REMARK  5 active torsions:
REMARK  status: ('A' for Active; 'I' for Inactive)
REMARK    1  A    between atoms: C_1  and  C_2
REMARK    2  A    between atoms: C_2  and  C_3
REMARK    3  A    between atoms: C_3  and  C_4
REMARK    4  A    between atoms: C_9  and  N_10
REMARK    5  A    between atoms: C_11  and  C_13
REMARK                            x       y       z     vdW  Elec       q    Type
REMARK                         _______ _______ _______ _____ _____    ______ ____
ROOT
ATOM      1  N   UNL     1      -2.112   5.794  -0.958  0.00  0.00    -0.285 N 
ATOM      2  C   UNL     1      -1.513   5.122   0.045  0.00  0.00    +0.223 C 
ATOM      3  O   UNL     1      -0.982   5.731   0.950  0.00  0.00    -0.275 OA
ATOM      4  H   UNL     1      -2.467   5.311  -1.721  0.00  0.00    +0.155 HD
ENDROOT
BRANCH   2   5
ATOM      5  C   UNL     1      -1.503   3.615   0.043  0.00  0.00    +0.048 C 
ATOM      6  C   UNL     1      -0.792   3.112  -1.215  0.00  0.00    +0.019 C 
ATOM      7  C   UNL     1      -0.782   1.582  -1.218  0.00  0.00    -0.009 C 
ATOM      8  C   UNL     1      -0.043   1.075   0.022  0.00  0.00    +0.007 C 
ATOM      9  C   UNL     1      -0.754   1.578   1.281  0.00  0.00    -0.009 C 
ATOM     10  C   UNL     1      -0.764   3.108   1.283  0.00  0.00    +0.019 C 
ATOM     11  C   UNL     1      -2.193   1.059   1.296  0.00  0.00    +0.007 C 
ATOM     12  C   UNL     1      -2.932   1.566   0.056  0.00  0.00    -0.009 C 
ATOM     13  C   UNL     1      -2.221   1.063  -1.202  0.00  0.00    +0.007 C 
ATOM     14  C   UNL     1      -2.942   3.096   0.058  0.00  0.00    +0.019 C 
ENDBRANCH   2   5
BRANCH   1  20
ATOM     15  C   UNL     1      -2.339   7.927  -2.068  0.00  0.00    -0.022 A 
ATOM     16  C   UNL     1      -2.455   9.303  -2.011  0.00  0.00    +0.055 A 
ATOM     17  C   UNL     1      -2.444   9.951  -0.787  0.00  0.00    +0.167 A 
ATOM     18  C   UNL     1      -2.323   9.214   0.389  0.00  0.00    +0.168 A 
ATOM     19  C   UNL     1      -2.213   7.835   0.331  0.00  0.00    +0.073 A 
ATOM     20  C   UNL     1      -2.224   7.189  -0.898  0.00  0.00    +0.040 A 
ATOM     21  O   UNL     1      -2.338  10.076   1.448  0.00  0.00    -0.453 OA
ATOM     22  C   UNL     1      -2.879  11.307   0.934  0.00  0.00    +0.466 C 
ATOM     23  O   UNL     1      -2.535  11.275  -0.464  0.00  0.00    -0.453 OA
BRANCH  15  24
ATOM     24  C   UNL     1      -2.344   7.226  -3.402  0.00  0.00    +0.037 C 
BRANCH  24  26
ATOM     25  C   UNL     1      -3.769   6.049  -5.083  0.00  0.00    +0.004 C 
ATOM     26  C   UNL     1      -3.764   6.761  -3.729  0.00  0.00    +0.001 C 
ENDBRANCH  24  26
ENDBRANCH  15  24
ENDBRANCH   1  20
TORSDOF 4
