REMARK  Name = ZINC44225254
REMARK  8 active torsions:
REMARK  status: ('A' for Active; 'I' for Inactive)
REMARK    1  A    between atoms: C_1  and  C_2
REMARK    2  A    between atoms: C_5  and  S_8
REMARK    3  A    between atoms: S_8  and  N_11
REMARK    4  A    between atoms: C_16  and  C_18
REMARK    5  A    between atoms: C_18  and  C_19
REMARK    6  A    between atoms: C_19  and  N_20
REMARK    7  A    between atoms: N_20  and  S_21
REMARK    8  A    between atoms: S_21  and  C_24
REMARK                            x       y       z     vdW  Elec       q    Type
REMARK                         _______ _______ _______ _____ _____    ______ ____
ROOT
ATOM      1  N   UNL     1       1.699  -4.888  -0.169  0.00  0.00    -0.173 NA
ATOM      2  C   UNL     1       2.346  -4.989  -1.484  0.00  0.00    +0.110 C 
ATOM      3  C   UNL     1       3.712  -4.298  -1.416  0.00  0.00    +0.017 C 
ATOM      4  C   UNL     1       4.526  -4.898  -0.267  0.00  0.00    +0.003 C 
ATOM      5  C   UNL     1       3.796  -4.658   1.056  0.00  0.00    +0.021 C 
ATOM      6  C   UNL     1       2.434  -5.347   1.017  0.00  0.00    +0.081 C 
ENDROOT
BRANCH   1   7
ATOM      7  S   UNL     1       0.172  -4.262  -0.026  0.00  0.00    +0.061 S 
ATOM      8  O   UNL     1      -0.442  -4.935   1.064  0.00  0.00    -0.153 OA
ATOM      9  O   UNL     1      -0.388  -4.257  -1.332  0.00  0.00    -0.153 OA
BRANCH   7  14
ATOM     10  C   UNL     1       0.756   1.513   1.621  0.00  0.00    +0.044 C 
ATOM     11  C   UNL     1       0.610   0.070   1.210  0.00  0.00    -0.050 A 
ATOM     12  C   UNL     1       0.735  -0.285  -0.120  0.00  0.00    +0.005 A 
ATOM     13  C   UNL     1       0.602  -1.608  -0.498  0.00  0.00    +0.029 A 
ATOM     14  C   UNL     1       0.344  -2.576   0.455  0.00  0.00    +0.106 A 
ATOM     15  C   UNL     1       0.220  -2.221   1.785  0.00  0.00    +0.029 A 
ATOM     16  C   UNL     1       0.358  -0.898   2.163  0.00  0.00    +0.005 A 
ENDBRANCH   7  14
ENDBRANCH   1   7
BRANCH   6  17
ATOM     17  C   UNL     1       1.645  -4.992   2.279  0.00  0.00    +0.037 C 
BRANCH  17  18
ATOM     18  C   UNL     1       2.481  -5.329   3.515  0.00  0.00    +0.107 C 
BRANCH  18  19
ATOM     19  N   UNL     1       1.764  -4.903   4.720  0.00  0.00    -0.190 NA
ATOM     20  H   UNL     1       1.013  -4.294   4.647  0.00  0.00    +0.148 HD
BRANCH  19  21
ATOM     21  S   UNL     1       2.238  -5.460   6.205  0.00  0.00    +0.060 S 
ATOM     22  O   UNL     1       1.377  -4.854   7.160  0.00  0.00    -0.153 OA
ATOM     23  O   UNL     1       2.371  -6.870   6.087  0.00  0.00    -0.153 OA
BRANCH  21  24
ATOM     24  C   UNL     1       3.853  -4.826   6.510  0.00  0.00    +0.123 A 
ATOM     25  C   UNL     1       4.974  -5.539   6.110  0.00  0.00    +0.031 A 
ATOM     26  C   UNL     1       6.225  -5.001   6.370  0.00  0.00    +0.022 A 
ATOM     27  C   UNL     1       6.313  -3.781   7.014  0.00  0.00    +0.111 A 
ATOM     28  N   UNL     1       5.226  -3.132   7.380  0.00  0.00    -0.261 NA
ATOM     29  C   UNL     1       4.019  -3.610   7.144  0.00  0.00    +0.139 A 
ENDBRANCH  21  24
ENDBRANCH  19  21
ENDBRANCH  18  19
ENDBRANCH  17  18
ENDBRANCH   6  17
TORSDOF 7
