REMARK  Name = ZINC21256838
REMARK  9 active torsions:
REMARK  status: ('A' for Active; 'I' for Inactive)
REMARK    1  A    between atoms: C_1  and  C_2
REMARK    2  A    between atoms: C_2  and  O_3
REMARK    3  A    between atoms: O_3  and  C_4
REMARK    4  A    between atoms: C_9  and  C_10
REMARK    5  A    between atoms: C_15  and  C_20
REMARK    6  A    between atoms: C_23  and  O_26
REMARK    7  A    between atoms: O_26  and  C_27
REMARK    8  A    between atoms: C_27  and  C_28
REMARK    9  A    between atoms: C_27  and  C_29
REMARK                            x       y       z     vdW  Elec       q    Type
REMARK                         _______ _______ _______ _____ _____    ______ ____
ROOT
ATOM      1  C   UNL     1      -1.333   5.617   0.281  0.00  0.00    +0.139 C 
ATOM      2  C   UNL     1      -0.993   6.018   1.697  0.00  0.00    +0.037 C 
ATOM      3  C   UNL     1      -1.874   6.329   2.661  0.00  0.00    +0.017 C 
ATOM      4  C   UNL     1      -1.392   6.675   4.060  0.00  0.00    +0.059 C 
ATOM      5  C   UNL     1      -0.043   7.388   3.983  0.00  0.00    +0.032 C 
ATOM      6  C   UNL     1       0.949   6.439   3.301  0.00  0.00    +0.088 C 
ATOM      7  C   UNL     1       0.397   6.050   1.963  0.00  0.00    +0.163 C 
ATOM      8  O   UNL     1       1.170   5.751   1.075  0.00  0.00    -0.292 OA
ATOM      9  N   UNL     1      -3.222   6.352   2.505  0.00  0.00    -0.316 N 
ATOM     10  C   UNL     1      -3.965   5.352   1.890  0.00  0.00    +0.052 A 
ATOM     11  C   UNL     1      -4.896   4.593   2.578  0.00  0.00    +0.025 A 
ATOM     12  C   UNL     1      -5.636   3.642   1.894  0.00  0.00    +0.002 A 
ATOM     13  C   UNL     1      -5.447   3.455   0.537  0.00  0.00    +0.002 A 
ATOM     14  C   UNL     1      -4.504   4.201  -0.149  0.00  0.00    +0.025 A 
ATOM     15  C   UNL     1      -3.748   5.139   0.537  0.00  0.00    +0.049 A 
ATOM     16  N   UNL     1      -2.716   5.838  -0.087  0.00  0.00    -0.331 N 
ATOM     17  H   UNL     1      -3.804   7.208   2.879  0.00  0.00    +0.152 HD
ATOM     18  H   UNL     1      -2.967   6.567  -0.872  0.00  0.00    +0.147 HD
ENDROOT
BRANCH   1  24
ATOM     19  C   UNL     1      -0.898   3.614  -1.163  0.00  0.00    +0.126 A 
ATOM     20  C   UNL     1      -0.610   2.266  -1.318  0.00  0.00    +0.046 A 
ATOM     21  C   UNL     1      -0.445   1.464  -0.205  0.00  0.00    +0.004 A 
ATOM     22  C   UNL     1      -0.572   2.003   1.062  0.00  0.00    +0.001 A 
ATOM     23  C   UNL     1      -0.854   3.347   1.218  0.00  0.00    +0.009 A 
ATOM     24  C   UNL     1      -1.020   4.154   0.109  0.00  0.00    +0.019 A 
BRANCH  19  25
ATOM     25  O   UNL     1      -1.062   4.405  -2.256  0.00  0.00    -0.492 OA
BRANCH  25  27
ATOM     26  C   UNL     1      -1.139   4.822  -4.636  0.00  0.00    +0.048 C 
ATOM     27  C   UNL     1      -0.922   3.782  -3.535  0.00  0.00    +0.225 C 
ENDBRANCH  25  27
ENDBRANCH  19  25
ENDBRANCH   1  24
BRANCH   5  28
ATOM     28  C   UNL     1       0.440   7.720   5.372  0.00  0.00    -0.043 A 
ATOM     29  C   UNL     1       0.649   6.707   6.290  0.00  0.00    +0.007 A 
ATOM     30  C   UNL     1       1.097   7.008   7.561  0.00  0.00    +0.046 A 
ATOM     31  C   UNL     1       1.326   8.328   7.921  0.00  0.00    +0.121 A 
ATOM     32  C   UNL     1       1.110   9.342   7.000  0.00  0.00    +0.046 A 
ATOM     33  C   UNL     1       0.667   9.036   5.728  0.00  0.00    +0.007 A 
BRANCH  31  34
ATOM     34  O   UNL     1       1.762   8.626   9.173  0.00  0.00    -0.489 OA
BRANCH  34  35
ATOM     35  C   UNL     1       2.092   9.991   9.437  0.00  0.00    +0.167 C 
ATOM     36  C   UNL     1       0.826  10.757   9.824  0.00  0.00    +0.051 C 
ATOM     37  C   UNL     1       3.101  10.059  10.585  0.00  0.00    +0.051 C 
ENDBRANCH  34  35
ENDBRANCH  31  34
ENDBRANCH   5  28
TORSDOF 6
