REMARK  Name = ZINC08422984
REMARK  4 active torsions:
REMARK  status: ('A' for Active; 'I' for Inactive)
REMARK    1  A    between atoms: C_1  and  C_2
REMARK    2  A    between atoms: C_9  and  C_11
REMARK    3  A    between atoms: N_13  and  N_14
REMARK    4  A    between atoms: C_15  and  C_17
REMARK                            x       y       z     vdW  Elec       q    Type
REMARK                         _______ _______ _______ _____ _____    ______ ____
ROOT
ATOM      1  C   UNL     1       1.612  -5.258   2.944  0.00  0.00    +0.267 C 
ATOM      2  O   UNL     1       1.775  -5.003   4.123  0.00  0.00    -0.268 OA
ATOM      3  N   UNL     1       1.699  -6.531   2.511  0.00  0.00    -0.230 N 
ATOM      4  H   UNL     1       1.569  -6.734   1.571  0.00  0.00    +0.173 HD
ENDROOT
BRANCH   1  12
ATOM      5  C   UNL     1      -0.019   1.526   0.010  0.00  0.00    +0.008 C 
ATOM      6  C   UNL     1       0.002  -0.004   0.002  0.00  0.00    -0.009 C 
ATOM      7  C   UNL     1       0.716  -0.496  -1.260  0.00  0.00    +0.009 C 
ATOM      8  C   UNL     1       0.494  -2.009  -1.394  0.00  0.00    +0.043 C 
ATOM      9  C   UNL     1       0.790  -2.651  -0.071  0.00  0.00    -0.006 A 
ATOM     10  C   UNL     1       0.909  -2.022   1.133  0.00  0.00    -0.036 A 
ATOM     11  C   UNL     1       1.190  -2.823   2.230  0.00  0.00    +0.024 A 
ATOM     12  C   UNL     1       1.320  -4.179   1.995  0.00  0.00    +0.076 A 
ATOM     13  S   UNL     1       1.042  -4.273   0.236  0.00  0.00    -0.088 S 
ATOM     14  C   UNL     1       0.739  -0.509   1.243  0.00  0.00    +0.039 C 
ENDBRANCH   1  12
BRANCH   3  15
ATOM     15  N   UNL     1       1.978  -7.562   3.418  0.00  0.00    -0.234 N 
ATOM     16  C   UNL     1       2.065  -8.835   2.985  0.00  0.00    +0.232 C 
ATOM     17  O   UNL     1       1.903  -9.089   1.810  0.00  0.00    -0.274 OA
ATOM     18  H   UNL     1       2.108  -7.359   4.357  0.00  0.00    +0.173 HD
BRANCH  16  19
ATOM     19  C   UNL     1       2.365  -9.944   3.960  0.00  0.00    +0.076 C 
ATOM     20  C   UNL     1       3.719  -9.686   4.625  0.00  0.00    +0.013 C 
ATOM     21  C   UNL     1       4.023 -10.812   5.616  0.00  0.00    +0.001 C 
ATOM     22  C   UNL     1       4.067 -12.148   4.871  0.00  0.00    +0.000 C 
ATOM     23  C   UNL     1       2.713 -12.406   4.206  0.00  0.00    +0.001 C 
ATOM     24  C   UNL     1       2.409 -11.280   3.216  0.00  0.00    +0.013 C 
ENDBRANCH  16  19
ENDBRANCH   3  15
TORSDOF 3
