REMARK  Name = ZINC00659104
REMARK  7 active torsions:
REMARK  status: ('A' for Active; 'I' for Inactive)
REMARK    1  A    between atoms: C_1  and  C_2
REMARK    2  A    between atoms: C_3  and  N_15
REMARK    3  A    between atoms: N_6  and  C_9
REMARK    4  A    between atoms: N_7  and  C_8
REMARK    5  A    between atoms: C_16  and  C_18
REMARK    6  A    between atoms: C_24  and  C_33
REMARK    7  A    between atoms: C_27  and  C_29
REMARK                            x       y       z     vdW  Elec       q    Type
REMARK                         _______ _______ _______ _____ _____    ______ ____
ROOT
ATOM      1  C   UNL     1       3.870   4.525  -1.383  0.00  0.00    +0.096 A 
ATOM      2  C   UNL     1       4.392   5.532  -0.534  0.00  0.00    +0.149 A 
ATOM      3  N   UNL     1       3.881   5.367   0.655  0.00  0.00    -0.177 NA
ATOM      4  N   UNL     1       3.022   4.269   0.636  0.00  0.00    -0.238 N 
ATOM      5  C   UNL     1       3.014   3.751  -0.612  0.00  0.00    +0.130 A 
ATOM      6  N   UNL     1       2.279   2.655  -1.014  0.00  0.00    -0.322 N 
ATOM      7  C   UNL     1       1.195   2.376  -0.061  0.00  0.00    +0.104 C 
ATOM      8  C   UNL     1       1.763   2.325   1.361  0.00  0.00    +0.063 C 
ATOM      9  C   UNL     1       2.239   3.731   1.756  0.00  0.00    +0.215 C 
ATOM     10  H   UNL     1       2.872   1.847  -1.134  0.00  0.00    +0.148 HD
ENDROOT
BRANCH   7  11
ATOM     11  C   UNL     1       0.157   3.465  -0.148  0.00  0.00    -0.024 A 
ATOM     12  C   UNL     1       0.384   4.572  -0.946  0.00  0.00    +0.009 A 
ATOM     13  C   UNL     1      -0.565   5.574  -1.029  0.00  0.00    +0.050 A 
ATOM     14  C   UNL     1      -1.746   5.471  -0.312  0.00  0.00    +0.166 A 
ATOM     15  C   UNL     1      -1.977   4.354   0.487  0.00  0.00    +0.167 A 
ATOM     16  C   UNL     1      -1.019   3.357   0.570  0.00  0.00    +0.055 A 
ATOM     17  O   UNL     1      -3.201   4.486   1.077  0.00  0.00    -0.453 OA
ATOM     18  C   UNL     1      -3.891   5.490   0.311  0.00  0.00    +0.466 C 
ATOM     19  O   UNL     1      -2.824   6.304  -0.220  0.00  0.00    -0.453 OA
ENDBRANCH   7  11
BRANCH   1  21
ATOM     20  N   UNL     1       5.034   5.171  -3.427  0.00  0.00    -0.276 N 
ATOM     21  C   UNL     1       4.178   4.337  -2.806  0.00  0.00    +0.253 C 
ATOM     22  O   UNL     1       3.659   3.426  -3.425  0.00  0.00    -0.270 OA
ATOM     23  H   UNL     1       5.503   5.851  -2.918  0.00  0.00    +0.155 HD
BRANCH  20  26
ATOM     24  C   UNL     1       7.788   4.915  -4.754  0.00  0.00    +0.067 C 
ATOM     25  C   UNL     1       6.444   4.942  -5.435  0.00  0.00    +0.059 A 
ATOM     26  C   UNL     1       5.248   5.057  -4.815  0.00  0.00    +0.121 A 
ATOM     27  C   UNL     1       4.218   5.046  -5.854  0.00  0.00    +0.293 A 
ATOM     28  O   UNL     1       3.016   5.133  -5.684  0.00  0.00    -0.264 OA
ATOM     29  N   UNL     1       4.855   4.920  -7.037  0.00  0.00    -0.216 N 
ATOM     30  N   UNL     1       6.230   4.852  -6.785  0.00  0.00    -0.282 N 
ATOM     31  C   UNL     1       7.274   4.713  -7.804  0.00  0.00    +0.171 C 
BRANCH  29  32
ATOM     32  C   UNL     1       4.247   4.866  -8.295  0.00  0.00    +0.067 A 
ATOM     33  C   UNL     1       4.759   5.613  -9.348  0.00  0.00    +0.028 A 
ATOM     34  C   UNL     1       4.159   5.553 -10.591  0.00  0.00    +0.002 A 
ATOM     35  C   UNL     1       3.043   4.759 -10.784  0.00  0.00    +0.000 A 
ATOM     36  C   UNL     1       2.527   4.019  -9.737  0.00  0.00    +0.002 A 
ATOM     37  C   UNL     1       3.126   4.070  -8.493  0.00  0.00    +0.028 A 
ENDBRANCH  29  32
ENDBRANCH  20  26
ENDBRANCH   1  21
BRANCH   9  38
ATOM     38  C   UNL     1       3.114   3.648   3.008  0.00  0.00    +0.412 C 
ATOM     39  F   UNL     1       3.576   4.927   3.339  0.00  0.00    -0.168 F 
ATOM     40  F   UNL     1       2.361   3.135   4.070  0.00  0.00    -0.168 F 
ATOM     41  F   UNL     1       4.205   2.808   2.760  0.00  0.00    -0.168 F 
ENDBRANCH   9  38
TORSDOF 5
