REMARK  Name = ZINC15881435
REMARK  9 active torsions:
REMARK  status: ('A' for Active; 'I' for Inactive)
REMARK    1  A    between atoms: C_1  and  C_2
REMARK    2  A    between atoms: C_2  and  C_3
REMARK    3  A    between atoms: C_3  and  C_4
REMARK    4  A    between atoms: C_7  and  C_9
REMARK    5  A    between atoms: N_17  and  C_18
REMARK    6  A    between atoms: C_18  and  C_19
REMARK    7  A    between atoms: N_21  and  C_22
REMARK    8  A    between atoms: C_24  and  C_29
REMARK    9  A    between atoms: C_27  and  C_28
REMARK                            x       y       z     vdW  Elec       q    Type
REMARK                         _______ _______ _______ _____ _____    ______ ____
ROOT
ATOM      1  C   UNL     1       3.132   8.130  -1.472  0.00  0.00    +0.108 A 
ATOM      2  C   UNL     1       2.888   9.435  -1.184  0.00  0.00    +0.041 A 
ATOM      3  C   UNL     1       2.957   9.570   0.269  0.00  0.00    +0.001 A 
ATOM      4  C   UNL     1       2.803  10.646   1.149  0.00  0.00    +0.010 A 
ATOM      5  C   UNL     1       2.930  10.446   2.494  0.00  0.00    +0.001 A 
ATOM      6  C   UNL     1       3.212   9.182   2.996  0.00  0.00    +0.002 A 
ATOM      7  C   UNL     1       3.368   8.108   2.148  0.00  0.00    +0.026 A 
ATOM      8  C   UNL     1       3.243   8.287   0.774  0.00  0.00    +0.050 A 
ATOM      9  N   UNL     1       3.341   7.432  -0.301  0.00  0.00    -0.327 N 
ENDROOT
BRANCH   1  13
ATOM     10  C   UNL     1       3.085   7.297  -4.964  0.00  0.00    +0.218 A 
ATOM     11  N   UNL     1       3.345   6.147  -4.405  0.00  0.00    -0.112 NA
ATOM     12  N   UNL     1       3.395   6.291  -3.128  0.00  0.00    -0.106 NA
ATOM     13  C   UNL     1       3.165   7.549  -2.824  0.00  0.00    +0.265 A 
ATOM     14  O   UNL     1       2.960   8.208  -3.983  0.00  0.00    -0.419 OA
BRANCH  10  15
ATOM     15  C   UNL     1       2.944   7.556  -6.442  0.00  0.00    +0.097 C 
BRANCH  15  17
ATOM     16  C   UNL     1       1.340   7.627  -8.356  0.00  0.00    +0.004 C 
ATOM     17  C   UNL     1       1.483   7.364  -6.856  0.00  0.00    +0.006 C 
ENDBRANCH  15  17
ENDBRANCH  10  15
ENDBRANCH   1  13
BRANCH   9  18
ATOM     18  C   UNL     1       3.629   5.998  -0.215  0.00  0.00    +0.218 C 
BRANCH  18  19
ATOM     19  C   UNL     1       2.336   5.233  -0.093  0.00  0.00    +0.237 C 
ATOM     20  O   UNL     1       1.279   5.827  -0.081  0.00  0.00    -0.274 OA
ATOM     21  N   UNL     1       2.356   3.889   0.001  0.00  0.00    -0.284 N 
ATOM     22  H   UNL     1       3.202   3.420   0.071  0.00  0.00    +0.155 HD
BRANCH  21  23
ATOM     23  C   UNL     1       1.155   3.170  -0.003  0.00  0.00    +0.037 A 
ATOM     24  C   UNL     1       0.022   3.710  -0.598  0.00  0.00    +0.027 A 
ATOM     25  C   UNL     1      -1.161   2.998  -0.600  0.00  0.00    -0.049 A 
ATOM     26  C   UNL     1      -1.217   1.746  -0.015  0.00  0.00    +0.004 A 
ATOM     27  C   UNL     1      -0.093   1.208   0.583  0.00  0.00    +0.005 A 
ATOM     28  C   UNL     1       1.094   1.915   0.589  0.00  0.00    -0.029 A 
ATOM     29  C   UNL     1       2.321   1.325   1.235  0.00  0.00    +0.045 C 
ATOM     30  C   UNL     1      -2.390   3.583  -1.245  0.00  0.00    +0.044 C 
ENDBRANCH  21  23
ENDBRANCH  18  19
ENDBRANCH   9  18
TORSDOF 6
