REMARK  Name = ZINC11855959
REMARK  6 active torsions:
REMARK  status: ('A' for Active; 'I' for Inactive)
REMARK    1  A    between atoms: C_1  and  C_2
REMARK    2  A    between atoms: C_2  and  C_4
REMARK    3  A    between atoms: C_2  and  O_29
REMARK    4  A    between atoms: N_6  and  C_7
REMARK    5  A    between atoms: C_9  and  C_24
REMARK    6  A    between atoms: O_29  and  C_30
REMARK                            x       y       z     vdW  Elec       q    Type
REMARK                         _______ _______ _______ _____ _____    ______ ____
ROOT
ATOM      1  C   UNL     1       2.346   6.862   0.542  0.00  0.00    +0.132 A 
ATOM      2  C   UNL     1       2.353   5.520   0.746  0.00  0.00    +0.074 A 
ATOM      3  C   UNL     1       1.020   5.107   0.950  0.00  0.00    +0.102 A 
ATOM      4  N   UNL     1       0.244   6.170   0.880  0.00  0.00    -0.162 NA
ATOM      5  N   UNL     1       1.050   7.287   0.625  0.00  0.00    -0.185 N 
ATOM      6  C   UNL     1       0.613   8.589   0.481  0.00  0.00    +0.234 A 
ATOM      7  N   UNL     1      -0.715   8.864   0.589  0.00  0.00    -0.291 N 
ATOM      8  H   UNL     1      -1.349   8.152   0.768  0.00  0.00    +0.172 HD
ATOM      9  C   UNL     1      -1.143  10.134   0.446  0.00  0.00    +0.256 A 
ATOM     10  O   UNL     1      -2.329  10.401   0.540  0.00  0.00    -0.267 OA
ATOM     11  C   UNL     1      -0.199  11.152   0.183  0.00  0.00    +0.038 A 
ATOM     12  C   UNL     1       1.114  10.819   0.095  0.00  0.00    +0.053 A 
ATOM     13  N   UNL     1       1.485   9.542   0.249  0.00  0.00    -0.217 NA
ATOM     14  C   UNL     1       2.194  11.838  -0.160  0.00  0.00    +0.056 C 
ATOM     15  C   UNL     1       1.598  13.121  -0.735  0.00  0.00    +0.006 C 
ATOM     16  C   UNL     1       0.438  13.562   0.166  0.00  0.00    +0.005 C 
ATOM     17  C   UNL     1      -0.702  12.558   0.006  0.00  0.00    +0.042 C 
ENDROOT
BRANCH   3  18
ATOM     18  C   UNL     1       0.570   3.722   1.205  0.00  0.00    +0.039 A 
ATOM     19  C   UNL     1      -0.698   3.252   1.416  0.00  0.00    +0.018 A 
ATOM     20  C   UNL     1      -0.877   1.902   1.630  0.00  0.00    +0.008 A 
ATOM     21  C   UNL     1       0.207   1.084   1.637  0.00  0.00    +0.046 A 
ATOM     22  S   UNL     1       1.540   2.228   1.319  0.00  0.00    -0.095 S 
ENDBRANCH   3  18
BRANCH   1  25
ATOM     23  C   UNL     1       4.688   7.109   0.244  0.00  0.00    +0.259 C 
ATOM     24  O   UNL     1       4.823   5.915   0.406  0.00  0.00    -0.271 OA
ATOM     25  N   UNL     1       3.460   7.662   0.300  0.00  0.00    -0.267 N 
ATOM     26  H   UNL     1       3.352   8.617   0.171  0.00  0.00    +0.156 HD
BRANCH  23  28
ATOM     27  C   UNL     1       6.085   8.949   1.145  0.00  0.00    +0.062 C 
ATOM     28  C   UNL     1       5.893   7.975  -0.019  0.00  0.00    +0.256 C 
BRANCH  28  29
ATOM     29  O   UNL     1       7.053   7.151  -0.146  0.00  0.00    -0.480 OA
BRANCH  29  30
ATOM     30  C   UNL     1       8.090   7.652  -0.867  0.00  0.00    +0.122 A 
ATOM     31  C   UNL     1       8.036   8.951  -1.352  0.00  0.00    +0.045 A 
ATOM     32  C   UNL     1       9.094   9.460  -2.080  0.00  0.00    +0.004 A 
ATOM     33  C   UNL     1      10.201   8.672  -2.336  0.00  0.00    +0.000 A 
ATOM     34  C   UNL     1      10.255   7.376  -1.859  0.00  0.00    +0.004 A 
ATOM     35  C   UNL     1       9.203   6.864  -1.125  0.00  0.00    +0.045 A 
ENDBRANCH  29  30
ENDBRANCH  28  29
ENDBRANCH  23  28
ENDBRANCH   1  25
TORSDOF 5
