REMARK  Name = ZINC36114266
REMARK  11 active torsions:
REMARK  status: ('A' for Active; 'I' for Inactive)
REMARK    1  A    between atoms: C_1  and  C_2
REMARK    2  A    between atoms: C_2  and  C_3
REMARK    3  A    between atoms: C_3  and  N_4
REMARK    4  A    between atoms: N_4  and  C_5
REMARK    5  A    between atoms: C_5  and  C_6
REMARK    6  A    between atoms: C_9  and  C_11
REMARK    7  A    between atoms: C_11  and  O_12
REMARK    8  A    between atoms: O_12  and  C_13
REMARK    9  A    between atoms: C_17  and  C_20
REMARK   10  A    between atoms: C_18  and  C_19
REMARK   11  A    between atoms: C_21  and  C_23
REMARK                            x       y       z     vdW  Elec       q    Type
REMARK                         _______ _______ _______ _____ _____    ______ ____
ROOT
ATOM      1  C   UNL     1      -0.204  -2.977  -3.271  0.00  0.00    +0.066 A 
ATOM      2  C   UNL     1       0.322  -4.148  -3.710  0.00  0.00    +0.072 A 
ATOM      3  S   UNL     1       0.303  -3.876  -5.475  0.00  0.00    -0.077 S 
ATOM      4  C   UNL     1      -0.360  -2.329  -5.463  0.00  0.00    +0.116 A 
ATOM      5  N   UNL     1      -0.539  -2.091  -4.188  0.00  0.00    -0.244 NA
ENDROOT
BRANCH   1   6
ATOM      6  C   UNL     1      -0.403  -2.704  -1.802  0.00  0.00    +0.164 C 
BRANCH   6   7
ATOM      7  N   UNL     1       0.747  -1.961  -1.283  0.00  0.00    -0.291 N 
ATOM      8  C   UNL     1       1.810  -2.624  -0.785  0.00  0.00    +0.254 C 
ATOM      9  O   UNL     1       1.858  -3.838  -0.859  0.00  0.00    -0.269 OA
BRANCH   8  10
ATOM     10  C   UNL     1       2.907  -1.884  -0.156  0.00  0.00    +0.074 A 
ATOM     11  C   UNL     1       4.127  -2.355   0.305  0.00  0.00    +0.021 A 
ATOM     12  C   UNL     1       4.962  -1.411   0.854  0.00  0.00    +0.008 A 
ATOM     13  C   UNL     1       4.552  -0.120   0.908  0.00  0.00    +0.046 A 
ATOM     14  S   UNL     1       3.025  -0.143   0.208  0.00  0.00    -0.092 S 
ENDBRANCH   8  10
BRANCH   7  15
ATOM     15  C   UNL     1       0.743  -0.496  -1.305  0.00  0.00    +0.108 C 
BRANCH  15  17
ATOM     16  C   UNL     1       0.165   1.562  -0.011  0.00  0.00    +0.005 C 
ATOM     17  C   UNL     1       0.169   0.032   0.011  0.00  0.00    +0.016 C 
ENDBRANCH  15  17
ENDBRANCH   7  15
ENDBRANCH   6   7
ENDBRANCH   1   6
BRANCH   4  18
ATOM     18  C   UNL     1      -0.677  -1.437  -6.636  0.00  0.00    +0.291 C 
BRANCH  18  19
ATOM     19  O   UNL     1       0.460  -0.626  -6.938  0.00  0.00    -0.485 OA
BRANCH  19  20
ATOM     20  C   UNL     1       0.340   0.241  -7.977  0.00  0.00    +0.124 A 
ATOM     21  C   UNL     1      -0.850   0.314  -8.688  0.00  0.00    +0.046 A 
ATOM     22  C   UNL     1      -0.970   1.197  -9.743  0.00  0.00    +0.004 A 
ATOM     23  C   UNL     1       0.095   2.008 -10.092  0.00  0.00    +0.004 A 
ATOM     24  C   UNL     1       1.281   1.937  -9.386  0.00  0.00    -0.044 A 
ATOM     25  C   UNL     1       1.404   1.060  -8.326  0.00  0.00    -0.006 A 
ATOM     26  C   UNL     1       2.695   0.988  -7.552  0.00  0.00    +0.048 C 
ATOM     27  C   UNL     1       2.439   2.822  -9.769  0.00  0.00    +0.044 C 
ENDBRANCH  19  20
ENDBRANCH  18  19
ENDBRANCH   4  18
TORSDOF 8
