REMARK  Name = ZINC38790195
REMARK  7 active torsions:
REMARK  status: ('A' for Active; 'I' for Inactive)
REMARK    1  A    between atoms: C_1  and  C_2
REMARK    2  A    between atoms: C_9  and  C_14
REMARK    3  A    between atoms: C_14  and  N_15
REMARK    4  A    between atoms: N_15  and  C_16
REMARK    5  A    between atoms: C_19  and  N_25
REMARK    6  A    between atoms: C_21  and  C_22
REMARK    7  A    between atoms: N_28  and  C_31
REMARK                            x       y       z     vdW  Elec       q    Type
REMARK                         _______ _______ _______ _____ _____    ______ ____
ROOT
ATOM      1  C   UNL     1      -2.002  -7.090   3.766  0.00  0.00    +0.042 A 
ATOM      2  C   UNL     1      -3.069  -6.412   4.344  0.00  0.00    +0.025 A 
ATOM      3  C   UNL     1      -4.067  -7.112   4.989  0.00  0.00    +0.025 A 
ATOM      4  C   UNL     1      -4.016  -8.501   5.067  0.00  0.00    +0.030 A 
ATOM      5  C   UNL     1      -2.962  -9.192   4.497  0.00  0.00    +0.040 A 
ATOM      6  C   UNL     1      -1.947  -8.492   3.836  0.00  0.00    +0.086 A 
ENDROOT
BRANCH   4   7
ATOM      7  N   UNL     1      -5.035  -9.200   5.724  0.00  0.00    -0.333 N 
ATOM      8  C   UNL     1      -4.941 -10.653   5.935  0.00  0.00    +0.086 C 
ATOM      9  C   UNL     1      -5.218 -10.949   7.413  0.00  0.00    -0.060 C 
ATOM     10  N   UNL     1      -6.510 -10.364   7.794  0.00  0.00    +0.380 N 
ATOM     11  C   UNL     1      -6.446  -8.900   7.689  0.00  0.00    -0.060 C 
ATOM     12  C   UNL     1      -6.227  -8.502   6.230  0.00  0.00    +0.086 C 
ATOM     13  C   UNL     1      -6.826 -10.740   9.178  0.00  0.00    -0.096 C 
ATOM     14  H   UNL     1      -7.230 -10.713   7.180  0.00  0.00    -0.082 HD
ENDBRANCH   4   7
BRANCH   6  15
ATOM     15  C   UNL     1      -0.826  -9.219   3.222  0.00  0.00    +0.388 C 
ATOM     16  O   UNL     1      -1.045 -10.107   2.409  0.00  0.00    -0.241 OA
ATOM     17  O   UNL     1       0.326  -8.936   3.525  0.00  0.00    -0.241 OA
ENDBRANCH   6  15
BRANCH   1  18
ATOM     18  N   UNL     1      -0.997  -6.384   3.117  0.00  0.00    -0.342 N 
ATOM     19  H   UNL     1      -0.219  -6.852   2.774  0.00  0.00    +0.146 HD
BRANCH  18  20
ATOM     20  C   UNL     1      -1.111  -4.933   2.950  0.00  0.00    +0.118 C 
BRANCH  20  29
ATOM     21  C   UNL     1       0.114   1.472   0.037  0.00  0.00    +0.044 C 
ATOM     22  C   UNL     1       0.110  -0.035   0.022  0.00  0.00    -0.050 A 
ATOM     23  C   UNL     1       0.098  -0.706  -1.201  0.00  0.00    +0.005 A 
ATOM     24  C   UNL     1       0.094  -2.062  -1.293  0.00  0.00    +0.024 A 
ATOM     25  C   UNL     1       0.103  -2.857  -0.132  0.00  0.00    +0.040 A 
ATOM     26  N   UNL     1       0.099  -4.186  -0.235  0.00  0.00    -0.284 N 
ATOM     27  C   UNL     1       0.106  -4.991   0.814  0.00  0.00    +0.226 C 
ATOM     28  O   UNL     1       0.103  -6.197   0.658  0.00  0.00    -0.275 OA
ATOM     29  C   UNL     1       0.120  -4.406   2.208  0.00  0.00    +0.115 C 
ATOM     30  C   UNL     1       0.124  -2.895   2.331  0.00  0.00    -0.003 C 
ATOM     31  C   UNL     1       0.116  -2.175   1.173  0.00  0.00    -0.007 A 
ATOM     32  C   UNL     1       0.124  -0.711   1.200  0.00  0.00    +0.012 A 
ATOM     33  H   UNL     1       0.091  -4.580  -1.121  0.00  0.00    +0.155 HD
ENDBRANCH  20  29
ENDBRANCH  18  20
ENDBRANCH   1  18
TORSDOF 5
