REMARK  Name = ZINC52882435
REMARK  6 active torsions:
REMARK  status: ('A' for Active; 'I' for Inactive)
REMARK    1  A    between atoms: C_1  and  C_2
REMARK    2  A    between atoms: C_2  and  C_3
REMARK    3  A    between atoms: C_2  and  C_9
REMARK    4  A    between atoms: C_2  and  N_21
REMARK    5  A    between atoms: N_14  and  S_17
REMARK    6  A    between atoms: S_17  and  N_20
REMARK                            x       y       z     vdW  Elec       q    Type
REMARK                         _______ _______ _______ _____ _____    ______ ____
ROOT
ATOM      1  C   UNL     1      -1.415  -0.405  -0.091  0.00  0.00    +0.240 C 
ATOM      2  O   UNL     1      -2.124  -0.389   0.893  0.00  0.00    -0.273 OA
ATOM      3  N   UNL     1      -1.911  -0.822  -1.273  0.00  0.00    -0.297 N 
ATOM      4  C   UNL     1      -1.085  -0.781  -2.487  0.00  0.00    +0.125 C 
ATOM      5  C   UNL     1      -1.052  -2.185  -3.104  0.00  0.00    +0.129 C 
ATOM      6  N   UNL     1      -2.429  -2.688  -3.201  0.00  0.00    -0.164 NA
ATOM      7  C   UNL     1      -3.256  -2.728  -1.987  0.00  0.00    +0.129 C 
ATOM      8  C   UNL     1      -3.287  -1.330  -1.369  0.00  0.00    +0.125 C 
ENDROOT
BRANCH   6   9
ATOM      9  S   UNL     1      -3.039  -3.200  -4.653  0.00  0.00    +0.095 S 
ATOM     10  O   UNL     1      -4.452  -3.083  -4.564  0.00  0.00    -0.141 OA
ATOM     11  O   UNL     1      -2.283  -2.548  -5.664  0.00  0.00    -0.141 OA
BRANCH   9  12
ATOM     12  N   UNL     1      -2.705  -4.817  -4.782  0.00  0.00    -0.193 NA
ATOM     13  H   UNL     1      -2.232  -5.273  -4.069  0.00  0.00    +0.145 HD
ATOM     14  H   UNL     1      -2.984  -5.308  -5.570  0.00  0.00    +0.145 HD
ENDBRANCH   9  12
ENDBRANCH   6   9
BRANCH   1  16
ATOM     15  C   UNL     1       0.347   0.392   1.461  0.00  0.00    +0.042 C 
ATOM     16  C   UNL     1       0.021   0.040   0.008  0.00  0.00    +0.116 C 
BRANCH  16  17
ATOM     17  C   UNL     1       0.926  -1.073  -0.454  0.00  0.00    -0.019 A 
ATOM     18  C   UNL     1       0.621  -2.385  -0.143  0.00  0.00    +0.006 A 
ATOM     19  C   UNL     1       1.451  -3.406  -0.567  0.00  0.00    +0.000 A 
ATOM     20  C   UNL     1       2.584  -3.116  -1.303  0.00  0.00    +0.000 A 
ATOM     21  C   UNL     1       2.888  -1.804  -1.615  0.00  0.00    +0.000 A 
ATOM     22  C   UNL     1       2.056  -0.783  -1.195  0.00  0.00    +0.006 A 
ENDBRANCH  16  17
BRANCH  16  23
ATOM     23  N   UNL     1       0.227   1.222  -0.840  0.00  0.00    -0.314 NA
ATOM     24  H   UNL     1      -0.100   1.054  -1.780  0.00  0.00    +0.119 HD
ATOM     25  H   UNL     1      -0.219   2.035  -0.442  0.00  0.00    +0.119 HD
ENDBRANCH  16  23
ENDBRANCH   1  16
TORSDOF 5
