REMARK  Name = ZINC36158407
REMARK  8 active torsions:
REMARK  status: ('A' for Active; 'I' for Inactive)
REMARK    1  A    between atoms: C_1  and  C_2
REMARK    2  A    between atoms: C_2  and  C_3
REMARK    3  A    between atoms: C_2  and  C_4
REMARK    4  A    between atoms: C_2  and  N_5
REMARK    5  A    between atoms: C_11  and  C_14
REMARK    6  A    between atoms: C_14  and  C_16
REMARK    7  A    between atoms: C_14  and  N_23
REMARK    8  A    between atoms: C_24  and  C_26
REMARK                            x       y       z     vdW  Elec       q    Type
REMARK                         _______ _______ _______ _____ _____    ______ ____
ROOT
ATOM      1  C   UNL     1       4.922  -3.827  -4.129  0.00  0.00    +0.162 C 
ENDROOT
BRANCH   1   8
ATOM      2  N   UNL     1       0.989  -1.385  -0.086  0.00  0.00    -0.294 N 
ATOM      3  C   UNL     1       2.287  -1.058  -0.241  0.00  0.00    +0.303 C 
ATOM      4  O   UNL     1       2.916  -0.602   0.695  0.00  0.00    -0.253 OA
ATOM      5  N   UNL     1       2.889  -1.235  -1.434  0.00  0.00    -0.286 N 
ATOM      6  C   UNL     1       2.116  -1.675  -2.604  0.00  0.00    +0.109 C 
ATOM      7  C   UNL     1       2.788  -2.915  -3.202  0.00  0.00    +0.025 C 
ATOM      8  C   UNL     1       4.256  -2.601  -3.500  0.00  0.00    +0.021 C 
ATOM      9  C   UNL     1       4.977  -2.241  -2.199  0.00  0.00    +0.025 C 
ATOM     10  C   UNL     1       4.329  -0.987  -1.591  0.00  0.00    +0.109 C 
ATOM     11  H   UNL     1       0.469  -1.680  -0.849  0.00  0.00    +0.151 HD
BRANCH   2  13
ATOM     12  C   UNL     1       0.446   0.145   1.743  0.00  0.00    +0.031 C 
ATOM     13  C   UNL     1       0.365  -1.296   1.236  0.00  0.00    +0.028 C 
ATOM     14  C   UNL     1       1.098  -2.220   2.210  0.00  0.00    +0.031 C 
ATOM     15  C   UNL     1      -1.102  -1.720   1.137  0.00  0.00    +0.031 C 
ENDBRANCH   2  13
ENDBRANCH   1   8
BRANCH   1  16
ATOM     16  C   UNL     1       6.384  -3.543  -4.355  0.00  0.00    +0.236 C 
ATOM     17  O   UNL     1       6.740  -2.957  -5.356  0.00  0.00    -0.274 OA
ATOM     18  N   UNL     1       7.297  -3.941  -3.447  0.00  0.00    -0.300 N 
ATOM     19  C   UNL     1       7.020  -4.757  -2.255  0.00  0.00    +0.108 C 
ATOM     20  C   UNL     1       8.356  -4.938  -1.504  0.00  0.00    +0.020 C 
ATOM     21  C   UNL     1       9.204  -3.742  -2.010  0.00  0.00    +0.020 C 
ATOM     22  C   UNL     1       8.738  -3.635  -3.486  0.00  0.00    +0.108 C 
ENDBRANCH   1  16
BRANCH   1  23
ATOM     23  N   UNL     1       4.279  -4.128  -5.410  0.00  0.00    -0.300 N 
ATOM     24  C   UNL     1       4.313  -5.382  -5.902  0.00  0.00    +0.245 C 
ATOM     25  O   UNL     1       4.877  -6.263  -5.284  0.00  0.00    -0.270 OA
ATOM     26  H   UNL     1       3.828  -3.425  -5.904  0.00  0.00    +0.150 HD
BRANCH  24  27
ATOM     27  C   UNL     1       3.664  -5.686  -7.196  0.00  0.00    +0.037 A 
ATOM     28  C   UNL     1       3.020  -4.676  -7.911  0.00  0.00    +0.013 A 
ATOM     29  C   UNL     1       2.416  -4.967  -9.118  0.00  0.00    +0.001 A 
ATOM     30  C   UNL     1       2.448  -6.256  -9.618  0.00  0.00    +0.000 A 
ATOM     31  C   UNL     1       3.085  -7.263  -8.913  0.00  0.00    +0.001 A 
ATOM     32  C   UNL     1       3.697  -6.984  -7.708  0.00  0.00    +0.013 A 
ENDBRANCH  24  27
ENDBRANCH   1  23
TORSDOF 5
