REMARK  Name = ZINC54157962
REMARK  6 active torsions:
REMARK  status: ('A' for Active; 'I' for Inactive)
REMARK    1  A    between atoms: C_1  and  C_2
REMARK    2  A    between atoms: C_2  and  C_4
REMARK    3  A    between atoms: C_2  and  C_19
REMARK    4  A    between atoms: C_4  and  N_5
REMARK    5  A    between atoms: C_9  and  C_12
REMARK    6  A    between atoms: C_9  and  C_13
REMARK                            x       y       z     vdW  Elec       q    Type
REMARK                         _______ _______ _______ _____ _____    ______ ____
ROOT
ATOM      1  N   UNL     1       2.177   0.248  -1.299  0.00  0.00    -0.240 N 
ATOM      2  C   UNL     1       2.810   1.288  -1.854  0.00  0.00    +0.223 C 
ATOM      3  O   UNL     1       2.277   2.188  -2.469  0.00  0.00    -0.275 OA
ATOM      4  C   UNL     1       4.295   1.164  -1.593  0.00  0.00    +0.117 C 
ATOM      5  C   UNL     1       4.412  -0.142  -0.782  0.00  0.00    +0.078 C 
ATOM      6  C   UNL     1       2.979  -0.616  -0.665  0.00  0.00    +0.233 C 
ATOM      7  O   UNL     1       2.617  -1.620  -0.091  0.00  0.00    -0.274 OA
ATOM      8  C   UNL     1       5.264  -1.168  -1.533  0.00  0.00    +0.026 C 
ENDROOT
BRANCH   5   9
ATOM      9  C   UNL     1       4.988   0.131   0.583  0.00  0.00    -0.032 A 
ATOM     10  C   UNL     1       4.279   0.891   1.494  0.00  0.00    +0.004 A 
ATOM     11  C   UNL     1       4.807   1.141   2.746  0.00  0.00    +0.000 A 
ATOM     12  C   UNL     1       6.046   0.631   3.088  0.00  0.00    +0.000 A 
ATOM     13  C   UNL     1       6.755  -0.130   2.178  0.00  0.00    +0.000 A 
ATOM     14  C   UNL     1       6.224  -0.384   0.927  0.00  0.00    +0.004 A 
ENDBRANCH   5   9
BRANCH   1  15
ATOM     15  C   UNL     1       0.724   0.072  -1.373  0.00  0.00    +0.134 C 
BRANCH  15  17
ATOM     16  C   UNL     1       0.295   2.273  -0.272  0.00  0.00    +0.025 C 
ATOM     17  C   UNL     1       0.065   0.764  -0.178  0.00  0.00    +0.106 C 
BRANCH  17  18
ATOM     18  C   UNL     1      -1.381   0.486  -0.187  0.00  0.00    +0.067 C 
ATOM     19  N   UNL     1      -2.496   0.273  -0.193  0.00  0.00    -0.196 NA
ENDBRANCH  17  18
ENDBRANCH  15  17
ENDBRANCH   1  15
TORSDOF 4
