REMARK  Name = ZINC39856147
REMARK  7 active torsions:
REMARK  status: ('A' for Active; 'I' for Inactive)
REMARK    1  A    between atoms: C_1  and  C_2
REMARK    2  A    between atoms: C_6  and  C_7
REMARK    3  A    between atoms: C_16  and  C_24
REMARK    4  A    between atoms: C_16  and  C_25
REMARK    5  A    between atoms: N_19  and  N_20
REMARK    6  A    between atoms: N_20  and  C_21
REMARK    7  A    between atoms: C_21  and  N_23
REMARK                            x       y       z     vdW  Elec       q    Type
REMARK                         _______ _______ _______ _____ _____    ______ ____
ROOT
ATOM      1  C   UNL     1       0.546   1.438   0.014  0.00  0.00    +0.048 C 
ATOM      2  C   UNL     1       0.194  -0.028   0.004  0.00  0.00    +0.009 A 
ATOM      3  C   UNL     1       0.037  -0.846  -1.122  0.00  0.00    +0.042 A 
ATOM      4  C   UNL     1      -0.282  -2.106  -0.674  0.00  0.00    +0.116 A 
ATOM      5  O   UNL     1      -0.318  -2.074   0.656  0.00  0.00    -0.454 OA
ATOM      6  C   UNL     1      -0.029  -0.826   1.091  0.00  0.00    +0.193 A 
ATOM      7  C   UNL     1      -0.534  -3.267  -1.603  0.00  0.00    +0.081 C 
ATOM      8  C   UNL     1      -0.886  -2.737  -2.995  0.00  0.00    -0.023 C 
ATOM      9  C   UNL     1       0.179  -1.751  -3.484  0.00  0.00    +0.064 C 
ATOM     10  C   UNL     1       0.164  -0.539  -2.564  0.00  0.00    +0.070 C 
ATOM     11  N   UNL     1       0.254   0.676  -3.011  0.00  0.00    -0.185 NA
ATOM     12  C   UNL     1      -0.974  -3.910  -3.974  0.00  0.00    +0.011 C 
ATOM     13  C   UNL     1      -2.241  -2.028  -2.937  0.00  0.00    +0.011 C 
ENDROOT
BRANCH   6  14
ATOM     14  C   UNL     1       0.031  -0.400   2.494  0.00  0.00    +0.282 C 
ATOM     15  O   UNL     1       0.152   0.780   2.766  0.00  0.00    -0.267 OA
ATOM     16  N   UNL     1      -0.049  -1.315   3.480  0.00  0.00    -0.295 N 
ATOM     17  C   UNL     1      -0.026  -2.751   3.172  0.00  0.00    +0.108 C 
ATOM     18  C   UNL     1       1.079  -3.416   3.999  0.00  0.00    +0.019 C 
ATOM     19  C   UNL     1       0.865  -3.093   5.480  0.00  0.00    +0.003 C 
ATOM     20  C   UNL     1       0.947  -1.580   5.692  0.00  0.00    +0.019 C 
ATOM     21  C   UNL     1      -0.153  -0.895   4.884  0.00  0.00    +0.108 C 
ENDBRANCH   6  14
BRANCH  11  22
ATOM     22  N   UNL     1       0.373   0.908  -4.388  0.00  0.00    -0.218 N 
ATOM     23  H   UNL     1       0.387   0.161  -5.006  0.00  0.00    +0.176 HD
BRANCH  22  24
ATOM     24  C   UNL     1       0.467   2.170  -4.853  0.00  0.00    +0.147 C 
ATOM     25  S   UNL     1       0.611   2.454  -6.535  0.00  0.00    -0.017 S 
BRANCH  24  26
ATOM     26  N   UNL     1       0.447   3.208  -3.993  0.00  0.00    -0.339 N 
ATOM     27  H   UNL     1       0.365   3.047  -3.040  0.00  0.00    +0.144 HD
ATOM     28  H   UNL     1       0.515   4.115  -4.328  0.00  0.00    +0.144 HD
ENDBRANCH  24  26
ENDBRANCH  22  24
ENDBRANCH  11  22
TORSDOF 4
