REMARK  Name = ZINC12498208
REMARK  14 active torsions:
REMARK  status: ('A' for Active; 'I' for Inactive)
REMARK    1  A    between atoms: C_1  and  C_2
REMARK    2  A    between atoms: C_2  and  C_3
REMARK    3  A    between atoms: C_3  and  C_4
REMARK    4  A    between atoms: C_4  and  C_35
REMARK    5  A    between atoms: C_9  and  C_11
REMARK    6  A    between atoms: C_14  and  O_19
REMARK    7  A    between atoms: C_15  and  O_17
REMARK    8  A    between atoms: O_17  and  C_18
REMARK    9  A    between atoms: O_19  and  C_20
REMARK   10  A    between atoms: N_23  and  C_26
REMARK   11  A    between atoms: C_30  and  C_32
REMARK   12  A    between atoms: C_32  and  C_34
REMARK   13  A    between atoms: C_35  and  O_37
REMARK   14  A    between atoms: O_37  and  C_38
REMARK                            x       y       z     vdW  Elec       q    Type
REMARK                         _______ _______ _______ _____ _____    ______ ____
ROOT
ATOM      1  C   UNL     1      -0.168   8.432  -0.262  0.00  0.00    +0.044 C 
ATOM      2  C   UNL     1      -1.545   7.875  -0.531  0.00  0.00    +0.086 C 
ATOM      3  C   UNL     1      -1.112   6.655  -1.438  0.00  0.00    +0.077 C 
ATOM      4  C   UNL     1      -0.053   6.038  -0.598  0.00  0.00    -0.027 C 
ATOM      5  C   UNL     1      -2.431   6.224  -1.903  0.00  0.00    +0.229 C 
ATOM      6  O   UNL     1      -2.798   5.087  -2.110  0.00  0.00    -0.275 OA
ATOM      7  N   UNL     1      -3.162   7.377  -2.040  0.00  0.00    -0.210 N 
ATOM      8  C   UNL     1      -2.567   8.452  -1.433  0.00  0.00    +0.229 C 
ATOM      9  O   UNL     1      -2.824   9.625  -1.598  0.00  0.00    -0.275 OA
ATOM     10  N   UNL     1       0.608   7.198   0.065  0.00  0.00    +0.395 N 
ATOM     11  H   UNL     1       0.621   7.056   1.081  0.00  0.00    -0.083 HD
ATOM     12  H   UNL     1       1.571   7.292  -0.280  0.00  0.00    -0.083 HD
ENDROOT
BRANCH   4  13
ATOM     13  C   UNL     1      -0.665   5.119   0.428  0.00  0.00    -0.057 A 
ATOM     14  C   UNL     1      -1.190   5.642   1.595  0.00  0.00    +0.006 A 
ATOM     15  C   UNL     1      -1.753   4.803   2.539  0.00  0.00    +0.049 A 
ATOM     16  C   UNL     1      -1.797   3.437   2.314  0.00  0.00    +0.161 A 
ATOM     17  C   UNL     1      -1.263   2.910   1.142  0.00  0.00    +0.162 A 
ATOM     18  C   UNL     1      -0.700   3.756   0.200  0.00  0.00    +0.051 A 
BRANCH  17  19
ATOM     19  O   UNL     1      -1.298   1.569   0.919  0.00  0.00    -0.491 OA
ATOM     20  C   UNL     1      -0.737   1.101  -0.309  0.00  0.00    +0.277 C 
ENDBRANCH  17  19
BRANCH  16  21
ATOM     21  O   UNL     1      -2.355   2.611   3.240  0.00  0.00    -0.491 OA
ATOM     22  C   UNL     1      -2.883   3.221   4.419  0.00  0.00    +0.277 C 
ENDBRANCH  16  21
ENDBRANCH   4  13
BRANCH   7  23
ATOM     23  C   UNL     1      -4.384   7.448  -2.725  0.00  0.00    +0.045 A 
ATOM     24  C   UNL     1      -5.060   8.659  -2.816  0.00  0.00    +0.024 A 
ATOM     25  C   UNL     1      -6.265   8.735  -3.489  0.00  0.00    +0.003 A 
ATOM     26  C   UNL     1      -6.805   7.610  -4.078  0.00  0.00    +0.011 A 
ATOM     27  C   UNL     1      -6.133   6.387  -3.993  0.00  0.00    +0.019 A 
ATOM     28  C   UNL     1      -4.912   6.312  -3.316  0.00  0.00    +0.035 A 
BRANCH  27  29
ATOM     29  C   UNL     1      -6.705   5.184  -4.619  0.00  0.00    +0.160 C 
ATOM     30  O   UNL     1      -6.120   4.125  -4.544  0.00  0.00    -0.292 OA
ATOM     31  C   UNL     1      -8.019   5.269  -5.353  0.00  0.00    +0.091 C 
ENDBRANCH  27  29
ENDBRANCH   7  23
BRANCH   1  32
ATOM     32  C   UNL     1      -0.194   9.384   0.905  0.00  0.00    +0.297 C 
ATOM     33  O   UNL     1      -1.188  10.031   1.135  0.00  0.00    -0.252 OA
BRANCH  32  34
ATOM     34  O   UNL     1       0.888   9.514   1.690  0.00  0.00    -0.469 OA
ATOM     35  C   UNL     1       0.791  10.450   2.796  0.00  0.00    +0.280 C 
ENDBRANCH  32  34
ENDBRANCH   1  32
BRANCH   1  36
ATOM     36  C   UNL     1       0.396   9.115  -1.510  0.00  0.00    -0.001 C 
BRANCH  36  38
ATOM     37  C   UNL     1       2.436  10.132  -2.534  0.00  0.00    +0.004 C 
ATOM     38  C   UNL     1       1.872   9.449  -1.286  0.00  0.00    -0.004 C 
ENDBRANCH  36  38
ENDBRANCH   1  36
TORSDOF 9
