REMARK  Name = ZINC45245199
REMARK  8 active torsions:
REMARK  status: ('A' for Active; 'I' for Inactive)
REMARK    1  A    between atoms: C_1  and  C_2
REMARK    2  A    between atoms: C_2  and  N_3
REMARK    3  A    between atoms: C_8  and  N_31
REMARK    4  A    between atoms: C_10  and  C_12
REMARK    5  A    between atoms: C_15  and  N_18
REMARK    6  A    between atoms: N_21  and  C_22
REMARK    7  A    between atoms: N_28  and  C_29
REMARK    8  A    between atoms: N_28  and  C_30
REMARK                            x       y       z     vdW  Elec       q    Type
REMARK                         _______ _______ _______ _____ _____    ______ ____
ROOT
ATOM      1  C   UNL     1      -2.573  -0.909   4.766  0.00  0.00    +0.019 A 
ATOM      2  C   UNL     1      -3.453  -1.499   5.674  0.00  0.00    +0.013 A 
ATOM      3  C   UNL     1      -3.194  -1.432   7.026  0.00  0.00    +0.024 A 
ATOM      4  C   UNL     1      -2.058  -0.776   7.485  0.00  0.00    +0.035 A 
ATOM      5  C   UNL     1      -1.180  -0.187   6.583  0.00  0.00    +0.024 A 
ATOM      6  C   UNL     1      -1.430  -0.257   5.230  0.00  0.00    +0.013 A 
ENDROOT
BRANCH   1  14
ATOM      7  N   UNL     1      -1.538   0.013   0.069  0.00  0.00    -0.247 N 
ATOM      8  C   UNL     1      -2.206  -0.457   1.161  0.00  0.00    +0.164 A 
ATOM      9  C   UNL     1      -3.356  -1.112   0.676  0.00  0.00    +0.078 A 
ATOM     10  C   UNL     1      -3.331  -1.004  -0.731  0.00  0.00    +0.148 A 
ATOM     11  N   UNL     1      -2.265  -0.339  -1.075  0.00  0.00    -0.177 NA
ATOM     12  C   UNL     1      -4.237  -1.698   1.607  0.00  0.00    +0.136 A 
ATOM     13  N   UNL     1      -3.946  -1.607   2.898  0.00  0.00    -0.212 NA
ATOM     14  C   UNL     1      -2.849  -0.980   3.312  0.00  0.00    +0.164 A 
ATOM     15  N   UNL     1      -1.994  -0.415   2.473  0.00  0.00    -0.208 NA
BRANCH  12  16
ATOM     16  N   UNL     1      -5.379  -2.351   1.185  0.00  0.00    -0.310 N 
ATOM     17  C   UNL     1      -5.337  -3.768   0.787  0.00  0.00    +0.138 C 
ATOM     18  C   UNL     1      -6.522  -4.483   1.459  0.00  0.00    +0.136 C 
ATOM     19  C   UNL     1      -6.430  -4.234   2.982  0.00  0.00    +0.036 C 
ATOM     20  C   UNL     1      -7.240  -2.937   3.199  0.00  0.00    +0.036 C 
ATOM     21  C   UNL     1      -7.725  -2.556   1.782  0.00  0.00    +0.136 C 
ATOM     22  C   UNL     1      -6.673  -1.652   1.126  0.00  0.00    +0.138 C 
ATOM     23  O   UNL     1      -7.730  -3.810   1.039  0.00  0.00    -0.370 OA
ENDBRANCH  12  16
BRANCH   7  25
ATOM     24  C   UNL     1      -0.579   2.260   0.184  0.00  0.00    +0.029 C 
ATOM     25  C   UNL     1      -0.280   0.763   0.089  0.00  0.00    +0.142 C 
ENDBRANCH   7  25
ENDBRANCH   1  14
BRANCH   4  26
ATOM     26  N   UNL     1      -1.798  -0.709   8.856  0.00  0.00    -0.269 N 
ATOM     27  C   UNL     1      -0.529  -0.774   9.306  0.00  0.00    +0.308 C 
ATOM     28  O   UNL     1       0.394  -0.809   8.516  0.00  0.00    -0.252 OA
ATOM     29  N   UNL     1      -0.285  -0.802  10.631  0.00  0.00    -0.268 N 
ATOM     30  H   UNL     1      -2.531  -0.615   9.485  0.00  0.00    +0.156 HD
ATOM     31  H   UNL     1      -1.016  -0.707  11.261  0.00  0.00    +0.156 HD
BRANCH  29  32
ATOM     32  C   UNL     1       1.027  -0.969  11.098  0.00  0.00    +0.051 A 
ATOM     33  C   UNL     1       2.100  -0.415  10.401  0.00  0.00    +0.028 A 
ATOM     34  C   UNL     1       3.376  -0.604  10.899  0.00  0.00    +0.043 A 
ATOM     35  C   UNL     1       3.546  -1.335  12.070  0.00  0.00    +0.098 A 
ATOM     36  N   UNL     1       2.504  -1.847  12.705  0.00  0.00    -0.348 N 
ATOM     37  C   UNL     1       1.272  -1.681  12.262  0.00  0.00    +0.107 A 
ATOM     38  N   UNL     1       4.827  -1.531  12.579  0.00  0.00    -0.323 N 
ATOM     39  C   UNL     1       5.986  -0.969  11.882  0.00  0.00    +0.130 C 
ATOM     40  C   UNL     1       5.015  -2.300  13.812  0.00  0.00    +0.130 C 
ATOM     41  H   UNL     1       2.649  -2.353  13.520  0.00  0.00    +0.167 HD
ENDBRANCH  29  32
ENDBRANCH   4  26
TORSDOF 5
