REMARK  Name = ZINC36220671
REMARK  7 active torsions:
REMARK  status: ('A' for Active; 'I' for Inactive)
REMARK    1  A    between atoms: C_1  and  C_2
REMARK    2  A    between atoms: C_2  and  C_3
REMARK    3  A    between atoms: C_2  and  C_4
REMARK    4  A    between atoms: C_2  and  C_5
REMARK    5  A    between atoms: C_6  and  C_15
REMARK    6  A    between atoms: C_9  and  N_14
REMARK    7  A    between atoms: C_15  and  C_16
REMARK                            x       y       z     vdW  Elec       q    Type
REMARK                         _______ _______ _______ _____ _____    ______ ____
ROOT
ATOM      1  C   UNL     1       0.483  -0.207  -1.458  0.00  0.00    +0.069 A 
ATOM      2  C   UNL     1       0.784  -1.411  -1.993  0.00  0.00    +0.056 A 
ATOM      3  N   UNL     1       1.607  -1.185  -3.062  0.00  0.00    -0.301 N 
ATOM      4  C   UNL     1       2.211  -2.024  -3.957  0.00  0.00    +0.115 A 
ATOM      5  C   UNL     1       2.995  -1.527  -4.945  0.00  0.00    +0.041 A 
ATOM      6  C   UNL     1       3.196  -0.137  -5.057  0.00  0.00    +0.028 A 
ATOM      7  C   UNL     1       2.599   0.703  -4.171  0.00  0.00    +0.048 A 
ATOM      8  C   UNL     1       1.786   0.170  -3.150  0.00  0.00    +0.138 A 
ATOM      9  N   UNL     1       1.093   0.741  -2.173  0.00  0.00    -0.232 NA
ENDROOT
BRANCH   1  11
ATOM     10  C   UNL     1      -0.362   1.508   0.120  0.00  0.00    +0.017 C 
ATOM     11  C   UNL     1      -0.400   0.027  -0.260  0.00  0.00    +0.006 C 
ATOM     12  C   UNL     1       0.102  -0.814   0.915  0.00  0.00    +0.017 C 
ATOM     13  C   UNL     1      -1.837  -0.376  -0.598  0.00  0.00    +0.017 C 
ENDBRANCH   1  11
BRANCH   5  14
ATOM     14  N   UNL     1       3.608  -2.398  -5.856  0.00  0.00    -0.357 N 
ATOM     15  H   UNL     1       3.470  -3.355  -5.779  0.00  0.00    +0.142 HD
ATOM     16  H   UNL     1       4.169  -2.044  -6.563  0.00  0.00    +0.142 HD
ENDBRANCH   5  14
BRANCH   2  17
ATOM     17  C   UNL     1       0.304  -2.753  -1.502  0.00  0.00    +0.151 C 
BRANCH  17  18
ATOM     18  C   UNL     1       1.347  -3.360  -0.599  0.00  0.00    +0.216 C 
ATOM     19  O   UNL     1       2.378  -2.762  -0.375  0.00  0.00    -0.276 OA
ATOM     20  N   UNL     1       1.133  -4.567  -0.039  0.00  0.00    -0.329 N 
ATOM     21  H   UNL     1       0.308  -5.045  -0.218  0.00  0.00    +0.145 HD
ATOM     22  H   UNL     1       1.804  -4.958   0.542  0.00  0.00    +0.145 HD
ENDBRANCH  17  18
ENDBRANCH   2  17
TORSDOF 4
