REMARK  Name = ZINC39464376
REMARK  7 active torsions:
REMARK  status: ('A' for Active; 'I' for Inactive)
REMARK    1  A    between atoms: C_1  and  S_2
REMARK    2  A    between atoms: S_2  and  C_3
REMARK    3  A    between atoms: C_8  and  S_9
REMARK    4  A    between atoms: S_9  and  O_12
REMARK    5  A    between atoms: O_12  and  C_13
REMARK    6  A    between atoms: P_23  and  C_29
REMARK    7  A    between atoms: C_34  and  O_35
REMARK                            x       y       z     vdW  Elec       q    Type
REMARK                         _______ _______ _______ _____ _____    ______ ____
ROOT
ATOM      1  C   UNL     1      -1.342  -0.103   0.174  0.00  0.00    +0.036 A 
ATOM      2  C   UNL     1      -2.156   1.019   0.091  0.00  0.00    +0.020 A 
ATOM      3  C   UNL     1      -3.533   0.881   0.045  0.00  0.00    -0.040 A 
ATOM      4  C   UNL     1      -4.103  -0.375   0.082  0.00  0.00    -0.022 A 
ATOM      5  C   UNL     1      -3.290  -1.498   0.165  0.00  0.00    +0.037 A 
ATOM      6  C   UNL     1      -1.918  -1.368   0.205  0.00  0.00    +0.142 A 
ATOM      7  C   UNL     1      -5.594  -0.578   0.033  0.00  0.00    +0.129 C 
ATOM      8  C   UNL     1      -5.985  -1.657   1.046  0.00  0.00    +0.194 C 
ATOM      9  O   UNL     1      -7.394  -1.929   0.911  0.00  0.00    -0.311 OA
ATOM     10  P   UNL     1      -8.425  -0.671   0.910  0.00  0.00    +0.318 P 
ATOM     11  O   UNL     1      -9.686  -1.044   0.230  0.00  0.00    -0.266 OA
ATOM     12  N   UNL     1      -7.659   0.531   0.072  0.00  0.00    -0.175 NA
ATOM     13  N   UNL     1      -6.307   0.668   0.315  0.00  0.00    -0.225 NA
ATOM     14  C   UNL     1      -5.780   1.772  -0.501  0.00  0.00    +0.108 C 
ATOM     15  C   UNL     1      -4.378   2.126  -0.042  0.00  0.00    +0.052 C 
ATOM     16  H   UNL     1      -8.137   1.107  -0.545  0.00  0.00    +0.151 HD
ENDROOT
BRANCH  10  17
ATOM     17  C   UNL     1      -8.764  -0.137   2.610  0.00  0.00    +0.094 A 
ATOM     18  C   UNL     1      -7.973   0.828   3.202  0.00  0.00    +0.018 A 
ATOM     19  C   UNL     1      -8.231   1.235   4.498  0.00  0.00    +0.001 A 
ATOM     20  C   UNL     1      -9.281   0.677   5.204  0.00  0.00    +0.004 A 
ATOM     21  C   UNL     1     -10.076  -0.287   4.616  0.00  0.00    +0.046 A 
ATOM     22  C   UNL     1      -9.822  -0.694   3.314  0.00  0.00    +0.131 A 
BRANCH  22  23
ATOM     23  O   UNL     1     -10.606  -1.639   2.731  0.00  0.00    -0.506 OA
ATOM     24  H   UNL     1     -10.297  -2.545   2.867  0.00  0.00    +0.292 HD
ENDBRANCH  22  23
ENDBRANCH  10  17
BRANCH   6  25
ATOM     25  S   UNL     1      -0.898  -2.801   0.303  0.00  0.00    +0.152 S 
ATOM     26  O   UNL     1      -0.545  -2.956   1.671  0.00  0.00    -0.131 OA
ATOM     27  O   UNL     1      -1.558  -3.821  -0.433  0.00  0.00    -0.131 OA
BRANCH  25  28
ATOM     28  O   UNL     1       0.390  -2.488  -0.445  0.00  0.00    -0.342 OA
BRANCH  28  29
ATOM     29  C   UNL     1       0.274  -2.553  -1.797  0.00  0.00    +0.157 A 
ATOM     30  C   UNL     1       0.618  -3.717  -2.469  0.00  0.00    +0.048 A 
ATOM     31  C   UNL     1       0.498  -3.780  -3.844  0.00  0.00    +0.004 A 
ATOM     32  C   UNL     1       0.036  -2.686  -4.550  0.00  0.00    +0.000 A 
ATOM     33  C   UNL     1      -0.308  -1.524  -3.883  0.00  0.00    +0.004 A 
ATOM     34  C   UNL     1      -0.196  -1.458  -2.507  0.00  0.00    +0.048 A 
ENDBRANCH  28  29
ENDBRANCH  25  28
ENDBRANCH   6  25
BRANCH   1  36
ATOM     35  C   UNL     1       0.666   1.867   0.326  0.00  0.00    +0.090 C 
ATOM     36  S   UNL     1       0.410   0.074   0.232  0.00  0.00    -0.127 S 
ENDBRANCH   1  36
TORSDOF 6
