REMARK  Name = ZINC02724277
REMARK  7 active torsions:
REMARK  status: ('A' for Active; 'I' for Inactive)
REMARK    1  A    between atoms: C_1  and  C_2
REMARK    2  A    between atoms: C_8  and  C_27
REMARK    3  A    between atoms: C_15  and  C_17
REMARK    4  A    between atoms: C_20  and  O_23
REMARK    5  A    between atoms: O_23  and  C_24
REMARK    6  A    between atoms: C_24  and  C_25
REMARK    7  A    between atoms: C_24  and  C_26
REMARK                            x       y       z     vdW  Elec       q    Type
REMARK                         _______ _______ _______ _____ _____    ______ ____
ROOT
ATOM      1  C   UNL     1      -1.477   1.466   1.266  0.00  0.00    +0.044 C 
ATOM      2  C   UNL     1      -1.285  -0.013   1.044  0.00  0.00    -0.050 A 
ATOM      3  C   UNL     1      -1.539  -0.570  -0.197  0.00  0.00    +0.005 A 
ATOM      4  C   UNL     1      -1.354  -1.917  -0.387  0.00  0.00    +0.024 A 
ATOM      5  C   UNL     1      -0.909  -2.751   0.654  0.00  0.00    +0.039 A 
ATOM      6  C   UNL     1      -0.671  -2.189   1.891  0.00  0.00    -0.001 A 
ATOM      7  C   UNL     1      -0.851  -0.819   2.071  0.00  0.00    +0.011 A 
ATOM      8  C   UNL     1      -0.231  -2.954   3.101  0.00  0.00    +0.139 C 
ATOM      9  N   UNL     1       0.644  -4.063   2.826  0.00  0.00    -0.278 N 
ATOM     10  C   UNL     1       0.187  -5.322   2.263  0.00  0.00    +0.205 C 
ATOM     11  C   UNL     1      -0.211  -5.134   0.835  0.00  0.00    +0.235 C 
ATOM     12  O   UNL     1       0.004  -6.061   0.083  0.00  0.00    -0.274 OA
ATOM     13  N   UNL     1      -0.765  -4.076   0.318  0.00  0.00    -0.284 N 
ATOM     14  C   UNL     1       1.955  -3.926   3.104  0.00  0.00    +0.248 C 
ATOM     15  O   UNL     1       2.737  -4.805   2.796  0.00  0.00    -0.270 OA
ATOM     16  H   UNL     1      -1.190  -4.276  -0.531  0.00  0.00    +0.155 HD
ENDROOT
BRANCH   8  17
ATOM     17  C   UNL     1      -1.456  -3.481   3.804  0.00  0.00    -0.022 A 
ATOM     18  C   UNL     1      -1.679  -3.166   5.131  0.00  0.00    +0.008 A 
ATOM     19  C   UNL     1      -2.802  -3.648   5.776  0.00  0.00    +0.038 A 
ATOM     20  C   UNL     1      -3.704  -4.446   5.093  0.00  0.00    +0.123 A 
ATOM     21  C   UNL     1      -3.479  -4.761   3.763  0.00  0.00    +0.038 A 
ATOM     22  C   UNL     1      -2.358  -4.273   3.119  0.00  0.00    +0.008 A 
ATOM     23  F   UNL     1      -4.802  -4.918   5.723  0.00  0.00    -0.205 F 
ENDBRANCH   8  17
BRANCH  14  24
ATOM     24  C   UNL     1       2.443  -2.710   3.784  0.00  0.00    +0.037 A 
ATOM     25  C   UNL     1       3.379  -2.812   4.816  0.00  0.00    +0.016 A 
ATOM     26  C   UNL     1       3.832  -1.675   5.448  0.00  0.00    +0.046 A 
ATOM     27  C   UNL     1       3.358  -0.427   5.059  0.00  0.00    +0.121 A 
ATOM     28  C   UNL     1       2.427  -0.322   4.033  0.00  0.00    +0.046 A 
ATOM     29  C   UNL     1       1.974  -1.454   3.393  0.00  0.00    +0.016 A 
BRANCH  27  30
ATOM     30  O   UNL     1       3.806   0.691   5.684  0.00  0.00    -0.489 OA
BRANCH  30  31
ATOM     31  C   UNL     1       4.667   0.504   6.810  0.00  0.00    +0.167 C 
ATOM     32  C   UNL     1       6.125   0.545   6.350  0.00  0.00    +0.051 C 
ATOM     33  C   UNL     1       4.422   1.619   7.829  0.00  0.00    +0.051 C 
ENDBRANCH  30  31
ENDBRANCH  27  30
ENDBRANCH  14  24
TORSDOF 4
