REMARK  Name = ZINC67207080
REMARK  6 active torsions:
REMARK  status: ('A' for Active; 'I' for Inactive)
REMARK    1  A    between atoms: C_1  and  C_2
REMARK    2  A    between atoms: C_3  and  C_33
REMARK    3  A    between atoms: C_13  and  C_15
REMARK    4  A    between atoms: C_15  and  C_16
REMARK    5  A    between atoms: C_16  and  C_17
REMARK    6  A    between atoms: C_17  and  N_18
REMARK                            x       y       z     vdW  Elec       q    Type
REMARK                         _______ _______ _______ _____ _____    ______ ____
ROOT
ATOM      1  C   UNL     1       0.130  -5.027   6.503  0.00  0.00    +0.098 C 
ENDROOT
BRANCH   1  14
ATOM      2  C   UNL     1      -0.018   1.503   0.010  0.00  0.00    +0.045 C 
ATOM      3  C   UNL     1       0.002  -0.004   0.002  0.00  0.00    -0.027 A 
ATOM      4  C   UNL     1       0.006  -0.672  -1.154  0.00  0.00    -0.008 A 
ATOM      5  S   UNL     1       0.032  -2.375  -0.642  0.00  0.00    -0.075 S 
ATOM      6  C   UNL     1       0.037  -2.139   1.136  0.00  0.00    +0.091 A 
ATOM      7  C   UNL     1       0.024  -0.748   1.259  0.00  0.00    +0.063 A 
ATOM      8  C   UNL     1       0.027  -0.126   2.564  0.00  0.00    +0.229 A 
ATOM      9  O   UNL     1       0.011   1.083   2.721  0.00  0.00    -0.279 OA
ATOM     10  S   UNL     1       0.055  -1.277   3.923  0.00  0.00    -0.013 S 
ATOM     11  C   UNL     1       0.074  -2.974   3.369  0.00  0.00    +0.147 A 
ATOM     12  N   UNL     1       0.055  -3.097   2.058  0.00  0.00    -0.331 N 
ATOM     13  N   UNL     1       0.097  -4.052   4.230  0.00  0.00    -0.266 N 
ATOM     14  C   UNL     1       0.105  -3.850   5.562  0.00  0.00    +0.219 C 
ATOM     15  O   UNL     1       0.094  -2.721   6.005  0.00  0.00    -0.275 OA
ATOM     16  C   UNL     1      -0.009  -0.117  -2.555  0.00  0.00    +0.052 C 
ATOM     17  H   UNL     1       0.106  -4.955   3.876  0.00  0.00    +0.157 HD
ATOM     18  H   UNL     1       0.066  -4.006   1.720  0.00  0.00    +0.168 HD
ENDBRANCH   1  14
BRANCH   1  19
ATOM     19  C   UNL     1       0.136  -4.525   7.948  0.00  0.00    +0.029 C 
BRANCH  19  20
ATOM     20  C   UNL     1       0.161  -5.721   8.903  0.00  0.00    +0.117 C 
BRANCH  20  21
ATOM     21  N   UNL     1       0.167  -5.240  10.287  0.00  0.00    -0.234 N 
ATOM     22  C   UNL     1       1.349  -5.005  10.887  0.00  0.00    +0.254 C 
ATOM     23  O   UNL     1       2.385  -5.195  10.278  0.00  0.00    -0.270 OA
ATOM     24  C   UNL     1       1.395  -4.522  12.275  0.00  0.00    +0.046 A 
ATOM     25  C   UNL     1       2.591  -4.267  12.931  0.00  0.00    +0.014 A 
ATOM     26  C   UNL     1       2.583  -3.811  14.244  0.00  0.00    +0.001 A 
ATOM     27  C   UNL     1       1.416  -3.601  14.922  0.00  0.00    +0.008 A 
ATOM     28  C   UNL     1       0.183  -3.847  14.293  0.00  0.00    -0.016 A 
ATOM     29  C   UNL     1       0.178  -4.310  12.960  0.00  0.00    +0.006 A 
ATOM     30  C   UNL     1      -1.046  -4.566  12.300  0.00  0.00    +0.046 A 
ATOM     31  C   UNL     1      -2.235  -4.356  12.982  0.00  0.00    +0.014 A 
ATOM     32  C   UNL     1      -2.217  -3.899  14.294  0.00  0.00    +0.001 A 
ATOM     33  C   UNL     1      -1.045  -3.646  14.947  0.00  0.00    +0.008 A 
ATOM     34  C   UNL     1      -1.011  -5.044  10.910  0.00  0.00    +0.254 C 
ATOM     35  O   UNL     1      -2.051  -5.266  10.321  0.00  0.00    -0.270 OA
ENDBRANCH  20  21
ENDBRANCH  19  20
ENDBRANCH   1  19
TORSDOF 4
