REMARK  Name = ZINC36206545
REMARK  16 active torsions:
REMARK  status: ('A' for Active; 'I' for Inactive)
REMARK    1  A    between atoms: C_1  and  C_2
REMARK    2  A    between atoms: C_2  and  C_3
REMARK    3  A    between atoms: C_2  and  C_4
REMARK    4  A    between atoms: C_4  and  O_5
REMARK    5  A    between atoms: O_5  and  C_6
REMARK    6  A    between atoms: C_6  and  C_7
REMARK    7  A    between atoms: C_7  and  C_9
REMARK    8  A    between atoms: C_7  and  O_38
REMARK    9  A    between atoms: C_9  and  N_10
REMARK   10  A    between atoms: N_10  and  C_11
REMARK   11  A    between atoms: N_10  and  C_18
REMARK   12  A    between atoms: C_11  and  C_12
REMARK   13  A    between atoms: C_18  and  C_19
REMARK   14  A    between atoms: C_25  and  C_30
REMARK   15  A    between atoms: C_35  and  O_36
REMARK   16  A    between atoms: O_36  and  C_37
REMARK                            x       y       z     vdW  Elec       q    Type
REMARK                         _______ _______ _______ _____ _____    ______ ____
ROOT
ATOM      1  C   UNL     1      -7.375  -0.315  -4.080  0.00  0.00    -0.003 C 
ENDROOT
BRANCH   1   2
ATOM      2  C   UNL     1      -8.027   0.127  -5.365  0.00  0.00    +0.094 A 
ATOM      3  N   UNL     1      -9.364  -0.040  -5.527  0.00  0.00    -0.312 N 
ATOM      4  H   UNL     1      -9.883  -0.442  -4.812  0.00  0.00    +0.170 HD
ATOM      5  C   UNL     1      -9.985   0.341  -6.658  0.00  0.00    +0.260 A 
ATOM      6  O   UNL     1     -11.187   0.185  -6.788  0.00  0.00    -0.267 OA
ATOM      7  C   UNL     1      -9.212   0.933  -7.708  0.00  0.00    +0.080 A 
ATOM      8  C   UNL     1      -9.647   1.422  -9.011  0.00  0.00    +0.007 A 
ATOM      9  C   UNL     1      -8.723   1.950  -9.850  0.00  0.00    +0.056 A 
ATOM     10  S   UNL     1      -7.204   1.818  -8.927  0.00  0.00    -0.076 S 
ATOM     11  C   UNL     1      -7.838   1.065  -7.451  0.00  0.00    +0.116 A 
ATOM     12  N   UNL     1      -7.296   0.668  -6.302  0.00  0.00    -0.229 NA
BRANCH   8  13
ATOM     13  C   UNL     1     -11.072   1.343  -9.410  0.00  0.00    +0.025 A 
ATOM     14  C   UNL     1     -11.457   0.527 -10.472  0.00  0.00    +0.012 A 
ATOM     15  C   UNL     1     -12.786   0.456 -10.839  0.00  0.00    +0.001 A 
ATOM     16  C   UNL     1     -13.737   1.193 -10.157  0.00  0.00    +0.004 A 
ATOM     17  C   UNL     1     -13.366   2.006  -9.102  0.00  0.00    +0.046 A 
ATOM     18  C   UNL     1     -12.037   2.082  -8.719  0.00  0.00    +0.128 A 
BRANCH  18  19
ATOM     19  O   UNL     1     -11.672   2.876  -7.678  0.00  0.00    -0.495 OA
ATOM     20  C   UNL     1     -12.713   3.601  -7.020  0.00  0.00    +0.277 C 
ENDBRANCH  18  19
ENDBRANCH   8  13
ENDBRANCH   1   2
BRANCH   1  21
ATOM     21  N   UNL     1      -5.938  -0.016  -4.131  0.00  0.00    +0.389 N 
ATOM     22  H   UNL     1      -5.805   0.957  -4.366  0.00  0.00    -0.081 HD
BRANCH  21  23
ATOM     23  C   UNL     1      -5.333  -0.290  -2.821  0.00  0.00    -0.044 C 
BRANCH  23  24
ATOM     24  C   UNL     1      -3.949   0.358  -2.752  0.00  0.00    +0.124 C 
BRANCH  24  25
ATOM     25  O   UNL     1      -3.068  -0.301  -3.664  0.00  0.00    -0.391 OA
ATOM     26  H   UNL     1      -2.978  -1.251  -3.507  0.00  0.00    +0.210 HD
ENDBRANCH  24  25
BRANCH  24  27
ATOM     27  C   UNL     1      -3.398   0.233  -1.331  0.00  0.00    +0.189 C 
BRANCH  27  28
ATOM     28  O   UNL     1      -2.159   0.939  -1.236  0.00  0.00    -0.377 OA
BRANCH  28  29
ATOM     29  C   UNL     1      -1.556   0.884   0.058  0.00  0.00    +0.163 C 
BRANCH  29  31
ATOM     30  C   UNL     1      -0.536   3.150  -0.206  0.00  0.00    +0.009 C 
ATOM     31  C   UNL     1      -0.242   1.669   0.042  0.00  0.00    +0.009 C 
ATOM     32  C   UNL     1       0.464   1.508   1.389  0.00  0.00    +0.009 C 
ENDBRANCH  29  31
ENDBRANCH  28  29
ENDBRANCH  27  28
ENDBRANCH  24  27
ENDBRANCH  23  24
ENDBRANCH  21  23
BRANCH  21  33
ATOM     33  C   UNL     1      -5.298  -0.857  -5.152  0.00  0.00    -0.042 C 
BRANCH  33  34
ATOM     34  C   UNL     1      -5.642  -2.302  -4.899  0.00  0.00    -0.064 A 
ATOM     35  C   UNL     1      -4.874  -3.054  -4.030  0.00  0.00    +0.002 A 
ATOM     36  C   UNL     1      -5.189  -4.380  -3.798  0.00  0.00    +0.000 A 
ATOM     37  C   UNL     1      -6.274  -4.954  -4.434  0.00  0.00    +0.000 A 
ATOM     38  C   UNL     1      -7.043  -4.202  -5.302  0.00  0.00    +0.000 A 
ATOM     39  C   UNL     1      -6.730  -2.875  -5.531  0.00  0.00    +0.002 A 
ENDBRANCH  33  34
ENDBRANCH  21  33
ENDBRANCH   1  21
TORSDOF 13
