REMARK  Name = ZINC15629298
REMARK  10 active torsions:
REMARK  status: ('A' for Active; 'I' for Inactive)
REMARK    1  A    between atoms: C_1  and  C_2
REMARK    2  A    between atoms: C_3  and  C_21
REMARK    3  A    between atoms: C_4  and  C_20
REMARK    4  A    between atoms: C_7  and  C_8
REMARK    5  A    between atoms: N_10  and  C_11
REMARK    6  A    between atoms: C_15  and  N_17
REMARK    7  A    between atoms: C_21  and  O_23
REMARK    8  A    between atoms: O_23  and  C_24
REMARK    9  A    between atoms: C_24  and  C_25
REMARK   10  A    between atoms: C_24  and  C_26
REMARK                            x       y       z     vdW  Elec       q    Type
REMARK                         _______ _______ _______ _____ _____    ______ ____
ROOT
ATOM      1  C   UNL     1       1.602   4.276   0.538  0.00  0.00    +0.047 C 
ATOM      2  C   UNL     1       0.713   3.076   0.331  0.00  0.00    -0.006 A 
ATOM      3  C   UNL     1      -0.699   3.077   0.273  0.00  0.00    +0.083 A 
ATOM      4  C   UNL     1      -1.097   1.769   0.064  0.00  0.00    +0.028 A 
ATOM      5  N   UNL     1      -0.000   0.997   0.004  0.00  0.00    -0.354 N 
ATOM      6  H   UNL     1       0.004   0.037  -0.133  0.00  0.00    +0.166 HD
ATOM      7  C   UNL     1       1.119   1.786   0.163  0.00  0.00    +0.106 A 
ATOM      8  C   UNL     1      -2.520   1.291  -0.070  0.00  0.00    +0.064 C 
ENDROOT
BRANCH   7   9
ATOM      9  C   UNL     1       2.510   1.316   0.151  0.00  0.00    +0.265 C 
ATOM     10  O   UNL     1       3.420   2.109   0.301  0.00  0.00    -0.268 OA
ATOM     11  N   UNL     1       2.777   0.007  -0.025  0.00  0.00    -0.280 N 
ATOM     12  H   UNL     1       2.052  -0.635  -0.068  0.00  0.00    +0.155 HD
BRANCH  11  13
ATOM     13  C   UNL     1       4.102  -0.425  -0.146  0.00  0.00    +0.036 A 
ATOM     14  C   UNL     1       4.475  -1.670   0.345  0.00  0.00    +0.023 A 
ATOM     15  C   UNL     1       5.784  -2.094   0.224  0.00  0.00    +0.004 A 
ATOM     16  C   UNL     1       6.722  -1.281  -0.386  0.00  0.00    +0.033 A 
ATOM     17  C   UNL     1       6.354  -0.042  -0.875  0.00  0.00    +0.128 A 
ATOM     18  C   UNL     1       5.045   0.386  -0.762  0.00  0.00    +0.056 A 
BRANCH  17  19
ATOM     19  N   UNL     1       7.361   0.825  -1.527  0.00  0.00    +0.056 N 
ATOM     20  O   UNL     1       8.514   0.446  -1.632  0.00  0.00    -0.126 OA
ATOM     21  O   UNL     1       7.037   1.917  -1.959  0.00  0.00    -0.126 OA
ENDBRANCH  17  19
ENDBRANCH  11  13
ENDBRANCH   7   9
BRANCH   3  22
ATOM     22  C   UNL     1      -1.580   4.249   0.405  0.00  0.00    +0.341 C 
ATOM     23  O   UNL     1      -1.902   4.882  -0.582  0.00  0.00    -0.245 OA
BRANCH  22  24
ATOM     24  O   UNL     1      -2.031   4.620   1.620  0.00  0.00    -0.458 OA
BRANCH  24  25
ATOM     25  C   UNL     1      -2.895   5.786   1.674  0.00  0.00    +0.171 C 
ATOM     26  C   UNL     1      -4.353   5.346   1.525  0.00  0.00    +0.052 C 
ATOM     27  C   UNL     1      -2.711   6.495   3.018  0.00  0.00    +0.052 C 
ENDBRANCH  24  25
ENDBRANCH  22  24
ENDBRANCH   3  22
TORSDOF 6
