REMARK  Name = ZINC35839397
REMARK  14 active torsions:
REMARK  status: ('A' for Active; 'I' for Inactive)
REMARK    1  A    between atoms: C_1  and  C_2
REMARK    2  A    between atoms: C_2  and  C_3
REMARK    3  A    between atoms: C_2  and  C_4
REMARK    4  A    between atoms: C_4  and  O_5
REMARK    5  A    between atoms: O_5  and  C_6
REMARK    6  A    between atoms: C_6  and  C_7
REMARK    7  A    between atoms: C_7  and  C_9
REMARK    8  A    between atoms: C_7  and  O_37
REMARK    9  A    between atoms: C_9  and  N_10
REMARK   10  A    between atoms: N_13  and  C_16
REMARK   11  A    between atoms: C_16  and  C_17
REMARK   12  A    between atoms: C_19  and  C_22
REMARK   13  A    between atoms: N_27  and  C_30
REMARK   14  A    between atoms: C_30  and  C_31
REMARK                            x       y       z     vdW  Elec       q    Type
REMARK                         _______ _______ _______ _____ _____    ______ ____
ROOT
ATOM      1  C   UNL     1      -5.532 -10.730   0.882  0.00  0.00    +0.179 A 
ATOM      2  N   UNL     1      -6.273 -10.983  -0.155  0.00  0.00    -0.210 NA
ATOM      3  C   UNL     1      -7.286 -11.806   0.229  0.00  0.00    +0.164 A 
ATOM      4  C   UNL     1      -7.126 -12.044   1.559  0.00  0.00    +0.230 A 
ATOM      5  O   UNL     1      -6.030 -11.373   1.948  0.00  0.00    -0.449 OA
ENDROOT
BRANCH   3   6
ATOM      6  C   UNL     1      -8.357 -12.338  -0.633  0.00  0.00    +0.268 C 
ATOM      7  O   UNL     1      -9.280 -12.960  -0.143  0.00  0.00    -0.268 OA
ATOM      8  N   UNL     1      -8.312 -12.136  -1.965  0.00  0.00    -0.294 N 
ATOM      9  C   UNL     1      -7.133 -11.524  -2.597  0.00  0.00    +0.123 C 
ATOM     10  C   UNL     1      -6.688 -12.415  -3.761  0.00  0.00    +0.103 C 
ATOM     11  N   UNL     1      -7.826 -12.645  -4.661  0.00  0.00    -0.295 NA
ATOM     12  C   UNL     1      -8.905 -13.373  -3.981  0.00  0.00    +0.103 C 
ATOM     13  C   UNL     1      -9.439 -12.527  -2.826  0.00  0.00    +0.123 C 
BRANCH  11  14
ATOM     14  C   UNL     1      -7.401 -13.350  -5.878  0.00  0.00    +0.119 C 
BRANCH  14  15
ATOM     15  C   UNL     1      -8.528 -13.352  -6.878  0.00  0.00    -0.033 A 
ATOM     16  C   UNL     1      -9.452 -14.380  -6.876  0.00  0.00    +0.005 A 
ATOM     17  C   UNL     1     -10.487 -14.382  -7.793  0.00  0.00    +0.000 A 
ATOM     18  C   UNL     1     -10.598 -13.354  -8.711  0.00  0.00    +0.000 A 
ATOM     19  C   UNL     1      -9.675 -12.325  -8.712  0.00  0.00    +0.000 A 
ATOM     20  C   UNL     1      -8.643 -12.322  -7.793  0.00  0.00    +0.005 A 
ENDBRANCH  14  15
ENDBRANCH  11  14
ENDBRANCH   3   6
BRANCH   1  21
ATOM     21  C   UNL     1      -4.303  -9.858   0.885  0.00  0.00    +0.019 C 
BRANCH  21  25
ATOM     22  N   UNL     1      -4.746  -5.683   0.569  0.00  0.00    -0.303 NA
ATOM     23  C   UNL     1      -3.879  -6.205   1.634  0.00  0.00    +0.066 C 
ATOM     24  C   UNL     1      -3.480  -7.645   1.304  0.00  0.00    -0.063 C 
ATOM     25  N   UNL     1      -4.687  -8.472   1.183  0.00  0.00    +0.387 N 
ATOM     26  C   UNL     1      -5.532  -7.954   0.099  0.00  0.00    -0.063 C 
ATOM     27  C   UNL     1      -5.948  -6.516   0.419  0.00  0.00    +0.066 C 
ATOM     28  H   UNL     1      -5.201  -8.445   2.051  0.00  0.00    -0.081 HD
BRANCH  22  29
ATOM     29  C   UNL     1      -5.105  -4.281   0.821  0.00  0.00    +0.117 C 
BRANCH  29  30
ATOM     30  C   UNL     1      -3.853  -3.408   0.723  0.00  0.00    +0.154 C 
BRANCH  30  31
ATOM     31  O   UNL     1      -3.356  -3.436  -0.617  0.00  0.00    -0.388 OA
ATOM     32  H   UNL     1      -3.984  -3.109  -1.276  0.00  0.00    +0.210 HD
ENDBRANCH  30  31
BRANCH  30  33
ATOM     33  C   UNL     1      -4.202  -1.969   1.107  0.00  0.00    +0.192 C 
BRANCH  33  34
ATOM     34  O   UNL     1      -3.012  -1.179   1.129  0.00  0.00    -0.377 OA
BRANCH  34  35
ATOM     35  C   UNL     1      -3.229   0.190   1.479  0.00  0.00    +0.163 C 
BRANCH  35  37
ATOM     36  C   UNL     1      -2.140   2.425   1.722  0.00  0.00    +0.009 C 
ATOM     37  C   UNL     1      -1.893   0.936   1.470  0.00  0.00    +0.009 C 
ATOM     38  C   UNL     1      -0.989   0.376   2.570  0.00  0.00    +0.009 C 
ENDBRANCH  35  37
ENDBRANCH  34  35
ENDBRANCH  33  34
ENDBRANCH  30  33
ENDBRANCH  29  30
ENDBRANCH  22  29
ENDBRANCH  21  25
ENDBRANCH   1  21
TORSDOF 12
