REMARK  Name = ZINC59310098
REMARK  8 active torsions:
REMARK  status: ('A' for Active; 'I' for Inactive)
REMARK    1  A    between atoms: C_1  and  C_2
REMARK    2  A    between atoms: C_5  and  N_9
REMARK    3  A    between atoms: C_7  and  C_8
REMARK    4  A    between atoms: C_10  and  C_12
REMARK    5  A    between atoms: C_12  and  S_13
REMARK    6  A    between atoms: S_13  and  C_14
REMARK    7  A    between atoms: N_19  and  N_20
REMARK    8  A    between atoms: C_21  and  C_22
REMARK                            x       y       z     vdW  Elec       q    Type
REMARK                         _______ _______ _______ _____ _____    ______ ____
ROOT
ATOM      1  C   UNL     1      -0.414  -8.689  -2.725  0.00  0.00    +0.211 A 
ATOM      2  N   UNL     1      -0.501  -9.562  -3.734  0.00  0.00    -0.186 NA
ATOM      3  C   UNL     1      -0.539 -10.788  -3.257  0.00  0.00    +0.232 A 
ATOM      4  N   UNL     1      -0.477 -10.713  -1.910  0.00  0.00    -0.245 N 
ATOM      5  N   UNL     1      -0.391  -9.348  -1.591  0.00  0.00    -0.144 NA
ATOM      6  N   UNL     1      -0.628 -11.948  -4.003  0.00  0.00    -0.205 N 
ATOM      7  H   UNL     1      -0.651 -12.810  -3.558  0.00  0.00    +0.177 HD
ATOM      8  H   UNL     1      -0.486 -11.456  -1.286  0.00  0.00    +0.192 HD
ENDROOT
BRANCH   6   9
ATOM      9  N   UNL     1      -0.685 -11.880  -5.401  0.00  0.00    -0.188 NA
ATOM     10  C   UNL     1      -0.769 -12.973  -6.104  0.00  0.00    +0.139 C 
BRANCH  10  11
ATOM     11  C   UNL     1      -0.829 -12.901  -7.566  0.00  0.00    +0.010 A 
ATOM     12  C   UNL     1      -1.047 -14.066  -8.330  0.00  0.00    -0.009 A 
ATOM     13  C   UNL     1      -1.212 -15.318  -7.712  0.00  0.00    +0.009 A 
ATOM     14  C   UNL     1      -1.421 -16.423  -8.477  0.00  0.00    +0.001 A 
ATOM     15  C   UNL     1      -1.477 -16.349  -9.868  0.00  0.00    +0.001 A 
ATOM     16  C   UNL     1      -1.325 -15.171 -10.526  0.00  0.00    +0.008 A 
ATOM     17  C   UNL     1      -1.106 -13.986  -9.791  0.00  0.00    -0.017 A 
ATOM     18  C   UNL     1      -0.947 -12.759 -10.436  0.00  0.00    +0.017 A 
ATOM     19  C   UNL     1      -0.731 -11.601  -9.688  0.00  0.00    -0.017 A 
ATOM     20  C   UNL     1      -0.675 -11.664  -8.226  0.00  0.00    -0.009 A 
ATOM     21  C   UNL     1      -0.461 -10.477  -7.504  0.00  0.00    +0.009 A 
ATOM     22  C   UNL     1      -0.317  -9.301  -8.171  0.00  0.00    +0.001 A 
ATOM     23  C   UNL     1      -0.375  -9.237  -9.563  0.00  0.00    +0.001 A 
ATOM     24  C   UNL     1      -0.568 -10.349 -10.319  0.00  0.00    +0.008 A 
ENDBRANCH  10  11
ENDBRANCH   6   9
BRANCH   1  25
ATOM     25  S   UNL     1      -0.336  -6.936  -2.892  0.00  0.00    -0.075 S 
BRANCH  25  26
ATOM     26  C   UNL     1      -0.224  -6.338  -1.183  0.00  0.00    +0.173 C 
BRANCH  26  28
ATOM     27  N   UNL     1      -0.060  -4.163  -0.016  0.00  0.00    -0.285 N 
ATOM     28  C   UNL     1      -0.150  -4.832  -1.182  0.00  0.00    +0.227 C 
ATOM     29  O   UNL     1      -0.171  -4.223  -2.231  0.00  0.00    -0.275 OA
ATOM     30  H   UNL     1       0.034  -4.651   0.817  0.00  0.00    +0.155 HD
BRANCH  27  35
ATOM     31  C   UNL     1      -0.236   1.507   0.022  0.00  0.00    +0.044 C 
ATOM     32  C   UNL     1      -0.189   0.001   0.012  0.00  0.00    -0.047 A 
ATOM     33  C   UNL     1      -0.915  -0.706  -0.930  0.00  0.00    +0.005 A 
ATOM     34  C   UNL     1      -0.874  -2.086  -0.942  0.00  0.00    +0.023 A 
ATOM     35  C   UNL     1      -0.103  -2.764  -0.007  0.00  0.00    +0.034 A 
ATOM     36  C   UNL     1       0.624  -2.052   0.937  0.00  0.00    +0.027 A 
ATOM     37  C   UNL     1       0.583  -0.671   0.941  0.00  0.00    -0.046 A 
ATOM     38  C   UNL     1       1.377   0.103   1.961  0.00  0.00    +0.044 C 
ENDBRANCH  27  35
ENDBRANCH  26  28
ENDBRANCH  25  26
ENDBRANCH   1  25
TORSDOF 6
