REMARK  Name = ZINC02791069
REMARK  6 active torsions:
REMARK  status: ('A' for Active; 'I' for Inactive)
REMARK    1  A    between atoms: C_3  and  N_28
REMARK    2  A    between atoms: C_6  and  C_7
REMARK    3  A    between atoms: N_9  and  C_10
REMARK    4  A    between atoms: C_12  and  C_25
REMARK    5  A    between atoms: C_14  and  C_22
REMARK    6  A    between atoms: C_18  and  C_19
REMARK                            x       y       z     vdW  Elec       q    Type
REMARK                         _______ _______ _______ _____ _____    ______ ____
ROOT
ATOM      1  C   UNL     1       2.024   4.135   0.280  0.00  0.00    +0.063 A 
ATOM      2  C   UNL     1       1.230   3.675  -0.848  0.00  0.00    +0.033 A 
ATOM      3  C   UNL     1       1.491   2.600  -1.735  0.00  0.00    -0.031 A 
ATOM      4  C   UNL     1       0.595   2.337  -2.744  0.00  0.00    +0.033 A 
ATOM      5  C   UNL     1      -0.544   3.115  -2.892  0.00  0.00    +0.108 A 
ATOM      6  N   UNL     1      -0.787   4.110  -2.061  0.00  0.00    -0.239 NA
ATOM      7  C   UNL     1       0.040   4.402  -1.081  0.00  0.00    +0.111 A 
ATOM      8  S   UNL     1       0.041   5.640   0.192  0.00  0.00    -0.062 S 
ATOM      9  C   UNL     1       1.566   5.210   1.007  0.00  0.00    +0.097 A 
ENDROOT
BRANCH   9  10
ATOM     10  C   UNL     1       2.183   5.847   2.171  0.00  0.00    +0.250 C 
ATOM     11  O   UNL     1       3.298   5.513   2.527  0.00  0.00    -0.270 OA
ATOM     12  N   UNL     1       1.517   6.803   2.848  0.00  0.00    -0.325 N 
ATOM     13  H   UNL     1       0.629   7.069   2.563  0.00  0.00    +0.145 HD
ATOM     14  H   UNL     1       1.926   7.225   3.619  0.00  0.00    +0.145 HD
ENDBRANCH   9  10
BRANCH   1  17
ATOM     15  C   UNL     1       4.366   4.209   0.649  0.00  0.00    +0.248 C 
ATOM     16  O   UNL     1       4.344   5.415   0.495  0.00  0.00    -0.270 OA
ATOM     17  N   UNL     1       3.218   3.504   0.615  0.00  0.00    -0.280 N 
ATOM     18  H   UNL     1       3.224   2.557   0.825  0.00  0.00    +0.155 HD
BRANCH  15  24
ATOM     19  C   UNL     1       5.681   2.133   1.056  0.00  0.00    +0.015 A 
ATOM     20  C   UNL     1       6.885   1.492   1.259  0.00  0.00    +0.033 A 
ATOM     21  C   UNL     1       8.062   2.219   1.293  0.00  0.00    +0.126 A 
ATOM     22  C   UNL     1       8.041   3.591   1.118  0.00  0.00    +0.033 A 
ATOM     23  C   UNL     1       6.843   4.244   0.908  0.00  0.00    +0.015 A 
ATOM     24  C   UNL     1       5.652   3.517   0.873  0.00  0.00    +0.037 A 
BRANCH  21  25
ATOM     25  N   UNL     1       9.351   1.525   1.517  0.00  0.00    +0.056 N 
ATOM     26  O   UNL     1      10.388   2.162   1.547  0.00  0.00    -0.126 OA
ATOM     27  O   UNL     1       9.373   0.317   1.672  0.00  0.00    -0.126 OA
ENDBRANCH  21  25
ENDBRANCH  15  24
ENDBRANCH   1  17
BRANCH   5  28
ATOM     28  C   UNL     1      -1.514   2.817  -4.006  0.00  0.00    +0.390 C 
ATOM     29  F   UNL     1      -0.860   2.932  -5.237  0.00  0.00    -0.202 F 
ATOM     30  F   UNL     1      -2.007   1.515  -3.860  0.00  0.00    -0.202 F 
ENDBRANCH   5  28
BRANCH   3  31
ATOM     31  C   UNL     1       2.731   1.760  -1.575  0.00  0.00    +0.020 C 
ATOM     32  C   UNL     1       2.978   0.660  -2.608  0.00  0.00    +0.009 C 
ATOM     33  C   UNL     1       2.545   0.292  -1.188  0.00  0.00    +0.009 C 
ENDBRANCH   3  31
TORSDOF 6
