REMARK  Name = ZINC63987341
REMARK  10 active torsions:
REMARK  status: ('A' for Active; 'I' for Inactive)
REMARK    1  A    between atoms: C_1  and  C_2
REMARK    2  A    between atoms: C_2  and  C_3
REMARK    3  A    between atoms: C_3  and  C_4
REMARK    4  A    between atoms: C_4  and  C_5
REMARK    5  A    between atoms: C_8  and  C_29
REMARK    6  A    between atoms: C_9  and  C_11
REMARK    7  A    between atoms: N_13  and  C_14
REMARK    8  A    between atoms: C_14  and  C_16
REMARK    9  A    between atoms: C_14  and  C_17
REMARK   10  A    between atoms: C_20  and  C_23
REMARK                            x       y       z     vdW  Elec       q    Type
REMARK                         _______ _______ _______ _____ _____    ______ ____
ROOT
ATOM      1  C   UNL     1      -4.626  -4.486  -3.259  0.00  0.00    +0.252 C 
ATOM      2  O   UNL     1      -4.743  -5.686  -3.424  0.00  0.00    -0.270 OA
ATOM      3  N   UNL     1      -5.096  -3.629  -4.187  0.00  0.00    -0.301 N 
ATOM      4  H   UNL     1      -5.003  -2.672  -4.056  0.00  0.00    +0.150 HD
ENDROOT
BRANCH   1   8
ATOM      5  C   UNL     1      -2.848  -2.593   0.015  0.00  0.00    +0.133 C 
ATOM      6  N   UNL     1      -2.874  -4.071   0.036  0.00  0.00    -0.334 N 
ATOM      7  C   UNL     1      -3.450  -4.672  -1.026  0.00  0.00    +0.020 C 
ATOM      8  C   UNL     1      -3.977  -3.973  -2.054  0.00  0.00    +0.088 C 
ATOM      9  S   UNL     1      -3.690  -2.271  -1.589  0.00  0.00    -0.096 S 
ATOM     10  C   UNL     1      -3.508  -6.178  -1.065  0.00  0.00    +0.061 C 
ATOM     11  H   UNL     1      -2.497  -4.580   0.771  0.00  0.00    +0.147 HD
BRANCH   5  12
ATOM     12  C   UNL     1      -1.413  -2.063   0.004  0.00  0.00    +0.033 C 
BRANCH  12  13
ATOM     13  C   UNL     1      -1.433  -0.534   0.013  0.00  0.00    +0.002 C 
BRANCH  13  15
ATOM     14  C   UNL     1      -0.019   1.526   0.010  0.00  0.00    +0.004 C 
ATOM     15  C   UNL     1       0.002  -0.004   0.002  0.00  0.00    -0.003 C 
ENDBRANCH  13  15
ENDBRANCH  12  13
ENDBRANCH   5  12
ENDBRANCH   1   8
BRANCH   3  16
ATOM     16  C   UNL     1      -5.747  -4.142  -5.395  0.00  0.00    +0.136 C 
ATOM     17  C   UNL     1      -4.686  -4.470  -6.447  0.00  0.00    +0.036 C 
BRANCH  16  18
ATOM     18  C   UNL     1      -6.689  -3.100  -5.940  0.00  0.00    +0.128 A 
ATOM     19  N   UNL     1      -7.776  -3.346  -6.703  0.00  0.00    -0.340 N 
ATOM     20  H   UNL     1      -8.088  -4.216  -6.997  0.00  0.00    +0.167 HD
ATOM     21  C   UNL     1      -8.356  -2.131  -6.986  0.00  0.00    +0.066 A 
ATOM     22  C   UNL     1      -7.590  -1.186  -6.376  0.00  0.00    +0.139 A 
ATOM     23  N   UNL     1      -6.590  -1.812  -5.745  0.00  0.00    -0.238 NA
BRANCH  21  24
ATOM     24  C   UNL     1      -9.572  -1.897  -7.794  0.00  0.00    -0.000 A 
ATOM     25  C   UNL     1     -10.258  -2.975  -8.355  0.00  0.00    +0.010 A 
ATOM     26  C   UNL     1     -11.393  -2.750  -9.108  0.00  0.00    +0.001 A 
ATOM     27  C   UNL     1     -11.850  -1.460  -9.307  0.00  0.00    +0.000 A 
ATOM     28  C   UNL     1     -11.175  -0.387  -8.754  0.00  0.00    +0.001 A 
ATOM     29  C   UNL     1     -10.043  -0.599  -7.994  0.00  0.00    +0.010 A 
ENDBRANCH  21  24
ENDBRANCH  16  18
ENDBRANCH   3  16
TORSDOF 7
