REMARK  Name = ZINC63045943
REMARK  5 active torsions:
REMARK  status: ('A' for Active; 'I' for Inactive)
REMARK    1  A    between atoms: C_1  and  C_2
REMARK    2  A    between atoms: C_2  and  C_4
REMARK    3  A    between atoms: C_2  and  C_15
REMARK    4  A    between atoms: C_5  and  N_12
REMARK    5  A    between atoms: C_15  and  C_17
REMARK                            x       y       z     vdW  Elec       q    Type
REMARK                         _______ _______ _______ _____ _____    ______ ____
ROOT
ATOM      1  C   UNL     1       0.731  -0.503   1.223  0.00  0.00    +0.096 A 
ATOM      2  C   UNL     1       0.215  -1.296   2.177  0.00  0.00    +0.224 A 
ATOM      3  N   UNL     1       1.210  -1.523   3.123  0.00  0.00    -0.274 N 
ATOM      4  C   UNL     1       1.366  -2.211   4.307  0.00  0.00    +0.102 A 
ATOM      5  C   UNL     1       2.528  -2.192   4.959  0.00  0.00    +0.067 A 
ATOM      6  S   UNL     1       3.527  -1.155   3.902  0.00  0.00    -0.058 S 
ATOM      7  C   UNL     1       2.297  -0.829   2.661  0.00  0.00    +0.179 A 
ATOM      8  N   UNL     1       2.008  -0.237   1.539  0.00  0.00    -0.224 NA
ENDROOT
BRANCH   2   9
ATOM      9  N   UNL     1      -1.166  -1.830   2.216  0.00  0.00    +0.076 N 
ATOM     10  O   UNL     1      -2.042  -1.203   2.764  0.00  0.00    -0.125 OA
ATOM     11  O   UNL     1      -1.417  -2.894   1.699  0.00  0.00    -0.125 OA
ENDBRANCH   2   9
BRANCH   1  13
ATOM     12  C   UNL     1      -0.019   1.526   0.010  0.00  0.00    +0.015 C 
ATOM     13  C   UNL     1       0.002  -0.004   0.002  0.00  0.00    +0.052 C 
BRANCH  13  14
ATOM     14  C   UNL     1       0.718  -0.497  -1.257  0.00  0.00    +0.062 C 
ATOM     15  C   UNL     1       0.630  -2.023  -1.329  0.00  0.00    +0.020 C 
ATOM     16 BR   UNL     1       2.606   0.048  -1.193  0.00  0.00    -0.088 Br
ENDBRANCH  13  14
ENDBRANCH   1  13
TORSDOF 3
