REMARK  Name = ZINC11169784
REMARK  11 active torsions:
REMARK  status: ('A' for Active; 'I' for Inactive)
REMARK    1  A    between atoms: C_1  and  C_2
REMARK    2  A    between atoms: C_2  and  C_3
REMARK    3  A    between atoms: C_2  and  C_4
REMARK    4  A    between atoms: C_4  and  C_6
REMARK    5  A    between atoms: C_4  and  N_14
REMARK    6  A    between atoms: C_9  and  O_12
REMARK    7  A    between atoms: O_12  and  C_13
REMARK    8  A    between atoms: C_15  and  C_17
REMARK    9  A    between atoms: C_17  and  S_18
REMARK   10  A    between atoms: S_18  and  C_19
REMARK   11  A    between atoms: N_29  and  C_30
REMARK                            x       y       z     vdW  Elec       q    Type
REMARK                         _______ _______ _______ _____ _____    ______ ____
ROOT
ATOM      1  N   UNL     1      -6.224  -1.140   0.550  0.00  0.00    -0.308 N 
ATOM      2  C   UNL     1      -5.199  -2.010   0.453  0.00  0.00    +0.224 C 
ATOM      3  O   UNL     1      -5.413  -3.203   0.462  0.00  0.00    -0.275 OA
ATOM      4  H   UNL     1      -6.052  -0.185   0.543  0.00  0.00    +0.149 HD
ENDROOT
BRANCH   1   5
ATOM      5  C   UNL     1      -7.597  -1.637   0.666  0.00  0.00    +0.106 C 
BRANCH   5   6
ATOM      6  C   UNL     1      -8.554  -0.591   0.156  0.00  0.00    -0.027 A 
ATOM      7  C   UNL     1      -8.338   0.744   0.448  0.00  0.00    +0.009 A 
ATOM      8  C   UNL     1      -9.211   1.705  -0.023  0.00  0.00    +0.046 A 
ATOM      9  C   UNL     1     -10.312   1.330  -0.780  0.00  0.00    +0.120 A 
ATOM     10  C   UNL     1     -10.530  -0.010  -1.066  0.00  0.00    +0.046 A 
ATOM     11  C   UNL     1      -9.650  -0.967  -0.598  0.00  0.00    +0.009 A 
BRANCH   9  12
ATOM     12  O   UNL     1     -11.176   2.273  -1.239  0.00  0.00    -0.495 OA
ATOM     13  C   UNL     1     -10.889   3.633  -0.905  0.00  0.00    +0.277 C 
ENDBRANCH   9  12
ENDBRANCH   5   6
BRANCH   5  15
ATOM     14  C   UNL     1      -9.342  -2.459   2.255  0.00  0.00    +0.009 C 
ATOM     15  C   UNL     1      -7.907  -1.940   2.134  0.00  0.00    +0.008 C 
ATOM     16  C   UNL     1      -6.935  -3.002   2.651  0.00  0.00    +0.009 C 
ENDBRANCH   5  15
ENDBRANCH   1   5
BRANCH   2  17
ATOM     17  C   UNL     1      -3.786  -1.498   0.334  0.00  0.00    +0.173 C 
BRANCH  17  18
ATOM     18  S   UNL     1      -2.645  -2.899   0.222  0.00  0.00    -0.078 S 
BRANCH  18  19
ATOM     19  C   UNL     1      -1.113  -2.037   0.095  0.00  0.00    +0.173 A 
ATOM     20  N   UNL     1      -1.131  -0.727   0.108  0.00  0.00    -0.223 NA
ATOM     21  C   UNL     1       0.003  -0.004   0.014  0.00  0.00    +0.079 A 
ATOM     22  C   UNL     1      -0.016   1.394   0.028  0.00  0.00    +0.028 A 
ATOM     23  C   UNL     1       1.157   2.087  -0.069  0.00  0.00    +0.002 A 
ATOM     24  C   UNL     1       2.373   1.423  -0.181  0.00  0.00    +0.001 A 
ATOM     25  C   UNL     1       2.423   0.056  -0.198  0.00  0.00    +0.015 A 
ATOM     26  C   UNL     1       1.241  -0.676  -0.101  0.00  0.00    +0.065 A 
ATOM     27  C   UNL     1       1.235  -2.145  -0.112  0.00  0.00    +0.263 A 
ATOM     28  O   UNL     1       2.269  -2.780  -0.209  0.00  0.00    -0.267 OA
ATOM     29  N   UNL     1       0.037  -2.766  -0.012  0.00  0.00    -0.284 N 
BRANCH  29  30
ATOM     30  C   UNL     1      -0.027  -4.229  -0.019  0.00  0.00    +0.093 C 
ATOM     31  C   UNL     1       0.779  -4.967  -1.091  0.00  0.00    +0.027 C 
ATOM     32  C   UNL     1      -0.747  -4.899  -1.192  0.00  0.00    +0.027 C 
ENDBRANCH  29  30
ENDBRANCH  18  19
ENDBRANCH  17  18
ENDBRANCH   2  17
TORSDOF 8
