REMARK  Name = ZINC09249744
REMARK  10 active torsions:
REMARK  status: ('A' for Active; 'I' for Inactive)
REMARK    1  A    between atoms: C_1  and  C_2
REMARK    2  A    between atoms: C_2  and  O_3
REMARK    3  A    between atoms: O_3  and  C_4
REMARK    4  A    between atoms: C_6  and  C_11
REMARK    5  A    between atoms: C_9  and  O_10
REMARK    6  A    between atoms: C_22  and  S_25
REMARK    7  A    between atoms: N_23  and  C_24
REMARK    8  A    between atoms: S_25  and  C_26
REMARK    9  A    between atoms: C_26  and  C_27
REMARK   10  A    between atoms: C_30  and  C_33
REMARK                            x       y       z     vdW  Elec       q    Type
REMARK                         _______ _______ _______ _____ _____    ______ ____
ROOT
ATOM      1  C   UNL     1      -1.196   3.224   0.842  0.00  0.00    +0.066 C 
ATOM      2  C   UNL     1      -1.332   1.938   0.019  0.00  0.00    +0.109 C 
ATOM      3  C   UNL     1      -0.014   1.208   0.009  0.00  0.00    +0.219 C 
ATOM      4  O   UNL     1       0.002  -0.004   0.002  0.00  0.00    -0.275 OA
ATOM      5  N   UNL     1       1.145   1.892   0.001  0.00  0.00    -0.271 N 
ATOM      6  C   UNL     1       1.150   3.271   0.020  0.00  0.00    +0.116 A 
ATOM      7  C   UNL     1       0.046   3.959   0.417  0.00  0.00    +0.065 A 
ATOM      8  C   UNL     1       0.082   5.369   0.426  0.00  0.00    +0.279 A 
ATOM      9  O   UNL     1      -0.899   6.008   0.780  0.00  0.00    -0.265 OA
ATOM     10  N   UNL     1       1.201   6.003   0.044  0.00  0.00    -0.185 NA
ATOM     11  C   UNL     1       2.265   5.328  -0.339  0.00  0.00    +0.174 A 
ATOM     12  N   UNL     1       2.267   3.965  -0.361  0.00  0.00    -0.311 N 
ATOM     13  C   UNL     1       3.466   3.243  -0.792  0.00  0.00    +0.152 C 
ATOM     14  H   UNL     1       1.986   1.409  -0.017  0.00  0.00    +0.156 HD
ENDROOT
BRANCH   1  17
ATOM     15  C   UNL     1      -1.962   3.051   4.538  0.00  0.00    +0.162 A 
ATOM     16  C   UNL     1      -2.048   3.365   3.191  0.00  0.00    +0.053 A 
ATOM     17  C   UNL     1      -1.102   2.881   2.307  0.00  0.00    -0.036 A 
ATOM     18  C   UNL     1      -0.071   2.080   2.762  0.00  0.00    +0.008 A 
ATOM     19  C   UNL     1       0.023   1.767   4.105  0.00  0.00    +0.049 A 
ATOM     20  C   UNL     1      -0.922   2.248   4.997  0.00  0.00    +0.158 A 
BRANCH  20  21
ATOM     21  O   UNL     1      -0.834   1.937   6.318  0.00  0.00    -0.503 OA
ATOM     22  H   UNL     1      -1.303   1.128   6.564  0.00  0.00    +0.292 HD
ENDBRANCH  20  21
BRANCH  15  23
ATOM     23  O   UNL     1      -2.893   3.525   5.409  0.00  0.00    -0.489 OA
BRANCH  23  25
ATOM     24  C   UNL     1      -4.876   4.779   5.989  0.00  0.00    +0.048 C 
ATOM     25  C   UNL     1      -3.932   4.343   4.866  0.00  0.00    +0.226 C 
ENDBRANCH  23  25
ENDBRANCH  15  23
ENDBRANCH   1  17
BRANCH  11  26
ATOM     26  S   UNL     1       3.712   6.202  -0.833  0.00  0.00    -0.083 S 
BRANCH  26  27
ATOM     27  C   UNL     1       3.143   7.906  -0.607  0.00  0.00    +0.112 C 
BRANCH  27  28
ATOM     28  C   UNL     1       4.249   8.859  -0.980  0.00  0.00    -0.037 A 
ATOM     29  C   UNL     1       5.149   9.283  -0.020  0.00  0.00    +0.005 A 
ATOM     30  C   UNL     1       6.166  10.154  -0.363  0.00  0.00    +0.003 A 
ATOM     31  C   UNL     1       6.278  10.608  -1.664  0.00  0.00    -0.050 A 
ATOM     32  C   UNL     1       5.375  10.188  -2.623  0.00  0.00    +0.003 A 
ATOM     33  C   UNL     1       4.361   9.313  -2.281  0.00  0.00    +0.005 A 
ATOM     34  C   UNL     1       7.384  11.561  -2.037  0.00  0.00    +0.044 C 
ENDBRANCH  27  28
ENDBRANCH  26  27
ENDBRANCH  11  26
TORSDOF 7
