REMARK  Name = ZINC36502171
REMARK  11 active torsions:
REMARK  status: ('A' for Active; 'I' for Inactive)
REMARK    1  A    between atoms: C_1  and  N_2
REMARK    2  A    between atoms: N_2  and  C_3
REMARK    3  A    between atoms: N_2  and  C_4
REMARK    4  A    between atoms: C_7  and  C_10
REMARK    5  A    between atoms: C_10  and  C_12
REMARK    6  A    between atoms: C_10  and  N_21
REMARK    7  A    between atoms: N_14  and  C_15
REMARK    8  A    between atoms: N_21  and  C_22
REMARK    9  A    between atoms: C_22  and  C_23
REMARK   10  A    between atoms: C_28  and  C_30
REMARK   11  A    between atoms: C_30  and  C_31
REMARK                            x       y       z     vdW  Elec       q    Type
REMARK                         _______ _______ _______ _____ _____    ______ ____
ROOT
ATOM      1  C   UNL     1       0.301  -2.013  -4.957  0.00  0.00    +0.193 C 
ENDROOT
BRANCH   1   5
ATOM      2  C   UNL     1      -0.267   2.221  -4.810  0.00  0.00    +0.029 A 
ATOM      3  C   UNL     1       0.062   1.522  -3.655  0.00  0.00    +0.023 A 
ATOM      4  C   UNL     1       0.244   0.154  -3.706  0.00  0.00    +0.008 A 
ATOM      5  C   UNL     1       0.100  -0.520  -4.905  0.00  0.00    -0.018 A 
ATOM      6  C   UNL     1      -0.227   0.172  -6.056  0.00  0.00    +0.008 A 
ATOM      7  C   UNL     1      -0.416   1.540  -6.011  0.00  0.00    +0.023 A 
BRANCH   2   9
ATOM      8  C   UNL     1      -0.804   4.339  -5.979  0.00  0.00    +0.129 C 
ATOM      9  N   UNL     1      -0.452   3.604  -4.762  0.00  0.00    -0.336 N 
ATOM     10  C   UNL     1      -0.294   4.321  -3.494  0.00  0.00    +0.129 C 
ENDBRANCH   2   9
ENDBRANCH   1   5
BRANCH   1  11
ATOM     11  C   UNL     1       1.612  -2.321  -5.633  0.00  0.00    +0.238 C 
ATOM     12  O   UNL     1       1.634  -2.607  -6.811  0.00  0.00    -0.273 OA
ATOM     13  N   UNL     1       2.760  -2.277  -4.929  0.00  0.00    -0.311 N 
ATOM     14  H   UNL     1       2.743  -2.048  -3.986  0.00  0.00    +0.149 HD
BRANCH  13  15
ATOM     15  C   UNL     1       4.035  -2.576  -5.586  0.00  0.00    +0.073 C 
ATOM     16  C   UNL     1       4.265  -4.089  -5.589  0.00  0.00    +0.022 C 
ATOM     17  C   UNL     1       5.596  -4.401  -6.275  0.00  0.00    +0.002 C 
ATOM     18  C   UNL     1       6.734  -3.713  -5.519  0.00  0.00    +0.000 C 
ATOM     19  C   UNL     1       6.504  -2.201  -5.516  0.00  0.00    +0.002 C 
ATOM     20  C   UNL     1       5.173  -1.889  -4.829  0.00  0.00    +0.022 C 
ENDBRANCH  13  15
ENDBRANCH   1  11
BRANCH   1  21
ATOM     21  N   UNL     1      -0.794  -2.627  -5.712  0.00  0.00    -0.278 N 
ATOM     22  C   UNL     1      -1.704  -3.393  -5.078  0.00  0.00    +0.221 C 
ATOM     23  O   UNL     1      -1.616  -3.574  -3.882  0.00  0.00    -0.275 OA
BRANCH  21  24
ATOM     24  C   UNL     1      -0.900  -2.408  -7.157  0.00  0.00    +0.183 C 
BRANCH  24  25
ATOM     25  C   UNL     1      -0.687  -3.713  -7.879  0.00  0.00    +0.122 A 
ATOM     26  C   UNL     1      -1.636  -4.429  -8.508  0.00  0.00    +0.046 A 
ATOM     27  C   UNL     1      -1.000  -5.572  -9.044  0.00  0.00    +0.041 A 
ATOM     28  C   UNL     1       0.300  -5.487  -8.710  0.00  0.00    +0.195 A 
ATOM     29  O   UNL     1       0.485  -4.356  -8.009  0.00  0.00    -0.466 OA
ENDBRANCH  24  25
ENDBRANCH  21  24
BRANCH  22  30
ATOM     30  C   UNL     1      -2.830  -4.024  -5.855  0.00  0.00    +0.131 C 
BRANCH  30  31
ATOM     31  C   UNL     1      -3.700  -4.823  -4.919  0.00  0.00    -0.035 A 
ATOM     32  C   UNL     1      -3.417  -6.156  -4.682  0.00  0.00    +0.008 A 
ATOM     33  C   UNL     1      -4.211  -6.893  -3.824  0.00  0.00    +0.050 A 
ATOM     34  C   UNL     1      -5.295  -6.297  -3.199  0.00  0.00    +0.166 A 
ATOM     35  C   UNL     1      -5.580  -4.955  -3.437  0.00  0.00    +0.166 A 
ATOM     36  C   UNL     1      -4.776  -4.221  -4.294  0.00  0.00    +0.053 A 
ATOM     37  O   UNL     1      -6.684  -4.609  -2.712  0.00  0.00    -0.453 OA
ATOM     38  C   UNL     1      -7.310  -5.853  -2.348  0.00  0.00    +0.466 C 
ATOM     39  O   UNL     1      -6.219  -6.792  -2.325  0.00  0.00    -0.453 OA
ENDBRANCH  30  31
ENDBRANCH  22  30
ENDBRANCH   1  21
TORSDOF 9
