REMARK  Name = ZINC31026025
REMARK  3 active torsions:
REMARK  status: ('A' for Active; 'I' for Inactive)
REMARK    1  A    between atoms: C_5  and  C_6
REMARK    2  A    between atoms: N_8  and  N_9
REMARK    3  A    between atoms: N_12  and  C_13
REMARK                            x       y       z     vdW  Elec       q    Type
REMARK                         _______ _______ _______ _____ _____    ______ ____
ROOT
ATOM      1  C   UNL     1       2.854   3.009   5.200  0.00  0.00    +0.267 C 
ATOM      2  O   UNL     1       2.506   2.996   6.366  0.00  0.00    -0.268 OA
ATOM      3  N   UNL     1       1.982   2.667   4.231  0.00  0.00    -0.229 N 
ATOM      4  H   UNL     1       2.297   2.679   3.178  0.00  0.00    +0.173 HD
ENDROOT
BRANCH   1   9
ATOM      5  C   UNL     1       5.260   3.777   5.676  0.00  0.00    +0.024 A 
ATOM      6  C   UNL     1       6.485   4.101   5.093  0.00  0.00    -0.036 A 
ATOM      7  C   UNL     1       6.558   4.017   3.737  0.00  0.00    -0.006 A 
ATOM      8  S   UNL     1       4.988   3.493   3.240  0.00  0.00    -0.088 S 
ATOM      9  C   UNL     1       4.224   3.397   4.848  0.00  0.00    +0.076 A 
ATOM     10  C   UNL     1       7.920   4.394   3.224  0.00  0.00    +0.043 C 
ATOM     11  C   UNL     1       8.584   5.149   4.397  0.00  0.00    +0.010 C 
ATOM     12  C   UNL     1       7.851   4.553   5.615  0.00  0.00    +0.036 C 
ENDBRANCH   1   9
BRANCH   3  13
ATOM     13  N   UNL     1       0.673   2.296   4.567  0.00  0.00    -0.218 N 
ATOM     14  C   UNL     1      -0.200   1.954   3.599  0.00  0.00    +0.316 C 
ATOM     15  O   UNL     1      -1.336   1.633   3.890  0.00  0.00    -0.251 OA
ATOM     16  N   UNL     1       0.186   1.969   2.308  0.00  0.00    -0.295 N 
ATOM     17  H   UNL     1       0.358   2.284   5.621  0.00  0.00    +0.174 HD
ATOM     18  H   UNL     1       1.214   2.260   2.044  0.00  0.00    +0.151 HD
BRANCH  16  19
ATOM     19  C   UNL     1      -0.763   1.597   1.255  0.00  0.00    +0.074 C 
ATOM     20  C   UNL     1      -0.013   1.086   0.008  0.00  0.00    +0.022 C 
ATOM     21  C   UNL     1      -0.784   1.609  -1.216  0.00  0.00    +0.002 C 
ATOM     22  C   UNL     1      -1.978   2.421  -0.670  0.00  0.00    +0.002 C 
ATOM     23  C   UNL     1      -1.531   2.845   0.750  0.00  0.00    +0.022 C 
ENDBRANCH  16  19
ENDBRANCH   3  13
TORSDOF 3
