REMARK  Name = ZINC17397949
REMARK  9 active torsions:
REMARK  status: ('A' for Active; 'I' for Inactive)
REMARK    1  A    between atoms: C_1  and  C_2
REMARK    2  A    between atoms: C_2  and  C_3
REMARK    3  A    between atoms: C_3  and  C_4
REMARK    4  A    between atoms: C_4  and  C_5
REMARK    5  A    between atoms: C_5  and  N_6
REMARK    6  A    between atoms: C_15  and  C_17
REMARK    7  A    between atoms: N_19  and  N_20
REMARK    8  A    between atoms: C_21  and  C_23
REMARK    9  A    between atoms: N_27  and  C_28
REMARK                            x       y       z     vdW  Elec       q    Type
REMARK                         _______ _______ _______ _____ _____    ______ ____
ROOT
ATOM      1  C   UNL     1      -1.152   1.669  -0.960  0.00  0.00    +0.281 C 
ATOM      2  O   UNL     1      -1.174   2.878  -0.839  0.00  0.00    -0.267 OA
ATOM      3  N   UNL     1       0.014   1.002  -0.854  0.00  0.00    -0.229 N 
ATOM      4  H   UNL     1       0.032   0.037  -0.951  0.00  0.00    +0.173 HD
ENDROOT
BRANCH   1  14
ATOM      5  N   UNL     1      -3.427  -1.086  -1.584  0.00  0.00    -0.228 N 
ATOM      6  C   UNL     1      -4.668  -0.573  -1.716  0.00  0.00    +0.275 A 
ATOM      7  O   UNL     1      -5.621  -1.298  -1.933  0.00  0.00    -0.266 OA
ATOM      8  C   UNL     1      -4.841   0.881  -1.593  0.00  0.00    +0.050 A 
ATOM      9  C   UNL     1      -6.078   1.507  -1.713  0.00  0.00    +0.014 A 
ATOM     10  C   UNL     1      -6.156   2.878  -1.583  0.00  0.00    +0.001 A 
ATOM     11  C   UNL     1      -5.018   3.634  -1.336  0.00  0.00    +0.001 A 
ATOM     12  C   UNL     1      -3.783   3.032  -1.214  0.00  0.00    +0.011 A 
ATOM     13  C   UNL     1      -3.683   1.650  -1.334  0.00  0.00    +0.020 A 
ATOM     14  C   UNL     1      -2.403   0.931  -1.223  0.00  0.00    +0.155 A 
ATOM     15  N   UNL     1      -2.389  -0.373  -1.355  0.00  0.00    -0.163 NA
BRANCH   5  16
ATOM     16  C   UNL     1      -3.259  -2.536  -1.708  0.00  0.00    +0.147 C 
BRANCH  16  17
ATOM     17  C   UNL     1      -2.988  -2.895  -3.170  0.00  0.00    +0.023 C 
BRANCH  17  18
ATOM     18  C   UNL     1      -2.813  -4.409  -3.300  0.00  0.00    +0.002 C 
BRANCH  18  20
ATOM     19  C   UNL     1      -2.367  -6.282  -4.891  0.00  0.00    +0.004 C 
ATOM     20  C   UNL     1      -2.542  -4.768  -4.762  0.00  0.00    -0.003 C 
ENDBRANCH  18  20
ENDBRANCH  17  18
ENDBRANCH  16  17
ENDBRANCH   5  16
ENDBRANCH   1  14
BRANCH   3  21
ATOM     21  N   UNL     1       1.202   1.703  -0.610  0.00  0.00    -0.229 N 
ATOM     22  C   UNL     1       2.370   1.036  -0.510  0.00  0.00    +0.278 C 
ATOM     23  O   UNL     1       2.381  -0.180  -0.550  0.00  0.00    -0.267 OA
ATOM     24  H   UNL     1       1.185   2.668  -0.514  0.00  0.00    +0.173 HD
BRANCH  22  25
ATOM     25  C   UNL     1       3.626   1.777  -0.352  0.00  0.00    +0.130 A 
ATOM     26  C   UNL     1       3.773   3.134  -0.268  0.00  0.00    +0.144 A 
ATOM     27  N   UNL     1       5.073   3.396  -0.131  0.00  0.00    -0.243 NA
ATOM     28  C   UNL     1       5.751   2.276  -0.124  0.00  0.00    +0.204 A 
ATOM     29  N   UNL     1       4.898   1.242  -0.253  0.00  0.00    -0.295 N 
BRANCH  29  30
ATOM     30  C   UNL     1       5.235  -0.118  -0.284  0.00  0.00    +0.048 A 
ATOM     31  C   UNL     1       4.665  -0.997   0.628  0.00  0.00    +0.029 A 
ATOM     32  C   UNL     1       4.994  -2.337   0.592  0.00  0.00    +0.040 A 
ATOM     33  C   UNL     1       5.900  -2.804  -0.345  0.00  0.00    +0.124 A 
ATOM     34  C   UNL     1       6.474  -1.929  -1.252  0.00  0.00    +0.040 A 
ATOM     35  C   UNL     1       6.143  -0.588  -1.223  0.00  0.00    +0.029 A 
ATOM     36  F   UNL     1       6.225  -4.115  -0.375  0.00  0.00    -0.205 F 
ENDBRANCH  29  30
ENDBRANCH  22  25
ENDBRANCH   3  21
TORSDOF 8
