REMARK  Name = ZINC18080467
REMARK  13 active torsions:
REMARK  status: ('A' for Active; 'I' for Inactive)
REMARK    1  A    between atoms: C_1  and  C_2
REMARK    2  A    between atoms: C_2  and  C_3
REMARK    3  A    between atoms: C_3  and  N_4
REMARK    4  A    between atoms: N_9  and  C_13
REMARK    5  A    between atoms: C_13  and  C_14
REMARK    6  A    between atoms: C_14  and  C_15
REMARK    7  A    between atoms: C_17  and  C_19
REMARK    8  A    between atoms: N_26  and  C_34
REMARK    9  A    between atoms: N_30  and  C_31
REMARK   10  A    between atoms: C_31  and  C_32
REMARK   11  A    between atoms: C_32  and  C_33
REMARK   12  A    between atoms: C_34  and  C_35
REMARK   13  A    between atoms: C_35  and  C_36
REMARK                            x       y       z     vdW  Elec       q    Type
REMARK                         _______ _______ _______ _____ _____    ______ ____
ROOT
ATOM      1  N   UNL     1      -0.021   1.687   0.011  0.00  0.00    -0.134 NA
ATOM      2  C   UNL     1       1.409   1.962  -0.001  0.00  0.00    +0.258 C 
ATOM      3  C   UNL     1       1.951   0.988  -1.102  0.00  0.00    +0.258 C 
ATOM      4  N   UNL     1       1.507  -0.327  -0.690  0.00  0.00    -0.134 NA
ATOM      5  S   UNL     1       0.002  -0.004   0.002  0.00  0.00    +0.104 S 
ATOM      6  O   UNL     1       0.055  -0.436   1.355  0.00  0.00    -0.141 OA
ATOM      7  O   UNL     1      -0.990  -0.438  -0.918  0.00  0.00    -0.141 OA
ATOM      8  O   UNL     1       3.306   1.389  -1.099  0.00  0.00    -0.323 OA
ATOM      9  C   UNL     1       3.214   2.835  -1.065  0.00  0.00    +0.311 C 
ATOM     10  O   UNL     1       1.951   3.185  -0.440  0.00  0.00    -0.323 OA
ENDROOT
BRANCH   9  11
ATOM     11  C   UNL     1       4.373   3.396  -0.238  0.00  0.00    +0.311 C 
ATOM     12  O   UNL     1       4.281   4.849  -0.185  0.00  0.00    -0.323 OA
ATOM     13  C   UNL     1       5.638   5.242  -0.201  0.00  0.00    +0.258 C 
ATOM     14  C   UNL     1       6.180   4.267  -1.301  0.00  0.00    +0.258 C 
ATOM     15  O   UNL     1       5.636   3.044  -0.862  0.00  0.00    -0.323 OA
ATOM     16  N   UNL     1       7.610   4.539  -1.312  0.00  0.00    -0.134 NA
ATOM     17  S   UNL     1       7.590   6.231  -1.303  0.00  0.00    +0.104 S 
ATOM     18  O   UNL     1       7.539   6.662  -2.656  0.00  0.00    -0.141 OA
ATOM     19  O   UNL     1       8.582   6.667  -0.384  0.00  0.00    -0.141 OA
ATOM     20  N   UNL     1       6.084   6.555  -0.613  0.00  0.00    -0.134 NA
BRANCH  20  21
ATOM     21  C   UNL     1       5.401   7.843  -0.467  0.00  0.00    +0.113 C 
BRANCH  21  22
ATOM     22  C   UNL     1       5.694   8.421   0.919  0.00  0.00    +0.014 C 
ATOM     23  C   UNL     1       4.981   9.766   1.071  0.00  0.00    +0.005 C 
ENDBRANCH  21  22
ENDBRANCH  20  21
BRANCH  16  24
ATOM     24  C   UNL     1       8.745   3.612  -1.326  0.00  0.00    +0.113 C 
BRANCH  24  25
ATOM     25  C   UNL     1       9.048   3.200  -2.768  0.00  0.00    +0.014 C 
ATOM     26  C   UNL     1      10.233   2.232  -2.782  0.00  0.00    +0.005 C 
ENDBRANCH  24  25
ENDBRANCH  16  24
ENDBRANCH   9  11
BRANCH   1  27
ATOM     27  C   UNL     1      -1.157   2.612   0.022  0.00  0.00    +0.113 C 
BRANCH  27  29
ATOM     28  C   UNL     1      -2.651   3.991   1.474  0.00  0.00    +0.005 C 
ATOM     29  C   UNL     1      -1.465   3.025   1.463  0.00  0.00    +0.014 C 
ENDBRANCH  27  29
ENDBRANCH   1  27
BRANCH   4  30
ATOM     30  C   UNL     1       2.191  -1.613  -0.837  0.00  0.00    +0.113 C 
BRANCH  30  31
ATOM     31  C   UNL     1       1.898  -2.192  -2.223  0.00  0.00    +0.014 C 
ATOM     32  C   UNL     1       2.612  -3.536  -2.376  0.00  0.00    +0.005 C 
ENDBRANCH  30  31
ENDBRANCH   4  30
TORSDOF 9
