REMARK  Name = ZINC13032304
REMARK  12 active torsions:
REMARK  status: ('A' for Active; 'I' for Inactive)
REMARK    1  A    between atoms: C_1  and  C_2
REMARK    2  A    between atoms: C_2  and  C_3
REMARK    3  A    between atoms: C_3  and  C_4
REMARK    4  A    between atoms: C_3  and  C_5
REMARK    5  A    between atoms: C_3  and  N_6
REMARK    6  A    between atoms: C_7  and  C_9
REMARK    7  A    between atoms: C_9  and  C_11
REMARK    8  A    between atoms: C_9  and  N_18
REMARK    9  A    between atoms: C_14  and  O_17
REMARK   10  A    between atoms: N_18  and  C_19
REMARK   11  A    between atoms: C_26  and  C_28
REMARK   12  A    between atoms: C_28  and  N_29
REMARK                            x       y       z     vdW  Elec       q    Type
REMARK                         _______ _______ _______ _____ _____    ______ ____
ROOT
ATOM      1  N   UNL     1      -4.643   3.230  -2.169  0.00  0.00    -0.251 N 
ATOM      2  C   UNL     1      -3.761   4.250  -2.168  0.00  0.00    +0.242 C 
ATOM      3  O   UNL     1      -4.009   5.266  -2.781  0.00  0.00    -0.273 OA
ENDROOT
BRANCH   1   4
ATOM      4  C   UNL     1      -4.356   2.056  -1.460  0.00  0.00    +0.073 A 
ATOM      5  C   UNL     1      -4.655   1.970  -0.108  0.00  0.00    +0.026 A 
ATOM      6  C   UNL     1      -4.372   0.811   0.589  0.00  0.00    +0.002 A 
ATOM      7  C   UNL     1      -3.792  -0.264  -0.060  0.00  0.00    +0.003 A 
ATOM      8  C   UNL     1      -3.492  -0.183  -1.407  0.00  0.00    +0.040 A 
ATOM      9  C   UNL     1      -3.777   0.973  -2.112  0.00  0.00    +0.145 A 
ATOM     10  F   UNL     1      -3.490   1.050  -3.429  0.00  0.00    -0.204 F 
ENDBRANCH   1   4
BRANCH   1  11
ATOM     11  C   UNL     1      -5.900   3.349  -2.911  0.00  0.00    +0.197 C 
BRANCH  11  12
ATOM     12  C   UNL     1      -6.791   4.357  -2.231  0.00  0.00    -0.018 A 
ATOM     13  C   UNL     1      -6.985   4.295  -0.864  0.00  0.00    +0.009 A 
ATOM     14  C   UNL     1      -7.797   5.220  -0.237  0.00  0.00    +0.046 A 
ATOM     15  C   UNL     1      -8.427   6.206  -0.983  0.00  0.00    +0.117 A 
ATOM     16  C   UNL     1      -8.235   6.263  -2.356  0.00  0.00    +0.046 A 
ATOM     17  C   UNL     1      -7.417   5.338  -2.977  0.00  0.00    +0.009 A 
BRANCH  15  18
ATOM     18  O   UNL     1      -9.231   7.114  -0.370  0.00  0.00    -0.507 OA
ATOM     19  H   UNL     1     -10.157   6.843  -0.312  0.00  0.00    +0.292 HD
ENDBRANCH  15  18
ENDBRANCH  11  12
BRANCH  11  21
ATOM     20  N   UNL     1      -7.141   1.567  -4.094  0.00  0.00    -0.308 N 
ATOM     21  C   UNL     1      -6.591   2.010  -2.947  0.00  0.00    +0.239 C 
ATOM     22  O   UNL     1      -6.653   1.333  -1.943  0.00  0.00    -0.273 OA
ATOM     23  H   UNL     1      -7.092   2.108  -4.897  0.00  0.00    +0.149 HD
BRANCH  20  24
ATOM     24  C   UNL     1      -7.813   0.265  -4.129  0.00  0.00    +0.029 C 
ATOM     25  C   UNL     1      -6.818  -0.833  -3.747  0.00  0.00    +0.031 C 
ATOM     26  C   UNL     1      -8.978   0.266  -3.137  0.00  0.00    +0.031 C 
BRANCH  24  28
ATOM     27  C   UNL     1      -9.046  -1.356  -5.576  0.00  0.00    +0.006 C 
ATOM     28  C   UNL     1      -8.345   0.003  -5.540  0.00  0.00    +0.022 C 
ENDBRANCH  24  28
ENDBRANCH  20  24
ENDBRANCH  11  21
ENDBRANCH   1  11
BRANCH   2  29
ATOM     29  C   UNL     1      -2.468   4.127  -1.404  0.00  0.00    +0.242 C 
BRANCH  29  30
ATOM     30  N   UNL     1      -1.690   5.359  -1.560  0.00  0.00    -0.235 N 
ATOM     31  C   UNL     1      -0.766   5.630  -2.540  0.00  0.00    +0.090 A 
ATOM     32  C   UNL     1      -0.280   4.920  -3.633  0.00  0.00    +0.029 A 
ATOM     33  C   UNL     1       0.669   5.482  -4.441  0.00  0.00    +0.002 A 
ATOM     34  C   UNL     1       1.146   6.761  -4.186  0.00  0.00    +0.002 A 
ATOM     35  C   UNL     1       0.681   7.480  -3.124  0.00  0.00    +0.032 A 
ATOM     36  C   UNL     1      -0.287   6.925  -2.277  0.00  0.00    +0.113 A 
ATOM     37  N   UNL     1      -0.921   7.380  -1.178  0.00  0.00    -0.129 NA
ATOM     38  N   UNL     1      -1.743   6.494  -0.737  0.00  0.00    -0.064 NA
ENDBRANCH  29  30
ENDBRANCH   2  29
TORSDOF 9
