REMARK  Name = ZINC06828175
REMARK  3 active torsions:
REMARK  status: ('A' for Active; 'I' for Inactive)
REMARK    1  A    between atoms: C_1  and  N_2
REMARK    2  A    between atoms: C_4  and  C_7
REMARK    3  A    between atoms: C_12  and  C_15
REMARK                            x       y       z     vdW  Elec       q    Type
REMARK                         _______ _______ _______ _____ _____    ______ ____
ROOT
ATOM      1  C   UNL     1       2.502   1.489  -0.013  0.00  0.00    +0.253 C 
ATOM      2  O   UNL     1       2.786   0.307  -0.021  0.00  0.00    -0.270 OA
ATOM      3  N   UNL     1       3.480   2.417  -0.017  0.00  0.00    -0.261 N 
ATOM      4  C   UNL     1       4.812   2.022  -0.031  0.00  0.00    +0.165 A 
ATOM      5  N   UNL     1       5.898   2.770  -0.043  0.00  0.00    -0.229 NA
ATOM      6  C   UNL     1       7.100   2.229  -0.052  0.00  0.00    +0.057 A 
ATOM      7  C   UNL     1       7.200   0.877  -0.060  0.00  0.00    +0.072 A 
ATOM      8  S   UNL     1       5.474   0.417  -0.046  0.00  0.00    -0.060 S 
ATOM      9  H   UNL     1       3.254   3.360  -0.011  0.00  0.00    +0.157 HD
ENDROOT
BRANCH   6  10
ATOM     10  C   UNL     1       8.335   3.093  -0.059  0.00  0.00    +0.014 C 
ATOM     11  C   UNL     1       9.328   2.555  -1.091  0.00  0.00    +0.016 C 
ATOM     12  C   UNL     1      10.582   3.433  -1.098  0.00  0.00    -0.010 C 
ATOM     13  C   UNL     1      10.197   4.869  -1.461  0.00  0.00    +0.007 C 
ATOM     14  C   UNL     1       9.203   5.407  -0.429  0.00  0.00    -0.010 C 
ATOM     15  C   UNL     1       7.950   4.529  -0.422  0.00  0.00    +0.016 C 
ATOM     16  C   UNL     1       9.848   5.386   0.958  0.00  0.00    +0.007 C 
ATOM     17  C   UNL     1      10.233   3.951   1.321  0.00  0.00    -0.010 C 
ATOM     18  C   UNL     1      11.226   3.413   0.289  0.00  0.00    +0.007 C 
ATOM     19  C   UNL     1       8.979   3.073   1.328  0.00  0.00    +0.016 C 
ENDBRANCH   6  10
BRANCH   1  23
ATOM     20  C   UNL     1      -2.493   1.385   0.020  0.00  0.00    +0.172 C 
ATOM     21  N   UNL     1      -1.105   1.856   0.017  0.00  0.00    -0.274 N 
ATOM     22  C   UNL     1      -0.013   1.076   0.008  0.00  0.00    +0.121 A 
ATOM     23  C   UNL     1       1.089   1.908   0.002  0.00  0.00    +0.074 A 
ATOM     24  C   UNL     1       0.608   3.237   0.013  0.00  0.00    +0.147 A 
ATOM     25  N   UNL     1      -0.696   3.194   0.025  0.00  0.00    -0.179 NA
ENDBRANCH   1  23
TORSDOF 2
