REMARK  Name = ZINC35701082
REMARK  13 active torsions:
REMARK  status: ('A' for Active; 'I' for Inactive)
REMARK    1  A    between atoms: C_1  and  C_2
REMARK    2  A    between atoms: C_3  and  C_32
REMARK    3  A    between atoms: C_4  and  C_23
REMARK    4  A    between atoms: C_7  and  C_12
REMARK    5  A    between atoms: C_13  and  N_15
REMARK    6  A    between atoms: N_15  and  C_16
REMARK    7  A    between atoms: C_16  and  C_17
REMARK    8  A    between atoms: C_26  and  N_29
REMARK    9  A    between atoms: C_32  and  O_34
REMARK   10  A    between atoms: O_34  and  C_35
REMARK   11  A    between atoms: C_35  and  C_36
REMARK   12  A    between atoms: C_36  and  O_37
REMARK   13  A    between atoms: O_37  and  C_38
REMARK                            x       y       z     vdW  Elec       q    Type
REMARK                         _______ _______ _______ _____ _____    ______ ____
ROOT
ATOM      1  C   UNL     1      -0.010   1.547   0.227  0.00  0.00    +0.066 C 
ATOM      2  C   UNL     1      -0.009   0.041   0.166  0.00  0.00    +0.053 C 
ATOM      3  C   UNL     1      -1.208  -0.645   0.149  0.00  0.00    +0.082 C 
ATOM      4  C   UNL     1      -1.155  -2.155   0.086  0.00  0.00    +0.150 C 
ATOM      5  N   UNL     1       0.192  -2.784   0.047  0.00  0.00    -0.267 N 
ATOM      6  C   UNL     1       0.477  -4.134  -0.012  0.00  0.00    +0.048 C 
ATOM      7  C   UNL     1       1.778  -4.498  -0.040  0.00  0.00    +0.072 C 
ATOM      8  S   UNL     1       2.605  -2.921   0.017  0.00  0.00    -0.060 S 
ATOM      9  C   UNL     1       1.255  -1.925   0.072  0.00  0.00    +0.166 C 
ATOM     10  N   UNL     1       1.139  -0.614   0.122  0.00  0.00    -0.230 NA
ENDROOT
BRANCH   4  11
ATOM     11  C   UNL     1      -1.908  -2.595  -1.143  0.00  0.00    -0.022 A 
ATOM     12  C   UNL     1      -1.347  -2.425  -2.395  0.00  0.00    +0.008 A 
ATOM     13  C   UNL     1      -2.037  -2.828  -3.523  0.00  0.00    +0.033 A 
ATOM     14  C   UNL     1      -3.288  -3.402  -3.399  0.00  0.00    +0.126 A 
ATOM     15  C   UNL     1      -3.849  -3.574  -2.147  0.00  0.00    +0.033 A 
ATOM     16  C   UNL     1      -3.157  -3.174  -1.019  0.00  0.00    +0.008 A 
BRANCH  14  17
ATOM     17  N   UNL     1      -4.027  -3.833  -4.607  0.00  0.00    +0.056 N 
ATOM     18  O   UNL     1      -3.537  -3.683  -5.701  0.00  0.00    -0.126 OA
ATOM     19  O   UNL     1      -5.122  -4.336  -4.498  0.00  0.00    -0.126 OA
ENDBRANCH  14  17
ENDBRANCH   4  11
BRANCH   6  20
ATOM     20  C   UNL     1      -0.595  -5.138  -0.043  0.00  0.00    +0.091 C 
ATOM     21  C   UNL     1      -0.294  -6.448   0.046  0.00  0.00    +0.239 C 
ATOM     22  O   UNL     1       0.980  -6.835   0.298  0.00  0.00    -0.271 OA
BRANCH  21  23
ATOM     23  N   UNL     1      -1.287  -7.399  -0.119  0.00  0.00    -0.308 N 
ATOM     24  H   UNL     1      -2.211  -7.123  -0.226  0.00  0.00    +0.149 HD
BRANCH  23  25
ATOM     25  C   UNL     1      -0.942  -8.823  -0.134  0.00  0.00    +0.141 C 
BRANCH  25  26
ATOM     26  C   UNL     1      -2.172  -9.635  -0.448  0.00  0.00    -0.012 A 
ATOM     27  C   UNL     1      -2.999 -10.081   0.572  0.00  0.00    +0.008 A 
ATOM     28  C   UNL     1      -4.119 -10.825   0.235  0.00  0.00    +0.020 A 
ATOM     29  C   UNL     1      -4.373 -11.095  -1.096  0.00  0.00    +0.111 A 
ATOM     30  N   UNL     1      -3.564 -10.655  -2.040  0.00  0.00    -0.263 NA
ATOM     31  C   UNL     1      -2.493  -9.940  -1.757  0.00  0.00    +0.115 A 
ENDBRANCH  25  26
ENDBRANCH  23  25
ENDBRANCH  21  23
ENDBRANCH   6  20
BRANCH   3  32
ATOM     32  C   UNL     1      -2.432   0.035   0.190  0.00  0.00    +0.339 C 
ATOM     33  O   UNL     1      -2.451   1.252   0.240  0.00  0.00    -0.245 OA
BRANCH  32  34
ATOM     34  O   UNL     1      -3.591  -0.659   0.172  0.00  0.00    -0.459 OA
BRANCH  34  35
ATOM     35  C   UNL     1      -4.802   0.099   0.216  0.00  0.00    +0.260 C 
BRANCH  35  36
ATOM     36  C   UNL     1      -6.000  -0.852   0.188  0.00  0.00    +0.200 C 
BRANCH  36  37
ATOM     37  O   UNL     1      -6.007  -1.644   1.377  0.00  0.00    -0.380 OA
ATOM     38  C   UNL     1      -7.093  -2.571   1.452  0.00  0.00    +0.194 C 
ENDBRANCH  36  37
ENDBRANCH  35  36
ENDBRANCH  34  35
ENDBRANCH  32  34
ENDBRANCH   3  32
TORSDOF 11
