REMARK  Name = ZINC63698931
REMARK  4 active torsions:
REMARK  status: ('A' for Active; 'I' for Inactive)
REMARK    1  A    between atoms: C_1  and  C_2
REMARK    2  A    between atoms: C_4  and  C_23
REMARK    3  A    between atoms: N_12  and  C_14
REMARK    4  A    between atoms: C_28  and  C_29
REMARK                            x       y       z     vdW  Elec       q    Type
REMARK                         _______ _______ _______ _____ _____    ______ ____
ROOT
ATOM      1  C   UNL     1      -0.993   1.413  -0.771  0.00  0.00    +0.062 C 
ATOM      2  C   UNL     1      -0.646  -0.052  -0.842  0.00  0.00    +0.019 C 
ATOM      3  C   UNL     1      -1.442  -1.015  -0.475  0.00  0.00    -0.008 C 
ATOM      4  C   UNL     1      -2.771  -0.987   0.239  0.00  0.00    +0.059 C 
ATOM      5  C   UNL     1      -2.558  -1.728   1.568  0.00  0.00    +0.108 C 
ATOM      6  C   UNL     1      -1.647  -2.902   1.410  0.00  0.00    +0.215 C 
ATOM      7  O   UNL     1      -1.706  -3.747   2.278  0.00  0.00    -0.276 OA
ATOM      8  N   UNL     1      -0.774  -3.128   0.427  0.00  0.00    -0.295 N 
ATOM      9  C   UNL     1      -0.740  -2.326  -0.789  0.00  0.00    +0.194 C 
ATOM     10  N   UNL     1       0.612  -1.912  -1.182  0.00  0.00    -0.164 NA
ATOM     11  N   UNL     1       0.561  -0.548  -1.310  0.00  0.00    -0.277 N 
ATOM     12  H   UNL     1      -0.138  -3.854   0.525  0.00  0.00    +0.151 HD
ATOM     13  H   UNL     1       1.274  -0.003  -1.677  0.00  0.00    +0.166 HD
ENDROOT
BRANCH  10  14
ATOM     14  C   UNL     1       1.599  -2.314  -0.172  0.00  0.00    +0.270 C 
ATOM     15  N   UNL     1       1.407  -1.537   1.059  0.00  0.00    -0.350 N 
ATOM     16  C   UNL     1       2.504  -0.870   1.275  0.00  0.00    +0.061 A 
ATOM     17  C   UNL     1       2.912   0.066   2.332  0.00  0.00    +0.027 A 
ATOM     18  C   UNL     1       4.142   0.617   2.294  0.00  0.00    +0.002 A 
ATOM     19  C   UNL     1       5.068   0.333   1.274  0.00  0.00    +0.002 A 
ATOM     20  C   UNL     1       4.796  -0.510   0.258  0.00  0.00    +0.027 A 
ATOM     21  C   UNL     1       3.484  -1.170   0.196  0.00  0.00    +0.061 A 
ATOM     22  N   UNL     1       2.956  -2.011  -0.645  0.00  0.00    -0.350 N 
ATOM     23  H   UNL     1       0.609  -1.523   1.610  0.00  0.00    +0.163 HD
ATOM     24  H   UNL     1       3.381  -2.372  -1.439  0.00  0.00    +0.163 HD
ENDBRANCH  10  14
BRANCH   4  25
ATOM     25  C   UNL     1      -3.189   0.438   0.500  0.00  0.00    -0.028 A 
ATOM     26  C   UNL     1      -2.596   1.156   1.522  0.00  0.00    +0.005 A 
ATOM     27  C   UNL     1      -2.980   2.462   1.761  0.00  0.00    +0.000 A 
ATOM     28  C   UNL     1      -3.955   3.051   0.978  0.00  0.00    +0.001 A 
ATOM     29  C   UNL     1      -4.546   2.333  -0.045  0.00  0.00    +0.012 A 
ATOM     30  C   UNL     1      -4.160   1.028  -0.287  0.00  0.00    +0.059 A 
BRANCH  30  31
ATOM     31  C   UNL     1      -4.801   0.247  -1.405  0.00  0.00    +0.418 C 
ATOM     32  F   UNL     1      -5.746   1.051  -2.053  0.00  0.00    -0.166 F 
ATOM     33  F   UNL     1      -3.820  -0.148  -2.320  0.00  0.00    -0.166 F 
ATOM     34  F   UNL     1      -5.433  -0.885  -0.880  0.00  0.00    -0.166 F 
ENDBRANCH  30  31
ENDBRANCH   4  25
TORSDOF 3
