REMARK  Name = ZINC15125729
REMARK  10 active torsions:
REMARK  status: ('A' for Active; 'I' for Inactive)
REMARK    1  A    between atoms: C_1  and  C_2
REMARK    2  A    between atoms: C_3  and  N_11
REMARK    3  A    between atoms: C_7  and  N_8
REMARK    4  A    between atoms: C_12  and  C_14
REMARK    5  A    between atoms: C_14  and  N_15
REMARK    6  A    between atoms: N_15  and  C_16
REMARK    7  A    between atoms: C_21  and  C_22
REMARK    8  A    between atoms: C_22  and  N_60
REMARK    9  A    between atoms: C_23  and  N_60
REMARK   10  A    between atoms: C_24  and  N_60
REMARK                            x       y       z     vdW  Elec       q    Type
REMARK                         _______ _______ _______ _____ _____    ______ ____
ROOT
ATOM      1  N   UNL     1       0.135  -2.692   0.836  0.00  0.00    -0.335 N 
ATOM      2  H   UNL     1      -0.819  -2.868   0.831  0.00  0.00    +0.147 HD
ENDROOT
BRANCH   1   3
ATOM      3  C   UNL     1       1.040  -3.749   0.955  0.00  0.00    +0.029 A 
ATOM      4  C   UNL     1       2.407  -3.499   0.956  0.00  0.00    +0.023 A 
ATOM      5  C   UNL     1       3.299  -4.546   1.079  0.00  0.00    +0.002 A 
ATOM      6  C   UNL     1       2.833  -5.843   1.190  0.00  0.00    +0.000 A 
ATOM      7  C   UNL     1       1.474  -6.096   1.183  0.00  0.00    +0.003 A 
ATOM      8  C   UNL     1       0.576  -5.053   1.066  0.00  0.00    -0.043 A 
BRANCH   8   9
ATOM      9  C   UNL     1      -0.905  -5.330   1.060  0.00  0.00    -0.041 C 
BRANCH   9  11
ATOM     10  C   UNL     1      -0.835  -6.421  -1.101  0.00  0.00    -0.095 C 
ATOM     11  N   UNL     1      -1.392  -5.287  -0.335  0.00  0.00    +0.382 N 
ATOM     12  H   UNL     1      -1.084  -4.408  -0.769  0.00  0.00    -0.081 HD
BRANCH  11  13
ATOM     13  C   UNL     1      -2.869  -5.340  -0.356  0.00  0.00    -0.069 C 
ATOM     14  C   UNL     1      -3.366  -6.670   0.214  0.00  0.00    -0.015 C 
ATOM     15  C   UNL     1      -4.895  -6.701   0.180  0.00  0.00    -0.002 C 
ATOM     16  C   UNL     1      -5.376  -6.554  -1.266  0.00  0.00    -0.000 C 
ATOM     17  C   UNL     1      -4.879  -5.224  -1.836  0.00  0.00    -0.002 C 
ATOM     18  C   UNL     1      -3.350  -5.194  -1.801  0.00  0.00    -0.015 C 
ENDBRANCH  11  13
ENDBRANCH   9  11
ENDBRANCH   8   9
ENDBRANCH   1   3
BRANCH   1  19
ATOM     19  C   UNL     1       0.626  -1.317   0.718  0.00  0.00    +0.198 C 
BRANCH  19  21
ATOM     20  N   UNL     1      -0.331   0.952   0.485  0.00  0.00    -0.284 N 
ATOM     21  C   UNL     1      -0.543  -0.373   0.604  0.00  0.00    +0.234 C 
ATOM     22  O   UNL     1      -1.676  -0.807   0.619  0.00  0.00    -0.274 OA
ATOM     23  H   UNL     1       0.570   1.306   0.546  0.00  0.00    +0.155 HD
BRANCH  20  26
ATOM     24  C   UNL     1       0.011   3.709   1.101  0.00  0.00    +0.048 C 
ATOM     25  C   UNL     1      -1.285   3.170   0.554  0.00  0.00    +0.001 A 
ATOM     26  C   UNL     1      -1.409   1.817   0.267  0.00  0.00    +0.039 A 
ATOM     27  C   UNL     1      -2.607   1.323  -0.232  0.00  0.00    +0.024 A 
ATOM     28  C   UNL     1      -3.670   2.179  -0.446  0.00  0.00    +0.004 A 
ATOM     29  C   UNL     1      -3.542   3.526  -0.165  0.00  0.00    +0.033 A 
ATOM     30  C   UNL     1      -2.350   4.021   0.333  0.00  0.00    +0.131 A 
BRANCH  30  31
ATOM     31  N   UNL     1      -2.217   5.465   0.633  0.00  0.00    +0.057 N 
ATOM     32  O   UNL     1      -3.192   6.191   0.573  0.00  0.00    -0.126 OA
ATOM     33  O   UNL     1      -1.132   5.925   0.940  0.00  0.00    -0.126 OA
ENDBRANCH  30  31
ENDBRANCH  20  26
ENDBRANCH  19  21
ENDBRANCH   1  19
TORSDOF 8
