REMARK  Name = ZINC14467263
REMARK  4 active torsions:
REMARK  status: ('A' for Active; 'I' for Inactive)
REMARK    1  A    between atoms: C_6  and  S_7
REMARK    2  A    between atoms: S_7  and  N_10
REMARK    3  A    between atoms: C_23  and  C_26
REMARK    4  A    between atoms: C_31  and  O_32
REMARK                            x       y       z     vdW  Elec       q    Type
REMARK                         _______ _______ _______ _____ _____    ______ ____
ROOT
ATOM      1  C   UNL     1       1.972  -0.916   3.255  0.00  0.00    +0.030 A 
ATOM      2  C   UNL     1       2.898  -0.777   4.270  0.00  0.00    +0.025 A 
ATOM      3  C   UNL     1       2.706   0.177   5.260  0.00  0.00    +0.031 A 
ATOM      4  C   UNL     1       1.591   1.001   5.237  0.00  0.00    -0.018 A 
ATOM      5  C   UNL     1       0.670   0.856   4.209  0.00  0.00    +0.034 A 
ATOM      6  C   UNL     1       0.861  -0.093   3.225  0.00  0.00    +0.106 A 
ATOM      7  C   UNL     1       1.343   2.043   6.281  0.00  0.00    +0.049 C 
ATOM      8  C   UNL     1       1.631   3.429   5.757  0.00  0.00    -0.023 C 
ATOM      9  C   UNL     1       2.157   4.171   6.701  0.00  0.00    -0.030 C 
ATOM     10  C   UNL     1       2.285   3.380   7.988  0.00  0.00    +0.033 C 
ATOM     11  C   UNL     1       2.268   1.900   7.505  0.00  0.00    +0.029 C 
ATOM     12  C   UNL     1       3.689   1.554   7.048  0.00  0.00    +0.109 C 
ATOM     13  N   UNL     1       3.651   0.303   6.284  0.00  0.00    -0.336 N 
ATOM     14  H   UNL     1       4.266  -0.420   6.484  0.00  0.00    +0.147 HD
ENDROOT
BRANCH  12  15
ATOM     15  C   UNL     1       4.224   2.661   6.177  0.00  0.00    +0.017 A 
ATOM     16  C   UNL     1       4.008   2.633   4.812  0.00  0.00    +0.029 A 
ATOM     17  C   UNL     1       4.500   3.648   4.011  0.00  0.00    +0.043 A 
ATOM     18  C   UNL     1       5.208   4.695   4.575  0.00  0.00    +0.043 A 
ATOM     19  C   UNL     1       5.426   4.727   5.939  0.00  0.00    +0.084 A 
ATOM     20  C   UNL     1       4.929   3.712   6.745  0.00  0.00    +0.140 A 
ATOM     21 CL   UNL     1       6.314   6.041   6.646  0.00  0.00    -0.080 Cl
ATOM     22 CL   UNL     1       4.227   3.609   2.297  0.00  0.00    -0.083 Cl
BRANCH  20  23
ATOM     23  O   UNL     1       5.138   3.744   8.088  0.00  0.00    -0.505 OA
ATOM     24  H   UNL     1       5.952   3.305   8.370  0.00  0.00    +0.292 HD
ENDBRANCH  20  23
ENDBRANCH  12  15
BRANCH   6  25
ATOM     25  S   UNL     1      -0.320  -0.262   1.928  0.00  0.00    +0.061 S 
ATOM     26  O   UNL     1      -1.548   0.250   2.428  0.00  0.00    -0.153 OA
ATOM     27  O   UNL     1      -0.193  -1.587   1.432  0.00  0.00    -0.153 OA
BRANCH  25  28
ATOM     28  N   UNL     1       0.150   0.749   0.703  0.00  0.00    -0.172 NA
ATOM     29  C   UNL     1       1.051   0.280  -0.362  0.00  0.00    +0.137 C 
ATOM     30  C   UNL     1       0.428   0.636  -1.716  0.00  0.00    +0.177 C 
ATOM     31  O   UNL     1       0.097   2.027  -1.731  0.00  0.00    -0.377 OA
ATOM     32  C   UNL     1      -0.879   2.406  -0.758  0.00  0.00    +0.177 C 
ATOM     33  C   UNL     1      -0.323   2.141   0.646  0.00  0.00    +0.137 C 
ENDBRANCH  25  28
ENDBRANCH   6  25
TORSDOF 4
