REMARK  Name = ZINC63430272
REMARK  7 active torsions:
REMARK  status: ('A' for Active; 'I' for Inactive)
REMARK    1  A    between atoms: C_1  and  C_2
REMARK    2  A    between atoms: C_2  and  C_3
REMARK    3  A    between atoms: C_2  and  S_10
REMARK    4  A    between atoms: S_10  and  C_11
REMARK    5  A    between atoms: C_11  and  C_12
REMARK    6  A    between atoms: C_11  and  C_13
REMARK    7  A    between atoms: N_15  and  C_16
REMARK                            x       y       z     vdW  Elec       q    Type
REMARK                         _______ _______ _______ _____ _____    ______ ____
ROOT
ATOM      1  C   UNL     1      -3.662  -0.746  -2.132  0.00  0.00    +0.230 C 
ATOM      2  O   UNL     1      -4.561  -0.815  -1.321  0.00  0.00    -0.274 OA
ATOM      3  N   UNL     1      -3.844  -1.217  -3.381  0.00  0.00    -0.285 N 
ATOM      4  H   UNL     1      -3.105  -1.224  -4.010  0.00  0.00    +0.155 HD
ENDROOT
BRANCH   3   5
ATOM      5  C   UNL     1      -5.101  -1.696  -3.773  0.00  0.00    +0.035 A 
ATOM      6  C   UNL     1      -5.543  -1.498  -5.077  0.00  0.00    +0.025 A 
ATOM      7  C   UNL     1      -6.780  -1.968  -5.469  0.00  0.00    +0.029 A 
ATOM      8  C   UNL     1      -7.585  -2.639  -4.561  0.00  0.00    +0.067 A 
ATOM      9  C   UNL     1      -7.144  -2.838  -3.251  0.00  0.00    +0.069 A 
ATOM     10  C   UNL     1      -5.899  -2.371  -2.862  0.00  0.00    +0.051 A 
ATOM     11  N   UNL     1      -8.154  -3.531  -2.587  0.00  0.00    -0.306 N 
ATOM     12  H   UNL     1      -8.134  -3.813  -1.659  0.00  0.00    +0.170 HD
ATOM     13  C   UNL     1      -9.164  -3.743  -3.453  0.00  0.00    +0.325 A 
ATOM     14  O   UNL     1     -10.201  -4.323  -3.191  0.00  0.00    -0.247 OA
ATOM     15  N   UNL     1      -8.851  -3.217  -4.652  0.00  0.00    -0.306 N 
ATOM     16  H   UNL     1      -9.411  -3.237  -5.444  0.00  0.00    +0.170 HD
ENDBRANCH   3   5
BRANCH   1  17
ATOM     17  C   UNL     1      -2.341  -0.134  -1.742  0.00  0.00    +0.130 C 
ATOM     18  C   UNL     1      -2.325   1.343  -2.144  0.00  0.00    +0.029 C 
BRANCH  17  19
ATOM     19  S   UNL     1      -2.115  -0.275   0.052  0.00  0.00    -0.140 S 
BRANCH  19  21
ATOM     20  C   UNL     1      -0.160   0.425   1.832  0.00  0.00    +0.024 C 
ATOM     21  C   UNL     1      -0.423   0.317   0.329  0.00  0.00    +0.075 C 
BRANCH  21  22
ATOM     22  C   UNL     1       0.555  -0.651  -0.284  0.00  0.00    -0.016 A 
ATOM     23  C   UNL     1       0.196  -1.974  -0.466  0.00  0.00    +0.006 A 
ATOM     24  C   UNL     1       1.093  -2.863  -1.028  0.00  0.00    +0.000 A 
ATOM     25  C   UNL     1       2.350  -2.430  -1.409  0.00  0.00    +0.001 A 
ATOM     26  C   UNL     1       2.710  -1.108  -1.226  0.00  0.00    +0.020 A 
ATOM     27  C   UNL     1       1.810  -0.216  -0.669  0.00  0.00    +0.045 A 
ATOM     28 CL   UNL     1       2.260   1.445  -0.446  0.00  0.00    -0.083 Cl
ENDBRANCH  21  22
ENDBRANCH  19  21
ENDBRANCH  17  19
ENDBRANCH   1  17
TORSDOF 5
