REMARK  Name = ZINC39672894
REMARK  6 active torsions:
REMARK  status: ('A' for Active; 'I' for Inactive)
REMARK    1  A    between atoms: C_1  and  N_2
REMARK    2  A    between atoms: C_6  and  C_7
REMARK    3  A    between atoms: C_11  and  C_20
REMARK    4  A    between atoms: N_22  and  C_23
REMARK    5  A    between atoms: C_23  and  C_24
REMARK    6  A    between atoms: C_24  and  N_30
REMARK                            x       y       z     vdW  Elec       q    Type
REMARK                         _______ _______ _______ _____ _____    ______ ____
ROOT
ATOM      1  C   UNL     1      -0.217  -0.323   3.029  0.00  0.00    +0.263 C 
ATOM      2  O   UNL     1      -0.139  -1.060   3.994  0.00  0.00    -0.268 OA
ATOM      3  N   UNL     1      -0.405   1.000   3.205  0.00  0.00    -0.295 N 
ATOM      4  C   UNL     1      -0.669   2.026   2.169  0.00  0.00    +0.121 C 
ATOM      5  C   UNL     1      -1.714   2.967   2.808  0.00  0.00    +0.100 C 
ATOM      6  C   UNL     1      -1.528   2.788   4.324  0.00  0.00    -0.004 C 
ATOM      7  C   UNL     1      -0.401   1.756   4.480  0.00  0.00    +0.115 C 
ATOM      8  C   UNL     1      -2.812   2.257   4.955  0.00  0.00    -0.010 C 
ATOM      9  C   UNL     1      -2.620   2.141   6.470  0.00  0.00    -0.082 C 
ATOM     10  N   UNL     1      -2.287   3.459   7.025  0.00  0.00    +0.379 N 
ATOM     11  C   UNL     1      -1.004   3.921   6.483  0.00  0.00    -0.082 C 
ATOM     12  C   UNL     1      -1.127   4.112   4.968  0.00  0.00    -0.010 C 
ATOM     13  H   UNL     1      -3.011   4.118   6.781  0.00  0.00    -0.086 HD
ATOM     14  H   UNL     1      -2.221   3.392   8.030  0.00  0.00    -0.086 HD
ENDROOT
BRANCH   1  20
ATOM     15  C   UNL     1      -0.123  -3.328   2.283  0.00  0.00    +0.149 C 
ATOM     16  N   UNL     1      -0.065  -2.209   1.340  0.00  0.00    -0.346 N 
ATOM     17  C   UNL     1       0.034  -2.314  -0.008  0.00  0.00    +0.086 A 
ATOM     18  C   UNL     1       0.061  -1.071  -0.544  0.00  0.00    +0.020 A 
ATOM     19  C   UNL     1      -0.024  -0.150   0.504  0.00  0.00    +0.032 A 
ATOM     20  C   UNL     1      -0.107  -0.874   1.674  0.00  0.00    +0.104 A 
ENDBRANCH   1  20
BRANCH   5  21
ATOM     21  C   UNL     1      -1.447   4.396   2.410  0.00  0.00    +0.218 C 
ATOM     22  O   UNL     1      -0.307   4.780   2.260  0.00  0.00    -0.275 OA
ATOM     23  N   UNL     1      -2.475   5.246   2.221  0.00  0.00    -0.313 N 
ATOM     24  H   UNL     1      -3.387   4.939   2.341  0.00  0.00    +0.149 HD
BRANCH  23  25
ATOM     25  C   UNL     1      -2.216   6.635   1.833  0.00  0.00    +0.126 C 
BRANCH  25  26
ATOM     26  C   UNL     1      -3.534   7.412   1.806  0.00  0.00    +0.038 C 
ATOM     27  C   UNL     1      -3.281   8.825   1.278  0.00  0.00    +0.024 C 
ATOM     28  C   UNL     1      -2.286   9.542   2.193  0.00  0.00    +0.002 C 
ATOM     29  C   UNL     1      -2.861   9.621   3.609  0.00  0.00    +0.000 C 
ATOM     30  C   UNL     1      -3.113   8.207   4.137  0.00  0.00    +0.002 C 
ATOM     31  C   UNL     1      -4.109   7.491   3.222  0.00  0.00    +0.024 C 
BRANCH  26  32
ATOM     32  N   UNL     1      -4.489   6.724   0.927  0.00  0.00    -0.291 NA
ATOM     33  C   UNL     1      -3.897   6.462  -0.393  0.00  0.00    +0.113 C 
ATOM     34  C   UNL     1      -4.902   5.694  -1.254  0.00  0.00    +0.175 C 
ATOM     35  O   UNL     1      -6.117   6.444  -1.345  0.00  0.00    -0.377 OA
ATOM     36  C   UNL     1      -6.721   6.717  -0.077  0.00  0.00    +0.175 C 
ATOM     37  C   UNL     1      -5.734   7.495   0.796  0.00  0.00    +0.113 C 
ENDBRANCH  26  32
ENDBRANCH  25  26
ENDBRANCH  23  25
ENDBRANCH   5  21
TORSDOF 5
