REMARK  Name = ZINC23118587
REMARK  11 active torsions:
REMARK  status: ('A' for Active; 'I' for Inactive)
REMARK    1  A    between atoms: C_1  and  C_2
REMARK    2  A    between atoms: C_2  and  N_3
REMARK    3  A    between atoms: N_3  and  C_4
REMARK    4  A    between atoms: N_3  and  S_6
REMARK    5  A    between atoms: C_4  and  C_5
REMARK    6  A    between atoms: S_6  and  C_9
REMARK    7  A    between atoms: C_12  and  N_15
REMARK    8  A    between atoms: C_17  and  C_22
REMARK    9  A    between atoms: N_24  and  C_25
REMARK   10  A    between atoms: C_28  and  C_32
REMARK   11  A    between atoms: C_30  and  C_31
REMARK                            x       y       z     vdW  Elec       q    Type
REMARK                         _______ _______ _______ _____ _____    ______ ____
ROOT
ATOM      1  N   UNL     1      -0.074   0.104  -0.005  0.00  0.00    -0.271 N 
ATOM      2  C   UNL     1       1.301  -0.409  -0.042  0.00  0.00    +0.127 C 
ATOM      3  C   UNL     1       2.192   0.770   0.407  0.00  0.00    +0.102 C 
ATOM      4  C   UNL     1       1.320   1.988   0.027  0.00  0.00    +0.110 C 
ATOM      5  C   UNL     1      -0.093   1.448   0.028  0.00  0.00    +0.221 C 
ATOM      6  O   UNL     1      -1.097   2.127   0.051  0.00  0.00    -0.275 OA
ENDROOT
BRANCH   1  10
ATOM      7  C   UNL     1      -3.478  -2.297  -0.002  0.00  0.00    +0.106 A 
ATOM      8  C   UNL     1      -2.230  -2.871  -0.154  0.00  0.00    +0.030 A 
ATOM      9  C   UNL     1      -1.099  -2.078  -0.156  0.00  0.00    +0.025 A 
ATOM     10  C   UNL     1      -1.217  -0.703  -0.005  0.00  0.00    +0.036 A 
ATOM     11  C   UNL     1      -2.473  -0.130   0.153  0.00  0.00    +0.025 A 
ATOM     12  C   UNL     1      -3.600  -0.928   0.149  0.00  0.00    +0.030 A 
BRANCH   7  13
ATOM     13  S   UNL     1      -4.918  -3.313   0.001  0.00  0.00    +0.061 S 
ATOM     14  O   UNL     1      -6.003  -2.481  -0.387  0.00  0.00    -0.153 OA
ATOM     15  O   UNL     1      -4.579  -4.500  -0.702  0.00  0.00    -0.153 OA
BRANCH  13  16
ATOM     16  N   UNL     1      -5.201  -3.757   1.571  0.00  0.00    -0.177 NA
BRANCH  16  18
ATOM     17  C   UNL     1      -7.483  -3.463   2.400  0.00  0.00    +0.022 C 
ATOM     18  C   UNL     1      -6.051  -2.925   2.426  0.00  0.00    +0.106 C 
ENDBRANCH  16  18
BRANCH  16  19
ATOM     19  C   UNL     1      -4.601  -4.982   2.105  0.00  0.00    +0.106 C 
ATOM     20  C   UNL     1      -3.293  -4.639   2.821  0.00  0.00    +0.022 C 
ENDBRANCH  16  19
ENDBRANCH  13  16
ENDBRANCH   7  13
ENDBRANCH   1  10
BRANCH   3  21
ATOM     21  C   UNL     1       3.494   0.781  -0.352  0.00  0.00    +0.222 C 
ATOM     22  O   UNL     1       3.717  -0.069  -1.188  0.00  0.00    -0.275 OA
ATOM     23  N   UNL     1       4.412   1.737  -0.103  0.00  0.00    -0.285 N 
ATOM     24  H   UNL     1       4.238   2.470   0.699  0.00  0.00    +0.155 HD
BRANCH  23  25
ATOM     25  C   UNL     1       5.584   1.797  -0.864  0.00  0.00    +0.036 A 
ATOM     26  C   UNL     1       6.076   0.651  -1.476  0.00  0.00    +0.024 A 
ATOM     27  C   UNL     1       7.231   0.714  -2.231  0.00  0.00    +0.005 A 
ATOM     28  C   UNL     1       7.903   1.915  -2.369  0.00  0.00    -0.050 A 
ATOM     29  C   UNL     1       7.420   3.056  -1.756  0.00  0.00    +0.008 A 
ATOM     30  C   UNL     1       6.262   3.000  -1.004  0.00  0.00    -0.029 A 
ATOM     31  C   UNL     1       5.736   4.245  -0.337  0.00  0.00    +0.045 C 
ATOM     32  C   UNL     1       9.167   1.979  -3.188  0.00  0.00    +0.044 C 
ENDBRANCH  23  25
ENDBRANCH   3  21
TORSDOF 7
