REMARK  Name = ZINC63240790
REMARK  11 active torsions:
REMARK  status: ('A' for Active; 'I' for Inactive)
REMARK    1  A    between atoms: C_1  and  C_2
REMARK    2  A    between atoms: N_4  and  C_5
REMARK    3  A    between atoms: C_5  and  C_7
REMARK    4  A    between atoms: C_5  and  C_17
REMARK    5  A    between atoms: C_7  and  C_8
REMARK    6  A    between atoms: C_17  and  O_19
REMARK    7  A    between atoms: O_19  and  C_20
REMARK    8  A    between atoms: C_20  and  C_21
REMARK    9  A    between atoms: C_21  and  C_23
REMARK   10  A    between atoms: N_30  and  C_38
REMARK   11  A    between atoms: C_31  and  C_32
REMARK                            x       y       z     vdW  Elec       q    Type
REMARK                         _______ _______ _______ _____ _____    ______ ____
ROOT
ATOM      1  O   UNL     1      -0.596  -3.917   1.649  0.00  0.00    -0.455 OA
ENDROOT
BRANCH   1   2
ATOM      2  C   UNL     1      -0.407  -2.658   1.222  0.00  0.00    +0.328 C 
ATOM      3  O   UNL     1       0.347  -1.925   1.817  0.00  0.00    -0.249 OA
BRANCH   2   4
ATOM      4  C   UNL     1      -1.136  -2.159   0.001  0.00  0.00    +0.186 C 
BRANCH   4   8
ATOM      5  C   UNL     1      -0.018   1.503   0.010  0.00  0.00    +0.109 C 
ATOM      6  C   UNL     1       0.002  -0.004   0.002  0.00  0.00    +0.211 C 
ATOM      7  O   UNL     1       1.060  -0.596  -0.011  0.00  0.00    -0.276 OA
ATOM      8  N   UNL     1      -1.156  -0.694   0.009  0.00  0.00    -0.302 N 
ATOM      9  H   UNL     1      -2.002  -0.220   0.020  0.00  0.00    +0.150 HD
ENDBRANCH   4   8
BRANCH   4  10
ATOM     10  C   UNL     1      -0.420  -2.652  -1.258  0.00  0.00    +0.067 C 
BRANCH  10  11
ATOM     11  C   UNL     1      -1.215  -2.257  -2.475  0.00  0.00    -0.039 C 
ATOM     12  C   UNL     1      -1.033  -1.160  -3.245  0.00  0.00    -0.001 A 
ATOM     13  C   UNL     1      -0.077  -0.048  -3.181  0.00  0.00    +0.010 A 
ATOM     14  C   UNL     1      -0.143   0.928  -4.115  0.00  0.00    +0.001 A 
ATOM     15  C   UNL     1      -1.099   0.905  -5.139  0.00  0.00    +0.002 A 
ATOM     16  C   UNL     1      -2.010  -0.084  -5.264  0.00  0.00    +0.026 A 
ATOM     17  C   UNL     1      -2.033  -1.162  -4.337  0.00  0.00    +0.043 A 
ATOM     18  N   UNL     1      -2.803  -2.219  -4.246  0.00  0.00    -0.380 N 
ATOM     19  C   UNL     1      -2.374  -3.011  -3.088  0.00  0.00    +0.144 C 
ATOM     20  H   UNL     1      -3.532  -2.442  -4.846  0.00  0.00    +0.160 HD
ENDBRANCH  10  11
ENDBRANCH   4  10
ENDBRANCH   2   4
ENDBRANCH   1   2
BRANCH   1  21
ATOM     21  C   UNL     1       0.127  -4.322   2.812  0.00  0.00    +0.311 C 
BRANCH  21  22
ATOM     22  C   UNL     1      -0.209  -5.755   3.139  0.00  0.00    +0.203 C 
ATOM     23  O   UNL     1      -0.993  -6.368   2.442  0.00  0.00    -0.288 OA
BRANCH  22  24
ATOM     24  C   UNL     1       0.387  -6.384   4.255  0.00  0.00    +0.054 A 
ATOM     25  C   UNL     1       1.346  -5.785   5.202  0.00  0.00    +0.011 A 
ATOM     26  C   UNL     1       1.934  -4.527   5.309  0.00  0.00    +0.011 A 
ATOM     27  C   UNL     1       2.817  -4.271   6.335  0.00  0.00    +0.001 A 
ATOM     28  C   UNL     1       3.121  -5.261   7.259  0.00  0.00    +0.002 A 
ATOM     29  C   UNL     1       2.547  -6.510   7.164  0.00  0.00    +0.026 A 
ATOM     30  C   UNL     1       1.652  -6.788   6.135  0.00  0.00    +0.050 A 
ATOM     31  N   UNL     1       0.938  -7.920   5.795  0.00  0.00    -0.342 N 
ATOM     32  C   UNL     1       0.181  -7.692   4.686  0.00  0.00    +0.061 A 
ATOM     33  C   UNL     1       0.985  -9.188   6.528  0.00  0.00    +0.149 C 
BRANCH  32  34
ATOM     34  C   UNL     1      -0.712  -8.675   4.043  0.00  0.00    -0.001 A 
ATOM     35  C   UNL     1      -1.994  -8.297   3.636  0.00  0.00    +0.010 A 
ATOM     36  C   UNL     1      -2.823  -9.222   3.035  0.00  0.00    +0.001 A 
ATOM     37  C   UNL     1      -2.389 -10.520   2.837  0.00  0.00    +0.000 A 
ATOM     38  C   UNL     1      -1.120 -10.902   3.238  0.00  0.00    +0.001 A 
ATOM     39  C   UNL     1      -0.278  -9.987   3.834  0.00  0.00    +0.010 A 
ENDBRANCH  32  34
ENDBRANCH  22  24
ENDBRANCH  21  22
ENDBRANCH   1  21
TORSDOF 9
