REMARK  Name = ZINC20886406
REMARK  8 active torsions:
REMARK  status: ('A' for Active; 'I' for Inactive)
REMARK    1  A    between atoms: C_1  and  C_2
REMARK    2  A    between atoms: C_2  and  O_3
REMARK    3  A    between atoms: O_3  and  C_4
REMARK    4  A    between atoms: C_7  and  C_12
REMARK    5  A    between atoms: C_9  and  O_10
REMARK    6  A    between atoms: O_10  and  C_11
REMARK    7  A    between atoms: C_17  and  C_22
REMARK    8  A    between atoms: C_25  and  C_28
REMARK                            x       y       z     vdW  Elec       q    Type
REMARK                         _______ _______ _______ _____ _____    ______ ____
ROOT
ATOM      1  C   UNL     1      -1.209  -0.907  -0.021  0.00  0.00    +0.136 C 
ATOM      2  C   UNL     1      -0.020   0.025  -0.011  0.00  0.00    +0.036 C 
ATOM      3  C   UNL     1      -0.070   1.366  -0.001  0.00  0.00    +0.017 C 
ATOM      4  C   UNL     1       1.213   2.182  -0.024  0.00  0.00    +0.059 C 
ATOM      5  C   UNL     1       2.315   1.438   0.729  0.00  0.00    +0.032 C 
ATOM      6  C   UNL     1       2.533   0.093   0.026  0.00  0.00    +0.088 C 
ATOM      7  C   UNL     1       1.228  -0.643  -0.012  0.00  0.00    +0.163 C 
ATOM      8  O   UNL     1       1.241  -1.858  -0.046  0.00  0.00    -0.292 OA
ATOM      9  N   UNL     1      -1.208   2.107   0.034  0.00  0.00    -0.316 N 
ATOM     10  C   UNL     1      -2.315   1.893  -0.787  0.00  0.00    +0.052 A 
ATOM     11  C   UNL     1      -2.757   2.836  -1.697  0.00  0.00    +0.025 A 
ATOM     12  C   UNL     1      -3.912   2.591  -2.421  0.00  0.00    +0.002 A 
ATOM     13  C   UNL     1      -4.613   1.413  -2.235  0.00  0.00    +0.002 A 
ATOM     14  C   UNL     1      -4.159   0.460  -1.341  0.00  0.00    +0.025 A 
ATOM     15  C   UNL     1      -2.993   0.694  -0.628  0.00  0.00    +0.049 A 
ATOM     16  N   UNL     1      -2.475  -0.259   0.246  0.00  0.00    -0.331 N 
ATOM     17  H   UNL     1      -1.299   2.941   0.745  0.00  0.00    +0.152 HD
ATOM     18  H   UNL     1      -3.045  -0.516   1.151  0.00  0.00    +0.147 HD
ENDROOT
BRANCH   5  19
ATOM     19  C   UNL     1       3.588   2.243   0.698  0.00  0.00    -0.043 A 
ATOM     20  C   UNL     1       4.158   2.589  -0.514  0.00  0.00    +0.004 A 
ATOM     21  C   UNL     1       5.324   3.331  -0.542  0.00  0.00    +0.003 A 
ATOM     22  C   UNL     1       5.925   3.720   0.640  0.00  0.00    -0.050 A 
ATOM     23  C   UNL     1       5.358   3.370   1.851  0.00  0.00    +0.003 A 
ATOM     24  C   UNL     1       4.190   2.632   1.880  0.00  0.00    +0.004 A 
ATOM     25  C   UNL     1       7.197   4.526   0.609  0.00  0.00    +0.044 C 
ENDBRANCH   5  19
BRANCH   1  29
ATOM     26  C   UNL     1      -1.428  -2.783  -3.858  0.00  0.00    +0.162 A 
ATOM     27  C   UNL     1      -1.579  -1.410  -3.745  0.00  0.00    +0.050 A 
ATOM     28  C   UNL     1      -1.508  -0.807  -2.503  0.00  0.00    +0.009 A 
ATOM     29  C   UNL     1      -1.286  -1.570  -1.372  0.00  0.00    -0.019 A 
ATOM     30  C   UNL     1      -1.130  -2.940  -1.479  0.00  0.00    +0.055 A 
ATOM     31  C   UNL     1      -1.205  -3.551  -2.720  0.00  0.00    +0.162 A 
BRANCH  31  32
ATOM     32  O   UNL     1      -1.056  -4.899  -2.825  0.00  0.00    -0.491 OA
ATOM     33  C   UNL     1      -0.830  -5.624  -1.615  0.00  0.00    +0.277 C 
ENDBRANCH  31  32
BRANCH  26  34
ATOM     34  O   UNL     1      -1.497  -3.378  -5.079  0.00  0.00    -0.489 OA
BRANCH  34  36
ATOM     35  C   UNL     1      -1.773  -3.369  -7.480  0.00  0.00    +0.048 C 
ATOM     36  C   UNL     1      -1.728  -2.527  -6.204  0.00  0.00    +0.226 C 
ENDBRANCH  34  36
ENDBRANCH  26  34
ENDBRANCH   1  29
TORSDOF 5
