REMARK  Name = ZINC08684978
REMARK  2 active torsions:
REMARK  status: ('A' for Active; 'I' for Inactive)
REMARK    1  A    between atoms: C_1  and  C_2
REMARK    2  A    between atoms: C_14  and  C_20
REMARK                            x       y       z     vdW  Elec       q    Type
REMARK                         _______ _______ _______ _____ _____    ______ ____
ROOT
ATOM      1  C   UNL     1       0.499   1.500   0.086  0.00  0.00    +0.052 C 
ATOM      2  C   UNL     1       0.374  -0.025   0.056  0.00  0.00    +0.179 C 
ATOM      3  C   UNL     1      -1.102  -0.426   0.109  0.00  0.00    +0.095 C 
ATOM      4  C   UNL     1      -1.202  -1.941   0.206  0.00  0.00    +0.024 C 
ATOM      5  N   UNL     1      -2.302  -2.491  -0.373  0.00  0.00    -0.316 N 
ATOM      6  C   UNL     1      -3.105  -3.457   0.228  0.00  0.00    +0.052 A 
ATOM      7  C   UNL     1      -4.429  -3.216   0.552  0.00  0.00    +0.025 A 
ATOM      8  C   UNL     1      -5.188  -4.234   1.107  0.00  0.00    +0.002 A 
ATOM      9  C   UNL     1      -4.627  -5.478   1.332  0.00  0.00    +0.002 A 
ATOM     10  C   UNL     1      -3.299  -5.714   1.024  0.00  0.00    +0.025 A 
ATOM     11  C   UNL     1      -2.531  -4.692   0.487  0.00  0.00    +0.049 A 
ATOM     12  N   UNL     1      -1.165  -4.855   0.262  0.00  0.00    -0.331 N 
ATOM     13  C   UNL     1      -0.186  -4.117   1.035  0.00  0.00    +0.140 C 
ATOM     14  C   UNL     1      -0.235  -2.624   0.832  0.00  0.00    +0.078 C 
ATOM     15  C   UNL     1       0.881  -1.915   1.367  0.00  0.00    +0.339 C 
ATOM     16  O   UNL     1       1.020  -0.588   1.204  0.00  0.00    -0.458 OA
ATOM     17  O   UNL     1       1.731  -2.527   1.987  0.00  0.00    -0.245 OA
ATOM     18  H   UNL     1      -0.865  -5.471  -0.424  0.00  0.00    +0.147 HD
ATOM     19  H   UNL     1      -2.543  -2.192  -1.263  0.00  0.00    +0.152 HD
ENDROOT
BRANCH  13  20
ATOM     20  C   UNL     1      -0.414  -4.406   2.496  0.00  0.00    -0.023 A 
ATOM     21  C   UNL     1       0.596  -4.966   3.256  0.00  0.00    +0.007 A 
ATOM     22  C   UNL     1       0.388  -5.231   4.596  0.00  0.00    +0.020 A 
ATOM     23  C   UNL     1      -0.832  -4.936   5.178  0.00  0.00    +0.041 A 
ATOM     24  C   UNL     1      -1.843  -4.376   4.418  0.00  0.00    +0.020 A 
ATOM     25  C   UNL     1      -1.631  -4.106   3.079  0.00  0.00    +0.007 A 
ATOM     26 CL   UNL     1      -1.094  -5.269   6.861  0.00  0.00    -0.084 Cl
ENDBRANCH  13  20
TORSDOF 1
