REMARK  Name = ZINC45254514
REMARK  9 active torsions:
REMARK  status: ('A' for Active; 'I' for Inactive)
REMARK    1  A    between atoms: C_1  and  C_2
REMARK    2  A    between atoms: C_2  and  C_3
REMARK    3  A    between atoms: C_2  and  C_4
REMARK    4  A    between atoms: N_6  and  C_7
REMARK    5  A    between atoms: N_6  and  C_8
REMARK    6  A    between atoms: C_11  and  C_31
REMARK    7  A    between atoms: C_13  and  C_17
REMARK    8  A    between atoms: C_22  and  C_25
REMARK    9  A    between atoms: N_33  and  O_34
REMARK                            x       y       z     vdW  Elec       q    Type
REMARK                         _______ _______ _______ _____ _____    ______ ____
ROOT
ATOM      1  C   UNL     1      -3.389  -2.570  -0.440  0.00  0.00    +0.059 C 
ATOM      2  C   UNL     1      -3.612  -3.774  -1.360  0.00  0.00    +0.032 C 
ATOM      3  C   UNL     1      -2.514  -4.811  -1.103  0.00  0.00    +0.073 C 
ATOM      4  C   UNL     1      -2.525  -5.201   0.377  0.00  0.00    +0.028 C 
ATOM      5  N   UNL     1      -2.281  -4.012   1.202  0.00  0.00    +0.388 N 
ATOM      6  C   UNL     1      -3.368  -3.043   1.015  0.00  0.00    -0.059 C 
ATOM      7  H   UNL     1      -2.235  -4.282   2.173  0.00  0.00    -0.085 HD
ATOM      8  H   UNL     1      -1.405  -3.590   0.931  0.00  0.00    -0.085 HD
ENDROOT
BRANCH   4   9
ATOM      9  C   UNL     1      -1.446  -6.221   0.634  0.00  0.00    +0.203 C 
ATOM     10  O   UNL     1      -0.278  -5.900   0.559  0.00  0.00    -0.277 OA
ATOM     11  N   UNL     1      -1.778  -7.489   0.949  0.00  0.00    -0.299 N 
ATOM     12  C   UNL     1      -0.749  -8.493   1.267  0.00  0.00    +0.112 C 
ATOM     13  C   UNL     1      -0.969  -8.954   2.710  0.00  0.00    +0.054 C 
ATOM     14  C   UNL     1      -2.423  -9.232   2.954  0.00  0.00    -0.041 C 
ATOM     15  C   UNL     1      -3.399  -8.777   2.207  0.00  0.00    -0.004 C 
ATOM     16  C   UNL     1      -3.181  -7.923   0.994  0.00  0.00    +0.135 C 
BRANCH  14  17
ATOM     17  C   UNL     1      -2.778 -10.075   4.115  0.00  0.00    -0.022 A 
ATOM     18  C   UNL     1      -2.523  -9.626   5.411  0.00  0.00    +0.008 A 
ATOM     19  C   UNL     1      -2.857 -10.418   6.491  0.00  0.00    +0.001 A 
ATOM     20  C   UNL     1      -3.445 -11.654   6.290  0.00  0.00    +0.000 A 
ATOM     21  C   UNL     1      -3.700 -12.105   5.007  0.00  0.00    +0.001 A 
ATOM     22  C   UNL     1      -3.376 -11.321   3.919  0.00  0.00    +0.008 A 
ENDBRANCH  14  17
ENDBRANCH   4   9
BRANCH   1  25
ATOM     23  C   UNL     1      -1.711  -0.838  -0.094  0.00  0.00    +0.218 C 
ATOM     24  O   UNL     1      -2.411  -0.376   0.782  0.00  0.00    -0.275 OA
ATOM     25  N   UNL     1      -2.110  -1.935  -0.767  0.00  0.00    -0.303 N 
ATOM     26  C   UNL     1      -1.264  -2.493  -1.825  0.00  0.00    +0.132 C 
BRANCH  23  28
ATOM     27  C   UNL     1      -0.184   1.032   0.474  0.00  0.00    +0.017 C 
ATOM     28  C   UNL     1      -0.395  -0.185  -0.430  0.00  0.00    +0.069 C 
ATOM     29  C   UNL     1       0.742  -1.186  -0.212  0.00  0.00    +0.017 C 
ENDBRANCH  23  28
ENDBRANCH   1  25
BRANCH   3  30
ATOM     30  C   UNL     1      -2.767  -6.032  -1.949  0.00  0.00    +0.237 C 
ATOM     31  O   UNL     1      -3.122  -7.068  -1.427  0.00  0.00    -0.273 OA
ATOM     32  N   UNL     1      -2.599  -5.974  -3.284  0.00  0.00    -0.197 N 
ATOM     33  H   UNL     1      -2.314  -5.145  -3.702  0.00  0.00    +0.182 HD
BRANCH  32  34
ATOM     34  O   UNL     1      -2.836  -7.121  -4.079  0.00  0.00    -0.295 OA
ATOM     35  H   UNL     1      -2.689  -6.982  -5.025  0.00  0.00    +0.241 HD
ENDBRANCH  32  34
ENDBRANCH   3  30
TORSDOF 6
