REMARK  Name = ZINC54613677
REMARK  11 active torsions:
REMARK  status: ('A' for Active; 'I' for Inactive)
REMARK    1  A    between atoms: C_1  and  C_2
REMARK    2  A    between atoms: C_2  and  O_3
REMARK    3  A    between atoms: O_3  and  C_4
REMARK    4  A    between atoms: C_6  and  C_13
REMARK    5  A    between atoms: C_9  and  O_10
REMARK    6  A    between atoms: O_10  and  C_11
REMARK    7  A    between atoms: C_15  and  C_24
REMARK    8  A    between atoms: C_16  and  C_23
REMARK    9  A    between atoms: N_26  and  C_27
REMARK   10  A    between atoms: C_31  and  C_34
REMARK   11  A    between atoms: C_32  and  C_33
REMARK                            x       y       z     vdW  Elec       q    Type
REMARK                         _______ _______ _______ _____ _____    ______ ____
ROOT
ATOM      1  C   UNL     1      -0.065  -4.505  -0.270  0.00  0.00    +0.179 C 
ATOM      2  C   UNL     1      -1.388  -5.204  -0.102  0.00  0.00    +0.060 C 
ATOM      3  C   UNL     1      -1.517  -6.538  -0.101  0.00  0.00    +0.018 C 
ATOM      4  N   UNL     1      -0.444  -7.379  -0.266  0.00  0.00    -0.286 N 
ATOM      5  C   UNL     1       0.749  -6.814  -0.694  0.00  0.00    +0.240 A 
ATOM      6  N   UNL     1       0.940  -5.468  -0.705  0.00  0.00    -0.201 N 
ATOM      7  N   UNL     1       2.230  -5.277  -1.195  0.00  0.00    -0.042 NA
ATOM      8  N   UNL     1       2.712  -6.455  -1.430  0.00  0.00    -0.021 NA
ATOM      9  N   UNL     1       1.844  -7.363  -1.135  0.00  0.00    -0.092 NA
ATOM     10  C   UNL     1      -2.887  -7.137   0.089  0.00  0.00    +0.061 C 
ATOM     11  H   UNL     1      -0.516  -8.331  -0.091  0.00  0.00    +0.155 HD
ENDROOT
BRANCH   1  14
ATOM     12  C   UNL     1       0.831  -1.968   2.383  0.00  0.00    +0.163 A 
ATOM     13  C   UNL     1       0.445  -2.527   1.175  0.00  0.00    +0.055 A 
ATOM     14  C   UNL     1       0.355  -3.900   1.045  0.00  0.00    -0.014 A 
ATOM     15  C   UNL     1       0.649  -4.720   2.118  0.00  0.00    +0.025 A 
ATOM     16  C   UNL     1       1.035  -4.170   3.327  0.00  0.00    +0.063 A 
ATOM     17  C   UNL     1       1.133  -2.793   3.462  0.00  0.00    +0.175 A 
ATOM     18 BR   UNL     1       1.435  -5.294   4.794  0.00  0.00    -0.046 Br
BRANCH  17  19
ATOM     19  O   UNL     1       1.518  -2.250   4.648  0.00  0.00    -0.490 OA
ATOM     20  C   UNL     1       0.484  -1.947   5.588  0.00  0.00    +0.277 C 
ENDBRANCH  17  19
BRANCH  12  21
ATOM     21  O   UNL     1       0.919  -0.618   2.512  0.00  0.00    -0.489 OA
BRANCH  21  23
ATOM     22  C   UNL     1       0.558   1.653   1.768  0.00  0.00    +0.048 C 
ATOM     23  C   UNL     1       0.493   0.170   1.398  0.00  0.00    +0.226 C 
ENDBRANCH  21  23
ENDBRANCH  12  21
ENDBRANCH   1  14
BRANCH   2  24
ATOM     24  C   UNL     1      -2.551  -4.414   0.064  0.00  0.00    +0.248 C 
ATOM     25  O   UNL     1      -3.102  -3.930  -0.908  0.00  0.00    -0.270 OA
ATOM     26  N   UNL     1      -3.048  -4.198   1.298  0.00  0.00    -0.281 N 
ATOM     27  H   UNL     1      -2.571  -4.524   2.077  0.00  0.00    +0.155 HD
BRANCH  26  28
ATOM     28  C   UNL     1      -4.252  -3.503   1.454  0.00  0.00    +0.037 A 
ATOM     29  C   UNL     1      -5.131  -3.385   0.386  0.00  0.00    +0.023 A 
ATOM     30  C   UNL     1      -6.319  -2.699   0.544  0.00  0.00    +0.002 A 
ATOM     31  C   UNL     1      -6.634  -2.130   1.765  0.00  0.00    +0.004 A 
ATOM     32  C   UNL     1      -5.760  -2.245   2.830  0.00  0.00    -0.046 A 
ATOM     33  C   UNL     1      -4.573  -2.935   2.680  0.00  0.00    -0.026 A 
ATOM     34  C   UNL     1      -3.624  -3.065   3.844  0.00  0.00    +0.046 C 
ATOM     35  C   UNL     1      -6.106  -1.622   4.158  0.00  0.00    +0.044 C 
ENDBRANCH  26  28
ENDBRANCH   2  24
TORSDOF 6
