REMARK  Name = ZINC38635851
REMARK  12 active torsions:
REMARK  status: ('A' for Active; 'I' for Inactive)
REMARK    1  A    between atoms: C_1  and  C_2
REMARK    2  A    between atoms: C_2  and  C_3
REMARK    3  A    between atoms: C_2  and  C_4
REMARK    4  A    between atoms: C_2  and  O_24
REMARK    5  A    between atoms: N_6  and  C_7
REMARK    6  A    between atoms: C_7  and  C_8
REMARK    7  A    between atoms: C_8  and  C_10
REMARK    8  A    between atoms: C_8  and  N_19
REMARK    9  A    between atoms: C_13  and  N_16
REMARK   10  A    between atoms: N_16  and  C_17
REMARK   11  A    between atoms: N_16  and  C_18
REMARK   12  A    between atoms: O_24  and  C_25
REMARK                            x       y       z     vdW  Elec       q    Type
REMARK                         _______ _______ _______ _____ _____    ______ ____
ROOT
ATOM      1  C   UNL     1      -3.950  -1.609   1.810  0.00  0.00    +0.093 C 
ENDROOT
BRANCH   1   4
ATOM      2  C   UNL     1      -3.161  -3.368   0.320  0.00  0.00    +0.256 C 
ATOM      3  O   UNL     1      -2.867  -2.512  -0.487  0.00  0.00    -0.271 OA
ATOM      4  N   UNL     1      -3.709  -3.021   1.501  0.00  0.00    -0.313 N 
ATOM      5  H   UNL     1      -3.944  -3.705   2.147  0.00  0.00    +0.149 HD
BRANCH   2   7
ATOM      6  C   UNL     1      -1.959  -5.413   1.041  0.00  0.00    +0.065 C 
ATOM      7  C   UNL     1      -2.913  -4.820   0.003  0.00  0.00    +0.180 C 
ATOM      8  C   UNL     1      -4.239  -5.582   0.033  0.00  0.00    +0.065 C 
BRANCH   7   9
ATOM      9  O   UNL     1      -2.330  -4.930  -1.298  0.00  0.00    -0.477 OA
BRANCH   9  10
ATOM     10  C   UNL     1      -3.061  -4.463  -2.343  0.00  0.00    +0.122 A 
ATOM     11  C   UNL     1      -4.260  -3.804  -2.113  0.00  0.00    +0.047 A 
ATOM     12  C   UNL     1      -5.002  -3.330  -3.178  0.00  0.00    +0.023 A 
ATOM     13  C   UNL     1      -4.550  -3.511  -4.473  0.00  0.00    +0.041 A 
ATOM     14  C   UNL     1      -3.354  -4.168  -4.704  0.00  0.00    +0.023 A 
ATOM     15  C   UNL     1      -2.607  -4.638  -3.642  0.00  0.00    +0.047 A 
ATOM     16 CL   UNL     1      -5.484  -2.914  -5.809  0.00  0.00    -0.084 Cl
ENDBRANCH   9  10
ENDBRANCH   7   9
ENDBRANCH   2   7
ENDBRANCH   1   4
BRANCH   1  17
ATOM     17  C   UNL     1      -4.694  -1.498   3.143  0.00  0.00    -0.020 C 
BRANCH  17  18
ATOM     18  C   UNL     1      -6.067  -2.103   3.003  0.00  0.00    -0.059 A 
ATOM     19  C   UNL     1      -7.083  -1.377   2.408  0.00  0.00    +0.004 A 
ATOM     20  C   UNL     1      -8.343  -1.928   2.279  0.00  0.00    +0.023 A 
ATOM     21  C   UNL     1      -8.589  -3.212   2.747  0.00  0.00    +0.029 A 
ATOM     22  C   UNL     1      -7.566  -3.939   3.344  0.00  0.00    +0.023 A 
ATOM     23  C   UNL     1      -6.307  -3.384   3.465  0.00  0.00    +0.004 A 
BRANCH  21  24
ATOM     24  N   UNL     1      -9.862  -3.773   2.618  0.00  0.00    -0.336 N 
ATOM     25  C   UNL     1     -10.940  -3.005   1.988  0.00  0.00    +0.129 C 
ATOM     26  C   UNL     1     -10.120  -5.128   3.112  0.00  0.00    +0.129 C 
ENDBRANCH  21  24
ENDBRANCH  17  18
BRANCH  17  27
ATOM     27  N   UNL     1      -4.818  -0.083   3.518  0.00  0.00    +0.385 N 
ATOM     28  C   UNL     1      -5.489   0.040   4.837  0.00  0.00    -0.078 C 
ATOM     29  C   UNL     1      -5.046   1.440   5.332  0.00  0.00    -0.020 C 
ATOM     30  C   UNL     1      -3.581   1.530   4.846  0.00  0.00    -0.020 C 
ATOM     31  C   UNL     1      -3.477   0.518   3.691  0.00  0.00    -0.078 C 
ATOM     32  H   UNL     1      -5.337   0.420   2.814  0.00  0.00    -0.081 HD
ENDBRANCH  17  27
ENDBRANCH   1  17
TORSDOF 8
