REMARK  Name = ZINC64928264
REMARK  10 active torsions:
REMARK  status: ('A' for Active; 'I' for Inactive)
REMARK    1  A    between atoms: C_1  and  C_2
REMARK    2  A    between atoms: C_5  and  N_33
REMARK    3  A    between atoms: C_6  and  S_8
REMARK    4  A    between atoms: S_8  and  N_11
REMARK    5  A    between atoms: C_20  and  C_22
REMARK    6  A    between atoms: C_22  and  C_23
REMARK    7  A    between atoms: N_25  and  C_26
REMARK    8  A    between atoms: C_26  and  C_27
REMARK    9  A    between atoms: C_27  and  C_28
REMARK   10  A    between atoms: C_34  and  C_36
REMARK                            x       y       z     vdW  Elec       q    Type
REMARK                         _______ _______ _______ _____ _____    ______ ____
ROOT
ATOM      1  N   UNL     1      -1.414  -3.742   2.395  0.00  0.00    -0.168 NA
ATOM      2  C   UNL     1      -2.733  -3.292   2.869  0.00  0.00    +0.115 C 
ATOM      3  C   UNL     1      -3.759  -3.622   1.786  0.00  0.00    +0.052 C 
ATOM      4  C   UNL     1      -3.590  -5.037   1.300  0.00  0.00    -0.041 A 
ATOM      5  C   UNL     1      -4.668  -5.630   0.654  0.00  0.00    +0.004 A 
ATOM      6  C   UNL     1      -4.577  -6.921   0.176  0.00  0.00    +0.000 A 
ATOM      7  C   UNL     1      -3.403  -7.633   0.339  0.00  0.00    +0.000 A 
ATOM      8  C   UNL     1      -2.332  -7.048   0.984  0.00  0.00    +0.005 A 
ATOM      9  C   UNL     1      -2.425  -5.751   1.470  0.00  0.00    -0.025 A 
ATOM     10  C   UNL     1      -1.229  -5.181   2.182  0.00  0.00    +0.119 C 
ENDROOT
BRANCH   1  11
ATOM     11  S   UNL     1      -0.189  -2.664   2.107  0.00  0.00    +0.063 S 
ATOM     12  O   UNL     1       0.725  -3.313   1.233  0.00  0.00    -0.153 OA
ATOM     13  O   UNL     1       0.202  -2.147   3.371  0.00  0.00    -0.153 OA
BRANCH  11  19
ATOM     14  C   UNL     1      -1.499   2.376   1.669  0.00  0.00    +0.044 C 
ATOM     15  C   UNL     1      -1.461   1.000   1.056  0.00  0.00    -0.048 A 
ATOM     16  C   UNL     1      -1.968   0.796  -0.215  0.00  0.00    +0.005 A 
ATOM     17  C   UNL     1      -1.935  -0.463  -0.780  0.00  0.00    +0.025 A 
ATOM     18  C   UNL     1      -1.391  -1.526  -0.071  0.00  0.00    +0.060 A 
ATOM     19  C   UNL     1      -0.881  -1.319   1.204  0.00  0.00    +0.127 A 
ATOM     20  C   UNL     1      -0.913  -0.056   1.762  0.00  0.00    +0.033 A 
BRANCH  18  21
ATOM     21  N   UNL     1      -1.356  -2.804  -0.641  0.00  0.00    -0.284 N 
ATOM     22  C   UNL     1      -1.368  -2.945  -1.981  0.00  0.00    +0.214 C 
ATOM     23  O   UNL     1      -1.310  -1.965  -2.694  0.00  0.00    -0.276 OA
ATOM     24  C   UNL     1      -1.453  -4.319  -2.594  0.00  0.00    +0.109 C 
ATOM     25  H   UNL     1      -1.323  -3.588  -0.071  0.00  0.00    +0.155 HD
ENDBRANCH  18  21
ENDBRANCH  11  19
ENDBRANCH   1  11
BRANCH  10  26
ATOM     26  C   UNL     1       0.025  -5.414   1.336  0.00  0.00    +0.121 C 
BRANCH  26  27
ATOM     27  C   UNL     1       1.251  -5.200   2.186  0.00  0.00    +0.215 C 
ATOM     28  O   UNL     1       1.135  -4.989   3.375  0.00  0.00    -0.276 OA
ATOM     29  N   UNL     1       2.475  -5.244   1.625  0.00  0.00    -0.315 N 
ATOM     30  H   UNL     1       2.568  -5.413   0.674  0.00  0.00    +0.149 HD
BRANCH  29  31
ATOM     31  C   UNL     1       3.667  -5.036   2.451  0.00  0.00    +0.109 C 
BRANCH  31  32
ATOM     32  C   UNL     1       4.918  -5.136   1.576  0.00  0.00    +0.061 C 
BRANCH  32  33
ATOM     33  C   UNL     1       6.144  -4.922   2.425  0.00  0.00    -0.009 A 
ATOM     34  C   UNL     1       6.892  -5.836   3.091  0.00  0.00    +0.011 A 
ATOM     35  C   UNL     1       7.987  -5.406   3.816  0.00  0.00    +0.008 A 
ATOM     36  C   UNL     1       8.282  -4.083   3.839  0.00  0.00    +0.045 A 
ATOM     37  S   UNL     1       6.994  -3.400   2.810  0.00  0.00    -0.102 S 
ENDBRANCH  32  33
ENDBRANCH  31  32
ENDBRANCH  29  31
ENDBRANCH  26  27
ENDBRANCH  10  26
TORSDOF 8
