REMARK  Name = ZINC16567844
REMARK  9 active torsions:
REMARK  status: ('A' for Active; 'I' for Inactive)
REMARK    1  A    between atoms: C_1  and  C_2
REMARK    2  A    between atoms: C_2  and  C_4
REMARK    3  A    between atoms: C_2  and  N_27
REMARK    4  A    between atoms: C_7  and  S_18
REMARK    5  A    between atoms: N_8  and  C_9
REMARK    6  A    between atoms: C_12  and  N_15
REMARK    7  A    between atoms: S_18  and  C_19
REMARK    8  A    between atoms: C_19  and  C_20
REMARK    9  A    between atoms: N_30  and  C_31
REMARK                            x       y       z     vdW  Elec       q    Type
REMARK                         _______ _______ _______ _____ _____    ______ ____
ROOT
ATOM      1  C   UNL     1       1.278  -6.680  -1.725  0.00  0.00    +0.159 A 
ATOM      2  N   UNL     1       1.293  -6.385  -0.456  0.00  0.00    -0.131 NA
ATOM      3  N   UNL     1       1.282  -5.110  -0.297  0.00  0.00    -0.122 NA
ATOM      4  C   UNL     1       1.259  -4.514  -1.467  0.00  0.00    +0.196 A 
ATOM      5  N   UNL     1       1.250  -5.498  -2.417  0.00  0.00    -0.273 N 
ENDROOT
BRANCH   5   6
ATOM      6  C   UNL     1       1.221  -5.331  -3.809  0.00  0.00    +0.050 A 
ATOM      7  C   UNL     1       0.124  -5.768  -4.539  0.00  0.00    +0.028 A 
ATOM      8  C   UNL     1       0.096  -5.597  -5.910  0.00  0.00    +0.035 A 
ATOM      9  C   UNL     1       1.165  -5.003  -6.556  0.00  0.00    +0.126 A 
ATOM     10  C   UNL     1       2.261  -4.572  -5.832  0.00  0.00    +0.035 A 
ATOM     11  C   UNL     1       2.292  -4.735  -4.460  0.00  0.00    +0.028 A 
BRANCH   9  12
ATOM     12  N   UNL     1       1.134  -4.827  -8.025  0.00  0.00    +0.056 N 
ATOM     13  O   UNL     1       2.075  -4.304  -8.595  0.00  0.00    -0.126 OA
ATOM     14  O   UNL     1       0.169  -5.206  -8.664  0.00  0.00    -0.126 OA
ENDBRANCH   9  12
ENDBRANCH   5   6
BRANCH   1  16
ATOM     15  C   UNL     1      -0.102  -8.694  -2.160  0.00  0.00    +0.036 C 
ATOM     16  C   UNL     1       1.283  -8.064  -2.321  0.00  0.00    +0.140 C 
BRANCH  16  17
ATOM     17  N   UNL     1       2.278  -8.889  -1.632  0.00  0.00    -0.290 N 
ATOM     18  C   UNL     1       2.828  -9.947  -2.260  0.00  0.00    +0.304 C 
ATOM     19  O   UNL     1       2.499 -10.217  -3.398  0.00  0.00    -0.252 OA
ATOM     20  N   UNL     1       3.744 -10.706  -1.625  0.00  0.00    -0.269 N 
ATOM     21  H   UNL     1       2.541  -8.674  -0.723  0.00  0.00    +0.151 HD
ATOM     22  H   UNL     1       4.056 -10.453  -0.743  0.00  0.00    +0.156 HD
BRANCH  20  23
ATOM     23  C   UNL     1       4.243 -11.859  -2.240  0.00  0.00    +0.037 A 
ATOM     24  C   UNL     1       4.559 -12.975  -1.474  0.00  0.00    +0.023 A 
ATOM     25  C   UNL     1       5.047 -14.114  -2.083  0.00  0.00    +0.005 A 
ATOM     26  C   UNL     1       5.232 -14.143  -3.453  0.00  0.00    +0.038 A 
ATOM     27  C   UNL     1       4.924 -13.031  -4.220  0.00  0.00    +0.125 A 
ATOM     28  C   UNL     1       4.430 -11.889  -3.615  0.00  0.00    +0.061 A 
ATOM     29  F   UNL     1       5.107 -13.062  -5.558  0.00  0.00    -0.205 F 
ENDBRANCH  20  23
ENDBRANCH  16  17
ENDBRANCH   1  16
BRANCH   4  30
ATOM     30  S   UNL     1       1.237  -2.776  -1.757  0.00  0.00    -0.081 S 
BRANCH  30  31
ATOM     31  C   UNL     1       1.256  -2.172  -0.051  0.00  0.00    +0.112 C 
BRANCH  31  32
ATOM     32  C   UNL     1       1.241  -0.665  -0.051  0.00  0.00    -0.037 A 
ATOM     33  C   UNL     1       0.036   0.013  -0.034  0.00  0.00    +0.007 A 
ATOM     34  C   UNL     1       0.021   1.395  -0.033  0.00  0.00    +0.038 A 
ATOM     35  C   UNL     1       1.212   2.100  -0.050  0.00  0.00    +0.123 A 
ATOM     36  C   UNL     1       2.418   1.420  -0.068  0.00  0.00    +0.038 A 
ATOM     37  C   UNL     1       2.431   0.038  -0.068  0.00  0.00    +0.007 A 
ATOM     38  F   UNL     1       1.198   3.451  -0.050  0.00  0.00    -0.205 F 
ENDBRANCH  31  32
ENDBRANCH  30  31
ENDBRANCH   4  30
TORSDOF 8
