REMARK  Name = ZINC13221423
REMARK  8 active torsions:
REMARK  status: ('A' for Active; 'I' for Inactive)
REMARK    1  A    between atoms: N_9  and  C_31
REMARK    2  A    between atoms: C_10  and  S_12
REMARK    3  A    between atoms: S_12  and  C_13
REMARK    4  A    between atoms: C_13  and  C_14
REMARK    5  A    between atoms: N_19  and  C_22
REMARK    6  A    between atoms: C_25  and  N_28
REMARK    7  A    between atoms: C_31  and  C_32
REMARK    8  A    between atoms: C_32  and  C_33
REMARK                            x       y       z     vdW  Elec       q    Type
REMARK                         _______ _______ _______ _____ _____    ______ ____
ROOT
ATOM      1  C   UNL     1      -1.702  -2.468   3.360  0.00  0.00    +0.173 C 
ENDROOT
BRANCH   1   2
ATOM      2  C   UNL     1      -2.772  -3.425   2.902  0.00  0.00    +0.226 C 
ATOM      3  O   UNL     1      -3.446  -3.161   1.929  0.00  0.00    -0.275 OA
ATOM      4  N   UNL     1      -2.981  -4.575   3.574  0.00  0.00    -0.298 N 
ATOM      5  C   UNL     1      -2.171  -4.917   4.753  0.00  0.00    +0.126 C 
ATOM      6  C   UNL     1      -3.124  -5.282   5.903  0.00  0.00    +0.124 C 
ATOM      7  N   UNL     1      -4.043  -6.336   5.454  0.00  0.00    -0.327 N 
ATOM      8  C   UNL     1      -4.896  -5.866   4.353  0.00  0.00    +0.124 C 
ATOM      9  C   UNL     1      -4.020  -5.523   3.144  0.00  0.00    +0.126 C 
BRANCH   7  10
ATOM     10  C   UNL     1      -4.815  -6.813   6.516  0.00  0.00    +0.030 A 
ATOM     11  C   UNL     1      -6.202  -6.791   6.434  0.00  0.00    +0.025 A 
ATOM     12  C   UNL     1      -6.961  -7.268   7.484  0.00  0.00    +0.034 A 
ATOM     13  C   UNL     1      -6.343  -7.757   8.620  0.00  0.00    +0.126 A 
ATOM     14  C   UNL     1      -4.963  -7.775   8.708  0.00  0.00    +0.034 A 
ATOM     15  C   UNL     1      -4.197  -7.304   7.659  0.00  0.00    +0.025 A 
BRANCH  13  16
ATOM     16  N   UNL     1      -7.161  -8.263   9.746  0.00  0.00    +0.056 N 
ATOM     17  O   UNL     1      -6.618  -8.694  10.747  0.00  0.00    -0.126 OA
ATOM     18  O   UNL     1      -8.376  -8.248   9.671  0.00  0.00    -0.126 OA
ENDBRANCH  13  16
ENDBRANCH   7  10
ENDBRANCH   1   2
BRANCH   1  19
ATOM     19  S   UNL     1      -1.669  -1.030   2.262  0.00  0.00    -0.078 S 
BRANCH  19  29
ATOM     20  C   UNL     1       3.273   1.455   5.926  0.00  0.00    +0.001 A 
ATOM     21  C   UNL     1       2.862   0.224   6.422  0.00  0.00    +0.002 A 
ATOM     22  C   UNL     1       1.854  -0.475   5.820  0.00  0.00    +0.028 A 
ATOM     23  C   UNL     1       1.225   0.053   4.689  0.00  0.00    +0.079 A 
ATOM     24  C   UNL     1       1.647   1.305   4.187  0.00  0.00    +0.065 A 
ATOM     25  C   UNL     1       2.678   1.997   4.821  0.00  0.00    +0.015 A 
ATOM     26  C   UNL     1       0.970   1.840   2.997  0.00  0.00    +0.262 A 
ATOM     27  O   UNL     1       1.288   2.912   2.518  0.00  0.00    -0.267 OA
ATOM     28  N   UNL     1      -0.020   1.094   2.454  0.00  0.00    -0.287 N 
ATOM     29  C   UNL     1      -0.367  -0.105   3.008  0.00  0.00    +0.173 A 
ATOM     30  N   UNL     1       0.226  -0.603   4.065  0.00  0.00    -0.223 NA
BRANCH  28  31
ATOM     31  C   UNL     1      -0.729   1.579   1.267  0.00  0.00    +0.138 C 
BRANCH  31  32
ATOM     32  C   UNL     1      -0.013   1.086   0.008  0.00  0.00    +0.147 C 
BRANCH  32  33
ATOM     33  C   UNL     1      -0.742   1.585  -1.213  0.00  0.00    +0.358 C 
ATOM     34  O   UNL     1      -1.732   2.266  -1.089  0.00  0.00    -0.246 OA
ATOM     35  O   UNL     1      -0.290   1.274  -2.438  0.00  0.00    -0.246 OA
ENDBRANCH  32  33
ENDBRANCH  31  32
ENDBRANCH  28  31
ENDBRANCH  19  29
ENDBRANCH   1  19
TORSDOF 8
