REMARK  Name = ZINC66362596
REMARK  8 active torsions:
REMARK  status: ('A' for Active; 'I' for Inactive)
REMARK    1  A    between atoms: C_1  and  C_2
REMARK    2  A    between atoms: C_2  and  C_4
REMARK    3  A    between atoms: C_2  and  C_19
REMARK    4  A    between atoms: C_4  and  C_5
REMARK    5  A    between atoms: C_5  and  C_6
REMARK    6  A    between atoms: N_8  and  C_9
REMARK    7  A    between atoms: C_19  and  C_20
REMARK    8  A    between atoms: N_22  and  C_23
REMARK                            x       y       z     vdW  Elec       q    Type
REMARK                         _______ _______ _______ _____ _____    ______ ____
ROOT
ATOM      1  C   UNL     1       0.148   1.373   0.338  0.00  0.00    +0.008 C 
ATOM      2  C   UNL     1       0.174  -0.157   0.332  0.00  0.00    -0.005 C 
ENDROOT
BRANCH   2   3
ATOM      3  C   UNL     1       0.943  -0.658   1.557  0.00  0.00    +0.013 C 
BRANCH   3   4
ATOM      4  C   UNL     1       2.407  -0.227   1.451  0.00  0.00    +0.096 C 
BRANCH   4   5
ATOM      5  C   UNL     1       3.164  -0.721   2.657  0.00  0.00    +0.217 C 
ATOM      6  O   UNL     1       2.589  -1.354   3.517  0.00  0.00    -0.275 OA
ATOM      7  N   UNL     1       4.480  -0.458   2.780  0.00  0.00    -0.285 N 
ATOM      8  H   UNL     1       4.955  -0.012   2.062  0.00  0.00    +0.155 HD
BRANCH   7   9
ATOM      9  C   UNL     1       5.161  -0.829   3.944  0.00  0.00    +0.043 A 
ATOM     10  C   UNL     1       4.817  -1.990   4.613  0.00  0.00    +0.024 A 
ATOM     11  C   UNL     1       5.491  -2.359   5.767  0.00  0.00    +0.004 A 
ATOM     12  C   UNL     1       6.511  -1.579   6.266  0.00  0.00    +0.026 A 
ATOM     13  C   UNL     1       6.877  -0.406   5.612  0.00  0.00    +0.048 A 
ATOM     14  C   UNL     1       6.201  -0.030   4.438  0.00  0.00    +0.021 A 
ATOM     15  C   UNL     1       6.817   1.224   3.999  0.00  0.00    +0.029 A 
ATOM     16  C   UNL     1       7.784   1.517   4.883  0.00  0.00    +0.083 A 
ATOM     17  N   UNL     1       7.829   0.557   5.858  0.00  0.00    -0.361 N 
ATOM     18  H   UNL     1       8.447   0.552   6.606  0.00  0.00    +0.165 HD
ENDBRANCH   7   9
ENDBRANCH   4   5
ENDBRANCH   3   4
ENDBRANCH   2   3
BRANCH   2  19
ATOM     19  C   UNL     1      -1.259  -0.692   0.376  0.00  0.00    +0.099 C 
BRANCH  19  20
ATOM     20  C   UNL     1      -1.979  -0.301  -0.889  0.00  0.00    +0.217 C 
ATOM     21  O   UNL     1      -1.403   0.342  -1.741  0.00  0.00    -0.275 OA
ATOM     22  N   UNL     1      -3.263  -0.666  -1.073  0.00  0.00    -0.285 N 
ATOM     23  H   UNL     1      -3.749  -1.109  -0.360  0.00  0.00    +0.155 HD
BRANCH  22  24
ATOM     24  C   UNL     1      -3.896  -0.406  -2.293  0.00  0.00    +0.043 A 
ATOM     25  C   UNL     1      -3.149  -0.266  -3.449  0.00  0.00    +0.024 A 
ATOM     26  C   UNL     1      -3.776  -0.008  -4.659  0.00  0.00    +0.004 A 
ATOM     27  C   UNL     1      -5.146   0.113  -4.731  0.00  0.00    +0.026 A 
ATOM     28  C   UNL     1      -5.920  -0.024  -3.582  0.00  0.00    +0.048 A 
ATOM     29  C   UNL     1      -5.291  -0.291  -2.353  0.00  0.00    +0.021 A 
ATOM     30  C   UNL     1      -6.364  -0.383  -1.360  0.00  0.00    +0.029 A 
ATOM     31  C   UNL     1      -7.520  -0.183  -2.012  0.00  0.00    +0.083 A 
ATOM     32  N   UNL     1      -7.274   0.041  -3.340  0.00  0.00    -0.361 N 
ATOM     33  H   UNL     1      -7.952   0.211  -4.012  0.00  0.00    +0.165 HD
ENDBRANCH  22  24
ENDBRANCH  19  20
ENDBRANCH   2  19
TORSDOF 7
