REMARK  Name = ZINC11840094
REMARK  7 active torsions:
REMARK  status: ('A' for Active; 'I' for Inactive)
REMARK    1  A    between atoms: C_1  and  C_2
REMARK    2  A    between atoms: C_6  and  S_27
REMARK    3  A    between atoms: C_15  and  N_61
REMARK    4  A    between atoms: C_18  and  N_61
REMARK    5  A    between atoms: C_23  and  C_25
REMARK    6  A    between atoms: C_23  and  C_26
REMARK    7  A    between atoms: S_27  and  C_30
REMARK                            x       y       z     vdW  Elec       q    Type
REMARK                         _______ _______ _______ _____ _____    ______ ____
ROOT
ATOM      1  C   UNL     1      -6.799  -0.333   6.430  0.00  0.00    +0.066 C 
ATOM      2  C   UNL     1      -5.845  -1.391   5.937  0.00  0.00    +0.051 A 
ATOM      3  C   UNL     1      -5.621  -2.563   6.684  0.00  0.00    +0.022 A 
ATOM      4  C   UNL     1      -6.267  -2.801   7.906  0.00  0.00    +0.013 A 
ATOM      5  C   UNL     1      -6.012  -3.954   8.586  0.00  0.00    +0.028 A 
ATOM      6  C   UNL     1      -5.119  -4.899   8.085  0.00  0.00    +0.090 A 
ATOM      7  C   UNL     1      -4.475  -4.699   6.902  0.00  0.00    +0.055 A 
ATOM      8  C   UNL     1      -4.713  -3.525   6.173  0.00  0.00    +0.078 A 
ATOM      9  N   UNL     1      -4.110  -3.283   5.002  0.00  0.00    -0.214 NA
ATOM     10  C   UNL     1      -4.355  -2.164   4.348  0.00  0.00    +0.219 A 
ATOM     11  N   UNL     1      -5.202  -1.240   4.799  0.00  0.00    -0.219 NA
ATOM     12  N   UNL     1      -3.711  -1.944   3.144  0.00  0.00    -0.300 N 
ATOM     13  C   UNL     1      -4.110  -0.656   2.562  0.00  0.00    +0.106 C 
ATOM     14  C   UNL     1      -3.494  -0.512   1.168  0.00  0.00    +0.003 C 
ATOM     15  C   UNL     1      -1.969  -0.593   1.279  0.00  0.00    -0.069 C 
ATOM     16  C   UNL     1      -1.581  -1.921   1.934  0.00  0.00    +0.003 C 
ATOM     17  C   UNL     1      -2.253  -2.025   3.305  0.00  0.00    +0.106 C 
ENDROOT
BRANCH   6  18
ATOM     18  S   UNL     1      -4.818  -6.376   8.998  0.00  0.00    -0.006 S 
ATOM     19  O   UNL     1      -3.515  -6.785   8.606  0.00  0.00    -0.170 OA
ATOM     20  O   UNL     1      -5.094  -6.031  10.348  0.00  0.00    -0.170 OA
ATOM     21  C   UNL     1      -6.053  -7.558   8.391  0.00  0.00    +0.200 C 
ENDBRANCH   6  18
BRANCH  15  22
ATOM     22  N   UNL     1      -1.379  -0.517  -0.071  0.00  0.00    +0.383 N 
ATOM     23  H   UNL     1      -1.944   0.114  -0.652  0.00  0.00    -0.085 HD
ATOM     24  H   UNL     1      -1.371  -1.454  -0.490  0.00  0.00    -0.085 HD
BRANCH  22  25
ATOM     25  C   UNL     1       0.002  -0.004   0.002  0.00  0.00    -0.067 C 
ATOM     26  C   UNL     1      -0.019   1.528   0.010  0.00  0.00    +0.012 C 
ATOM     27  C   UNL     1       1.420   2.050  -0.001  0.00  0.00    +0.159 C 
ATOM     28  O   UNL     1       2.102   1.539  -1.148  0.00  0.00    -0.374 OA
ATOM     29  C   UNL     1       2.194   0.114  -1.186  0.00  0.00    +0.063 C 
ATOM     30  C   UNL     1       0.786  -0.486  -1.222  0.00  0.00    +0.019 C 
ATOM     31  C   UNL     1       2.928  -0.384   0.061  0.00  0.00    +0.041 C 
ATOM     32  C   UNL     1       2.964  -0.315  -2.436  0.00  0.00    +0.041 C 
ENDBRANCH  22  25
ENDBRANCH  15  22
TORSDOF 3
