REMARK  Name = ZINC04468640
REMARK  3 active torsions:
REMARK  status: ('A' for Active; 'I' for Inactive)
REMARK    1  A    between atoms: N_13  and  C_17
REMARK    2  A    between atoms: C_17  and  C_18
REMARK    3  A    between atoms: N_20  and  C_21
REMARK                            x       y       z     vdW  Elec       q    Type
REMARK                         _______ _______ _______ _____ _____    ______ ____
ROOT
ATOM      1  C   UNL     1      -1.872   2.899  -3.564  0.00  0.00    +0.000 A 
ATOM      2  C   UNL     1      -0.595   2.370  -3.594  0.00  0.00    +0.000 A 
ATOM      3  C   UNL     1      -0.014   1.915  -2.429  0.00  0.00    +0.006 A 
ATOM      4  C   UNL     1      -0.701   1.983  -1.224  0.00  0.00    -0.012 A 
ATOM      5  C   UNL     1      -1.972   2.516  -1.193  0.00  0.00    -0.042 A 
ATOM      6  C   UNL     1      -2.556   2.970  -2.368  0.00  0.00    +0.004 A 
ATOM      7  C   UNL     1      -2.765   2.639   0.081  0.00  0.00    +0.035 C 
ATOM      8  C   UNL     1      -2.198   1.723   1.163  0.00  0.00    +0.008 C 
ATOM      9  C   UNL     1      -0.690   1.980   1.277  0.00  0.00    +0.040 C 
ATOM     10  C   UNL     1      -0.018   1.465   0.010  0.00  0.00    +0.138 C 
ATOM     11  C   UNL     1       1.445   1.850  -0.002  0.00  0.00    +0.251 C 
ATOM     12  O   UNL     1       1.909   2.970  -0.000  0.00  0.00    -0.272 OA
ATOM     13  N   UNL     1       2.124   0.685  -0.014  0.00  0.00    -0.215 N 
ATOM     14  C   UNL     1       1.298  -0.368  -0.012  0.00  0.00    +0.310 C 
ATOM     15  O   UNL     1       1.676  -1.523  -0.021  0.00  0.00    -0.252 OA
ATOM     16  N   UNL     1       0.002  -0.004   0.002  0.00  0.00    -0.281 N 
ATOM     17  H   UNL     1      -0.767  -0.595   0.006  0.00  0.00    +0.152 HD
ENDROOT
BRANCH  13  18
ATOM     18  C   UNL     1       3.586   0.585  -0.029  0.00  0.00    +0.213 C 
BRANCH  18  19
ATOM     19  C   UNL     1       4.073   0.558  -1.455  0.00  0.00    +0.231 C 
ATOM     20  O   UNL     1       3.277   0.617  -2.369  0.00  0.00    -0.274 OA
ATOM     21  N   UNL     1       5.392   0.469  -1.716  0.00  0.00    -0.311 N 
ATOM     22  H   UNL     1       6.028   0.422  -0.985  0.00  0.00    +0.149 HD
BRANCH  21  23
ATOM     23  C   UNL     1       5.865   0.442  -3.102  0.00  0.00    +0.079 C 
ATOM     24  C   UNL     1       5.813  -0.992  -3.631  0.00  0.00    +0.010 C 
ATOM     25  C   UNL     1       6.308  -1.020  -5.079  0.00  0.00    +0.009 C 
ATOM     26  C   UNL     1       7.748  -0.507  -5.136  0.00  0.00    -0.010 C 
ATOM     27  C   UNL     1       8.642  -1.402  -4.275  0.00  0.00    +0.007 C 
ATOM     28  C   UNL     1       8.148  -1.374  -2.827  0.00  0.00    -0.010 C 
ATOM     29  C   UNL     1       6.707  -1.887  -2.770  0.00  0.00    +0.009 C 
ATOM     30  C   UNL     1       8.200   0.060  -2.297  0.00  0.00    +0.009 C 
ATOM     31  C   UNL     1       7.306   0.955  -3.159  0.00  0.00    +0.010 C 
ATOM     32  C   UNL     1       7.800   0.927  -4.606  0.00  0.00    +0.009 C 
ENDBRANCH  21  23
ENDBRANCH  18  19
ENDBRANCH  13  18
TORSDOF 3
