REMARK  Name = ZINC35746568
REMARK  13 active torsions:
REMARK  status: ('A' for Active; 'I' for Inactive)
REMARK    1  A    between atoms: C_1  and  C_2
REMARK    2  A    between atoms: C_2  and  C_3
REMARK    3  A    between atoms: C_3  and  C_5
REMARK    4  A    between atoms: C_3  and  O_31
REMARK    5  A    between atoms: C_5  and  N_6
REMARK    6  A    between atoms: N_6  and  C_7
REMARK    7  A    between atoms: N_6  and  C_25
REMARK    8  A    between atoms: C_7  and  C_8
REMARK    9  A    between atoms: C_14  and  C_24
REMARK   10  A    between atoms: C_15  and  C_19
REMARK   11  A    between atoms: C_19  and  O_21
REMARK   12  A    between atoms: O_21  and  C_22
REMARK   13  A    between atoms: C_22  and  C_23
REMARK                            x       y       z     vdW  Elec       q    Type
REMARK                         _______ _______ _______ _____ _____    ______ ____
ROOT
ATOM      1  C   UNL     1      -4.183  -4.539  -0.181  0.00  0.00    +0.094 A 
ATOM      2  N   UNL     1      -4.382  -5.880  -0.162  0.00  0.00    -0.312 N 
ATOM      3  H   UNL     1      -3.615  -6.473  -0.159  0.00  0.00    +0.170 HD
ATOM      4  C   UNL     1      -5.622  -6.404  -0.148  0.00  0.00    +0.260 A 
ATOM      5  O   UNL     1      -5.791  -7.611  -0.131  0.00  0.00    -0.267 OA
ATOM      6  C   UNL     1      -6.777  -5.476  -0.154  0.00  0.00    +0.076 A 
ATOM      7  C   UNL     1      -8.142  -5.767  -0.142  0.00  0.00    -0.015 A 
ATOM      8  C   UNL     1      -9.053  -4.750  -0.150  0.00  0.00    +0.102 A 
ATOM      9  S   UNL     1      -8.019  -3.295  -0.176  0.00  0.00    -0.062 S 
ATOM     10  C   UNL     1      -6.439  -4.103  -0.175  0.00  0.00    +0.116 A 
ATOM     11  N   UNL     1      -5.177  -3.693  -0.182  0.00  0.00    -0.229 NA
ATOM     12  C   UNL     1      -8.610  -7.199  -0.121  0.00  0.00    +0.046 C 
ENDROOT
BRANCH   8  13
ATOM     13  C   UNL     1     -10.515  -4.832  -0.141  0.00  0.00    +0.346 C 
ATOM     14  O   UNL     1     -11.063  -5.918  -0.123  0.00  0.00    -0.244 OA
BRANCH  13  15
ATOM     15  O   UNL     1     -11.254  -3.704  -0.151  0.00  0.00    -0.461 OA
BRANCH  15  16
ATOM     16  C   UNL     1     -12.675  -3.858  -0.141  0.00  0.00    +0.229 C 
ATOM     17  C   UNL     1     -13.338  -2.480  -0.155  0.00  0.00    +0.048 C 
ENDBRANCH  15  16
ENDBRANCH  13  15
ENDBRANCH   8  13
BRANCH   1  18
ATOM     18  C   UNL     1      -2.772  -4.009  -0.195  0.00  0.00    -0.003 C 
BRANCH  18  19
ATOM     19  N   UNL     1      -2.796  -2.548  -0.042  0.00  0.00    +0.388 N 
ATOM     20  H   UNL     1      -3.591  -2.171  -0.536  0.00  0.00    -0.081 HD
BRANCH  19  21
ATOM     21  C   UNL     1      -2.899  -2.207   1.384  0.00  0.00    -0.068 C 
ATOM     22  C   UNL     1      -1.651  -2.702   2.118  0.00  0.00    -0.015 C 
ATOM     23  C   UNL     1      -1.758  -2.346   3.602  0.00  0.00    -0.002 C 
ATOM     24  C   UNL     1      -2.999  -3.015   4.198  0.00  0.00    -0.000 C 
ATOM     25  C   UNL     1      -4.247  -2.520   3.464  0.00  0.00    -0.002 C 
ATOM     26  C   UNL     1      -4.139  -2.875   1.980  0.00  0.00    -0.015 C 
ENDBRANCH  19  21
BRANCH  19  27
ATOM     27  C   UNL     1      -1.560  -1.977  -0.594  0.00  0.00    -0.046 C 
BRANCH  27  28
ATOM     28  C   UNL     1      -1.667  -0.451  -0.612  0.00  0.00    +0.098 C 
BRANCH  28  30
ATOM     29  C   UNL     1      -0.654   1.649  -1.509  0.00  0.00    +0.006 C 
ATOM     30  C   UNL     1      -0.482   0.134  -1.383  0.00  0.00    +0.026 C 
ENDBRANCH  28  30
BRANCH  28  31
ATOM     31  O   UNL     1      -1.656   0.044   0.728  0.00  0.00    -0.394 OA
ATOM     32  H   UNL     1      -0.823  -0.107   1.196  0.00  0.00    +0.210 HD
ENDBRANCH  28  31
ENDBRANCH  27  28
ENDBRANCH  19  27
ENDBRANCH  18  19
ENDBRANCH   1  18
TORSDOF 10
