REMARK  Name = ZINC46774440
REMARK  7 active torsions:
REMARK  status: ('A' for Active; 'I' for Inactive)
REMARK    1  A    between atoms: N_9  and  C_12
REMARK    2  A    between atoms: C_12  and  C_13
REMARK    3  A    between atoms: C_13  and  C_14
REMARK    4  A    between atoms: N_16  and  C_17
REMARK    5  A    between atoms: C_17  and  C_18
REMARK    6  A    between atoms: C_23  and  O_24
REMARK    7  A    between atoms: O_24  and  C_25
REMARK                            x       y       z     vdW  Elec       q    Type
REMARK                         _______ _______ _______ _____ _____    ______ ____
ROOT
ATOM      1  C   UNL     1       2.825  -6.113  -1.566  0.00  0.00    +0.215 C 
ATOM      2  O   UNL     1       2.903  -6.689  -0.502  0.00  0.00    -0.276 OA
ATOM      3  N   UNL     1       2.889  -6.811  -2.717  0.00  0.00    -0.311 N 
ATOM      4  H   UNL     1       2.827  -6.349  -3.568  0.00  0.00    +0.149 HD
ENDROOT
BRANCH   1   5
ATOM      5  C   UNL     1       2.656  -4.616  -1.601  0.00  0.00    +0.117 C 
BRANCH   5   6
ATOM      6  C   UNL     1       2.614  -4.074  -0.171  0.00  0.00    +0.135 C 
BRANCH   6  15
ATOM      7  C   UNL     1      -0.172   1.410  -0.279  0.00  0.00    +0.001 A 
ATOM      8  C   UNL     1       1.002   2.151  -0.308  0.00  0.00    +0.002 A 
ATOM      9  C   UNL     1       2.230   1.528  -0.304  0.00  0.00    +0.028 A 
ATOM     10  C   UNL     1       2.297   0.134  -0.270  0.00  0.00    +0.078 A 
ATOM     11  C   UNL     1       1.101  -0.617  -0.240  0.00  0.00    +0.065 A 
ATOM     12  C   UNL     1      -0.131   0.034  -0.245  0.00  0.00    +0.015 A 
ATOM     13  C   UNL     1       1.207  -2.083  -0.206  0.00  0.00    +0.262 A 
ATOM     14  O   UNL     1       0.215  -2.788  -0.179  0.00  0.00    -0.267 OA
ATOM     15  N   UNL     1       2.450  -2.618  -0.204  0.00  0.00    -0.298 N 
ATOM     16  C   UNL     1       3.547  -1.818  -0.234  0.00  0.00    +0.202 A 
ATOM     17  N   UNL     1       3.485  -0.521  -0.266  0.00  0.00    -0.237 NA
ENDBRANCH   6  15
ENDBRANCH   5   6
ENDBRANCH   1   5
BRANCH   3  18
ATOM     18  C   UNL     1       3.053  -8.266  -2.683  0.00  0.00    +0.145 C 
BRANCH  18  19
ATOM     19  C   UNL     1       3.095  -8.800  -4.091  0.00  0.00    +0.032 A 
ATOM     20  C   UNL     1       1.968  -9.367  -4.661  0.00  0.00    +0.012 A 
ATOM     21  C   UNL     1       2.052  -9.845  -5.961  0.00  0.00    +0.020 A 
ATOM     22  C   UNL     1       3.249  -9.743  -6.642  0.00  0.00    +0.114 A 
ATOM     23  N   UNL     1       4.307  -9.197  -6.072  0.00  0.00    -0.221 NA
ATOM     24  C   UNL     1       4.264  -8.725  -4.838  0.00  0.00    +0.225 A 
BRANCH  24  25
ATOM     25  O   UNL     1       5.374  -8.167  -4.293  0.00  0.00    -0.438 OA
BRANCH  25  26
ATOM     26  C   UNL     1       6.525  -8.200  -5.014  0.00  0.00    +0.133 A 
ATOM     27  C   UNL     1       6.710  -7.318  -6.070  0.00  0.00    +0.046 A 
ATOM     28  C   UNL     1       7.880  -7.354  -6.803  0.00  0.00    +0.006 A 
ATOM     29  C   UNL     1       8.868  -8.268  -6.487  0.00  0.00    +0.038 A 
ATOM     30  C   UNL     1       8.688  -9.149  -5.434  0.00  0.00    +0.127 A 
ATOM     31  C   UNL     1       7.519  -9.113  -4.694  0.00  0.00    +0.084 A 
ATOM     32  F   UNL     1       9.654 -10.042  -5.127  0.00  0.00    -0.205 F 
ENDBRANCH  25  26
ENDBRANCH  24  25
ENDBRANCH  18  19
ENDBRANCH   3  18
TORSDOF 7
