REMARK  Name = ZINC39668754
REMARK  8 active torsions:
REMARK  status: ('A' for Active; 'I' for Inactive)
REMARK    1  A    between atoms: C_1  and  C_2
REMARK    2  A    between atoms: C_2  and  C_4
REMARK    3  A    between atoms: C_2  and  O_33
REMARK    4  A    between atoms: C_4  and  N_5
REMARK    5  A    between atoms: C_6  and  C_8
REMARK    6  A    between atoms: C_19  and  C_21
REMARK    7  A    between atoms: C_24  and  C_26
REMARK    8  A    between atoms: O_33  and  C_34
REMARK                            x       y       z     vdW  Elec       q    Type
REMARK                         _______ _______ _______ _____ _____    ______ ____
ROOT
ATOM      1  C   UNL     1       1.618  -4.320  -2.535  0.00  0.00    +0.100 C 
ATOM      2  C   UNL     1       0.245  -4.958  -2.845  0.00  0.00    +0.121 C 
ATOM      3  N   UNL     1       0.236  -5.130  -4.317  0.00  0.00    -0.294 N 
ATOM      4  C   UNL     1       1.616  -5.559  -4.647  0.00  0.00    +0.115 C 
ATOM      5  C   UNL     1       2.515  -4.719  -3.718  0.00  0.00    -0.004 C 
ATOM      6  C   UNL     1       3.011  -3.475  -4.449  0.00  0.00    -0.010 C 
ATOM      7  C   UNL     1       3.947  -3.895  -5.586  0.00  0.00    -0.082 C 
ATOM      8  N   UNL     1       5.081  -4.648  -5.035  0.00  0.00    +0.379 N 
ATOM      9  C   UNL     1       4.603  -5.890  -4.415  0.00  0.00    -0.082 C 
ATOM     10  C   UNL     1       3.695  -5.554  -3.229  0.00  0.00    -0.010 C 
ATOM     11  C   UNL     1      -0.794  -4.938  -5.165  0.00  0.00    +0.282 C 
ATOM     12  O   UNL     1      -0.643  -5.123  -6.359  0.00  0.00    -0.267 OA
ATOM     13  H   UNL     1       5.726  -4.872  -5.778  0.00  0.00    -0.086 HD
ATOM     14  H   UNL     1       5.551  -4.087  -4.342  0.00  0.00    -0.086 HD
ENDROOT
BRANCH  11  15
ATOM     15  C   UNL     1      -2.096  -4.509  -4.650  0.00  0.00    +0.190 A 
ATOM     16  C   UNL     1      -3.229  -4.283  -5.401  0.00  0.00    +0.055 A 
ATOM     17  C   UNL     1      -4.233  -3.891  -4.510  0.00  0.00    +0.050 A 
ATOM     18  C   UNL     1      -3.683  -3.891  -3.260  0.00  0.00    +0.136 A 
ATOM     19  O   UNL     1      -2.397  -4.271  -3.356  0.00  0.00    -0.450 OA
BRANCH  18  20
ATOM     20  C   UNL     1      -4.385  -3.539  -2.010  0.00  0.00    +0.017 A 
ATOM     21  C   UNL     1      -5.732  -3.170  -2.043  0.00  0.00    +0.014 A 
ATOM     22  C   UNL     1      -6.383  -2.843  -0.873  0.00  0.00    +0.039 A 
ATOM     23  C   UNL     1      -5.704  -2.879   0.335  0.00  0.00    +0.123 A 
ATOM     24  C   UNL     1      -4.367  -3.244   0.374  0.00  0.00    +0.039 A 
ATOM     25  C   UNL     1      -3.708  -3.579  -0.789  0.00  0.00    +0.014 A 
ATOM     26  F   UNL     1      -6.347  -2.558   1.479  0.00  0.00    -0.205 F 
ENDBRANCH  18  20
ENDBRANCH  11  15
BRANCH   1  28
ATOM     27  N   UNL     1       2.303  -2.120  -1.636  0.00  0.00    -0.312 N 
ATOM     28  C   UNL     1       1.492  -2.820  -2.454  0.00  0.00    +0.218 C 
ATOM     29  O   UNL     1       0.663  -2.244  -3.125  0.00  0.00    -0.275 OA
ATOM     30  H   UNL     1       2.966  -2.581  -1.099  0.00  0.00    +0.149 HD
BRANCH  27  31
ATOM     31  C   UNL     1       2.181  -0.662  -1.557  0.00  0.00    +0.148 C 
BRANCH  31  33
ATOM     32  C   UNL     1       3.000   1.388  -0.387  0.00  0.00    +0.053 C 
ATOM     33  C   UNL     1       3.209  -0.117  -0.564  0.00  0.00    +0.187 C 
BRANCH  33  34
ATOM     34  O   UNL     1       4.527  -0.360  -1.060  0.00  0.00    -0.486 OA
BRANCH  34  35
ATOM     35  C   UNL     1       5.529  -0.425  -0.145  0.00  0.00    +0.139 A 
ATOM     36  C   UNL     1       5.277  -0.155   1.197  0.00  0.00    +0.049 A 
ATOM     37  C   UNL     1       6.331  -0.234   2.093  0.00  0.00    +0.023 A 
ATOM     38  C   UNL     1       7.588  -0.576   1.629  0.00  0.00    +0.111 A 
ATOM     39  N   UNL     1       7.792  -0.825   0.351  0.00  0.00    -0.260 NA
ATOM     40  C   UNL     1       6.816  -0.767  -0.533  0.00  0.00    +0.156 A 
ENDBRANCH  34  35
ENDBRANCH  33  34
ENDBRANCH  31  33
ENDBRANCH  27  31
ENDBRANCH   1  28
TORSDOF 7
