REMARK  Name = ZINC14480618
REMARK  7 active torsions:
REMARK  status: ('A' for Active; 'I' for Inactive)
REMARK    1  A    between atoms: C_1  and  C_2
REMARK    2  A    between atoms: C_2  and  O_3
REMARK    3  A    between atoms: O_3  and  C_4
REMARK    4  A    between atoms: C_7  and  C_10
REMARK    5  A    between atoms: C_21  and  S_26
REMARK    6  A    between atoms: S_26  and  N_29
REMARK    7  A    between atoms: C_32  and  C_35
REMARK                            x       y       z     vdW  Elec       q    Type
REMARK                         _______ _______ _______ _____ _____    ______ ____
ROOT
ATOM      1  C   UNL     1       2.490   1.045  -0.016  0.00  0.00    +0.105 C 
ATOM      2  C   UNL     1       3.140   1.125   1.368  0.00  0.00    +0.029 C 
ATOM      3  C   UNL     1       2.038   0.797   2.417  0.00  0.00    +0.033 C 
ATOM      4  C   UNL     1       1.311   2.116   2.587  0.00  0.00    -0.030 C 
ATOM      5  C   UNL     1       2.075   3.113   2.212  0.00  0.00    -0.023 C 
ATOM      6  C   UNL     1       3.412   2.596   1.736  0.00  0.00    +0.049 C 
ATOM      7  C   UNL     1       3.931   3.400   0.587  0.00  0.00    -0.018 A 
ATOM      8  C   UNL     1       4.455   4.661   0.837  0.00  0.00    +0.034 A 
ATOM      9  C   UNL     1       4.948   5.433  -0.194  0.00  0.00    +0.106 A 
ATOM     10  C   UNL     1       4.928   4.958  -1.493  0.00  0.00    +0.030 A 
ATOM     11  C   UNL     1       4.409   3.706  -1.755  0.00  0.00    +0.025 A 
ATOM     12  C   UNL     1       3.911   2.928  -0.717  0.00  0.00    +0.031 A 
ATOM     13  N   UNL     1       3.387   1.662  -0.999  0.00  0.00    -0.336 N 
ATOM     14  H   UNL     1       3.611   1.204  -1.823  0.00  0.00    +0.147 HD
ENDROOT
BRANCH   1  18
ATOM     15  C   UNL     1      -1.237   3.137   0.031  0.00  0.00    +0.121 A 
ATOM     16  C   UNL     1      -1.196   1.783   0.330  0.00  0.00    +0.046 A 
ATOM     17  C   UNL     1       0.011   1.110   0.319  0.00  0.00    +0.009 A 
ATOM     18  C   UNL     1       1.176   1.783   0.000  0.00  0.00    -0.027 A 
ATOM     19  C   UNL     1       1.137   3.131  -0.303  0.00  0.00    +0.009 A 
ATOM     20  C   UNL     1      -0.066   3.810  -0.288  0.00  0.00    +0.046 A 
BRANCH  15  21
ATOM     21  O   UNL     1      -2.422   3.802   0.045  0.00  0.00    -0.492 OA
BRANCH  21  23
ATOM     22  C   UNL     1      -4.814   3.957   0.347  0.00  0.00    +0.048 C 
ATOM     23  C   UNL     1      -3.586   3.045   0.383  0.00  0.00    +0.225 C 
ENDBRANCH  21  23
ENDBRANCH  15  21
ENDBRANCH   1  18
BRANCH   9  24
ATOM     24  S   UNL     1       5.608   7.032   0.145  0.00  0.00    +0.061 S 
ATOM     25  O   UNL     1       6.013   7.023   1.507  0.00  0.00    -0.153 OA
ATOM     26  O   UNL     1       6.505   7.334  -0.915  0.00  0.00    -0.153 OA
BRANCH  24  27
ATOM     27  N   UNL     1       4.358   8.112   0.029  0.00  0.00    -0.177 NA
ATOM     28  C   UNL     1       4.047   8.762  -1.251  0.00  0.00    +0.110 C 
ATOM     29  C   UNL     1       2.562   8.531  -1.568  0.00  0.00    +0.020 C 
ATOM     30  C   UNL     1       1.713   9.020  -0.392  0.00  0.00    -0.012 C 
ATOM     31  C   UNL     1       2.067   8.219   0.863  0.00  0.00    +0.020 C 
ATOM     32  C   UNL     1       3.543   8.443   1.206  0.00  0.00    +0.110 C 
ATOM     33  C   UNL     1       0.231   8.826  -0.719  0.00  0.00    +0.007 C 
ENDBRANCH  24  27
ENDBRANCH   9  24
TORSDOF 5
