REMARK  Name = ZINC40982233
REMARK  13 active torsions:
REMARK  status: ('A' for Active; 'I' for Inactive)
REMARK    1  A    between atoms: C_1  and  C_2
REMARK    2  A    between atoms: C_2  and  C_3
REMARK    3  A    between atoms: C_3  and  O_4
REMARK    4  A    between atoms: O_4  and  C_5
REMARK    5  A    between atoms: C_10  and  C_11
REMARK    6  A    between atoms: C_13  and  C_26
REMARK    7  A    between atoms: C_14  and  C_25
REMARK    8  A    between atoms: C_19  and  S_21
REMARK    9  A    between atoms: S_21  and  C_22
REMARK   10  A    between atoms: C_22  and  C_23
REMARK   11  A    between atoms: C_23  and  C_24
REMARK   12  A    between atoms: N_28  and  C_29
REMARK   13  A    between atoms: C_34  and  C_35
REMARK                            x       y       z     vdW  Elec       q    Type
REMARK                         _______ _______ _______ _____ _____    ______ ____
ROOT
ATOM      1  C   UNL     1      -1.277  -4.150  -0.087  0.00  0.00    +0.181 C 
ATOM      2  C   UNL     1      -1.152  -5.247  -1.110  0.00  0.00    +0.060 C 
ATOM      3  C   UNL     1      -1.313  -6.545  -0.814  0.00  0.00    +0.018 C 
ATOM      4  N   UNL     1      -1.595  -6.976   0.459  0.00  0.00    -0.287 N 
ATOM      5  C   UNL     1      -1.452  -6.058   1.491  0.00  0.00    +0.219 A 
ATOM      6  N   UNL     1      -1.298  -4.732   1.252  0.00  0.00    -0.220 N 
ATOM      7  N   UNL     1      -1.176  -4.114   2.495  0.00  0.00    -0.141 NA
ATOM      8  C   UNL     1      -1.266  -5.064   3.401  0.00  0.00    +0.210 A 
ATOM      9  N   UNL     1      -1.434  -6.242   2.783  0.00  0.00    -0.187 NA
ATOM     10  C   UNL     1      -1.179  -7.566  -1.915  0.00  0.00    +0.061 C 
ATOM     11  H   UNL     1      -1.884  -7.886   0.631  0.00  0.00    +0.155 HD
ENDROOT
BRANCH   1  17
ATOM     12  C   UNL     1      -2.515  -2.020  -0.556  0.00  0.00    +0.126 A 
ATOM     13  C   UNL     1      -3.693  -1.321  -0.778  0.00  0.00    +0.046 A 
ATOM     14  C   UNL     1      -4.903  -1.987  -0.761  0.00  0.00    +0.004 A 
ATOM     15  C   UNL     1      -4.941  -3.349  -0.524  0.00  0.00    +0.001 A 
ATOM     16  C   UNL     1      -3.768  -4.047  -0.302  0.00  0.00    +0.009 A 
ATOM     17  C   UNL     1      -2.555  -3.387  -0.323  0.00  0.00    +0.023 A 
BRANCH  12  18
ATOM     18  O   UNL     1      -1.323  -1.367  -0.572  0.00  0.00    -0.492 OA
BRANCH  18  19
ATOM     19  C   UNL     1      -1.364   0.055  -0.708  0.00  0.00    +0.229 C 
BRANCH  19  21
ATOM     20  C   UNL     1       0.022   2.111  -1.018  0.00  0.00    +0.007 C 
ATOM     21  C   UNL     1       0.063   0.604  -0.754  0.00  0.00    +0.038 C 
ENDBRANCH  19  21
ENDBRANCH  18  19
ENDBRANCH  12  18
ENDBRANCH   1  17
BRANCH   2  22
ATOM     22  C   UNL     1      -0.850  -4.893  -2.446  0.00  0.00    +0.248 C 
ATOM     23  O   UNL     1       0.287  -4.582  -2.752  0.00  0.00    -0.270 OA
ATOM     24  N   UNL     1      -1.821  -4.899  -3.380  0.00  0.00    -0.281 N 
ATOM     25  H   UNL     1      -2.740  -5.078  -3.124  0.00  0.00    +0.155 HD
BRANCH  24  26
ATOM     26  C   UNL     1      -1.505  -4.648  -4.719  0.00  0.00    +0.037 A 
ATOM     27  C   UNL     1      -0.195  -4.780  -5.161  0.00  0.00    +0.023 A 
ATOM     28  C   UNL     1       0.114  -4.531  -6.484  0.00  0.00    +0.002 A 
ATOM     29  C   UNL     1      -0.879  -4.150  -7.368  0.00  0.00    +0.000 A 
ATOM     30  C   UNL     1      -2.184  -4.018  -6.931  0.00  0.00    +0.005 A 
ATOM     31  C   UNL     1      -2.501  -4.272  -5.611  0.00  0.00    -0.029 A 
ATOM     32  C   UNL     1      -3.925  -4.133  -5.137  0.00  0.00    +0.045 C 
ENDBRANCH  24  26
ENDBRANCH   2  22
BRANCH   8  33
ATOM     33  S   UNL     1      -1.177  -4.826   5.145  0.00  0.00    -0.084 S 
BRANCH  33  34
ATOM     34  C   UNL     1      -1.366  -6.497   5.825  0.00  0.00    +0.077 C 
BRANCH  34  35
ATOM     35  C   UNL     1      -1.307  -6.435   7.353  0.00  0.00    +0.008 C 
ATOM     36  C   UNL     1      -1.466  -7.845   7.927  0.00  0.00    +0.004 C 
ENDBRANCH  34  35
ENDBRANCH  33  34
ENDBRANCH   8  33
TORSDOF 9
