REMARK  Name = ZINC09165332
REMARK  9 active torsions:
REMARK  status: ('A' for Active; 'I' for Inactive)
REMARK    1  A    between atoms: C_1  and  C_2
REMARK    2  A    between atoms: C_5  and  N_33
REMARK    3  A    between atoms: C_7  and  N_8
REMARK    4  A    between atoms: C_9  and  C_11
REMARK    5  A    between atoms: N_13  and  C_14
REMARK    6  A    between atoms: C_14  and  C_15
REMARK    7  A    between atoms: C_15  and  C_17
REMARK    8  A    between atoms: C_15  and  N_68
REMARK    9  A    between atoms: N_26  and  C_27
REMARK                            x       y       z     vdW  Elec       q    Type
REMARK                         _______ _______ _______ _____ _____    ______ ____
ROOT
ATOM      1  C   UNL     1      -3.963   2.469  -0.337  0.00  0.00    +0.094 C 
ENDROOT
BRANCH   1   4
ATOM      2  C   UNL     1      -1.588   2.617  -0.860  0.00  0.00    +0.299 C 
ATOM      3  O   UNL     1      -1.546   3.659  -0.239  0.00  0.00    -0.265 OA
ATOM      4  N   UNL     1      -2.750   1.943  -0.968  0.00  0.00    -0.309 N 
ATOM      5  H   UNL     1      -2.784   1.110  -1.465  0.00  0.00    +0.149 HD
BRANCH   2   7
ATOM      6  N   UNL     1       0.810   2.757  -1.399  0.00  0.00    -0.277 N 
ATOM      7  C   UNL     1      -0.351   2.081  -1.503  0.00  0.00    +0.303 C 
ATOM      8  O   UNL     1      -0.393   1.039  -2.124  0.00  0.00    -0.265 OA
ATOM      9  H   UNL     1       0.827   3.629  -0.974  0.00  0.00    +0.155 HD
BRANCH   6  16
ATOM     10  C   UNL     1       2.991   4.503  -1.938  0.00  0.00    +0.045 C 
ATOM     11  C   UNL     1       3.079   3.018  -2.180  0.00  0.00    -0.029 A 
ATOM     12  C   UNL     1       4.243   2.466  -2.679  0.00  0.00    +0.007 A 
ATOM     13  C   UNL     1       4.324   1.104  -2.901  0.00  0.00    +0.033 A 
ATOM     14  C   UNL     1       3.241   0.289  -2.625  0.00  0.00    +0.128 A 
ATOM     15  C   UNL     1       2.076   0.833  -2.123  0.00  0.00    +0.056 A 
ATOM     16  C   UNL     1       1.989   2.203  -1.903  0.00  0.00    +0.039 A 
BRANCH  14  17
ATOM     17  N   UNL     1       3.334  -1.169  -2.864  0.00  0.00    +0.056 N 
ATOM     18  O   UNL     1       4.363  -1.650  -3.302  0.00  0.00    -0.126 OA
ATOM     19  O   UNL     1       2.380  -1.887  -2.621  0.00  0.00    -0.126 OA
ENDBRANCH  14  17
ENDBRANCH   6  16
ENDBRANCH   2   7
ENDBRANCH   1   4
BRANCH   1  20
ATOM     20  C   UNL     1      -5.104   1.464  -0.508  0.00  0.00    -0.020 C 
BRANCH  20  21
ATOM     21  C   UNL     1      -6.372   2.039   0.068  0.00  0.00    -0.059 A 
ATOM     22  C   UNL     1      -6.377   2.558   1.351  0.00  0.00    +0.004 A 
ATOM     23  C   UNL     1      -7.537   3.086   1.874  0.00  0.00    +0.023 A 
ATOM     24  C   UNL     1      -8.713   3.092   1.123  0.00  0.00    +0.033 A 
ATOM     25  C   UNL     1      -8.703   2.571  -0.159  0.00  0.00    -0.026 A 
ATOM     26  C   UNL     1      -7.531   2.045  -0.681  0.00  0.00    +0.007 A 
ATOM     27  C   UNL     1      -9.937   2.557  -1.026  0.00  0.00    +0.038 C 
ATOM     28  C   UNL     1     -11.175   2.812  -0.164  0.00  0.00    +0.024 C 
ATOM     29  C   UNL     1     -10.880   4.014   0.742  0.00  0.00    +0.105 C 
ATOM     30  N   UNL     1      -9.856   3.627   1.715  0.00  0.00    -0.333 N 
ATOM     31  C   UNL     1      -9.516   4.753   2.595  0.00  0.00    +0.129 C 
ENDBRANCH  20  21
BRANCH  20  37
ATOM     32  C   UNL     1      -5.975  -0.571   0.472  0.00  0.00    -0.078 C 
ATOM     33  C   UNL     1      -5.576  -1.922   1.071  0.00  0.00    -0.019 C 
ATOM     34  C   UNL     1      -4.787  -1.690   2.362  0.00  0.00    -0.004 C 
ATOM     35  C   UNL     1      -3.562  -0.825   2.054  0.00  0.00    -0.019 C 
ATOM     36  C   UNL     1      -4.019   0.494   1.427  0.00  0.00    -0.078 C 
ATOM     37  N   UNL     1      -4.751   0.202   0.176  0.00  0.00    +0.385 N 
ATOM     38  H   UNL     1      -4.147  -0.353  -0.441  0.00  0.00    -0.081 HD
ENDBRANCH  20  37
ENDBRANCH   1  20
TORSDOF 7
