REMARK  Name = ZINC11933017
REMARK  8 active torsions:
REMARK  status: ('A' for Active; 'I' for Inactive)
REMARK    1  A    between atoms: C_4  and  C_7
REMARK    2  A    between atoms: C_7  and  S_8
REMARK    3  A    between atoms: S_8  and  N_11
REMARK    4  A    between atoms: N_11  and  C_12
REMARK    5  A    between atoms: C_12  and  C_13
REMARK    6  A    between atoms: C_19  and  C_20
REMARK    7  A    between atoms: C_19  and  N_64
REMARK    8  A    between atoms: C_25  and  C_26
REMARK                            x       y       z     vdW  Elec       q    Type
REMARK                         _______ _______ _______ _____ _____    ______ ____
ROOT
ATOM      1  C   UNL     1       1.866   1.107   4.370  0.00  0.00    -0.012 C 
ATOM      2  C   UNL     1       1.036   1.856   5.417  0.00  0.00    +0.001 C 
ATOM      3  C   UNL     1       1.545   1.492   6.815  0.00  0.00    -0.018 C 
ATOM      4  C   UNL     1       3.032   1.838   6.918  0.00  0.00    -0.078 C 
ATOM      5  C   UNL     1       3.343   1.464   4.544  0.00  0.00    -0.074 C 
ATOM      6  N   UNL     1       3.776   1.067   5.901  0.00  0.00    +0.383 N 
ATOM      7  H   UNL     1       3.582   0.067   6.032  0.00  0.00    -0.081 HD
ENDROOT
BRANCH   1   8
ATOM      8  C   UNL     1       1.404   1.511   2.968  0.00  0.00    +0.107 C 
BRANCH   8   9
ATOM      9  N   UNL     1       0.025   1.063   2.760  0.00  0.00    -0.194 NA
ATOM     10  H   UNL     1      -0.369   0.411   3.360  0.00  0.00    +0.148 HD
BRANCH   9  11
ATOM     11  S   UNL     1      -0.862   1.671   1.500  0.00  0.00    +0.033 S 
ATOM     12  O   UNL     1      -0.735   3.082   1.615  0.00  0.00    -0.158 OA
ATOM     13  O   UNL     1      -2.133   1.046   1.617  0.00  0.00    -0.158 OA
BRANCH  11  14
ATOM     14  C   UNL     1      -0.013   1.086   0.008  0.00  0.00    +0.220 C 
BRANCH  14  18
ATOM     15  C   UNL     1      -2.078   2.501  -3.453  0.00  0.00    +0.000 A 
ATOM     16  C   UNL     1      -1.066   3.259  -2.894  0.00  0.00    +0.000 A 
ATOM     17  C   UNL     1      -0.398   2.801  -1.774  0.00  0.00    +0.005 A 
ATOM     18  C   UNL     1      -0.742   1.585  -1.213  0.00  0.00    -0.025 A 
ATOM     19  C   UNL     1      -1.750   0.825  -1.775  0.00  0.00    +0.005 A 
ATOM     20  C   UNL     1      -2.422   1.285  -2.892  0.00  0.00    +0.000 A 
ENDBRANCH  14  18
ENDBRANCH  11  14
ENDBRANCH   9  11
ENDBRANCH   8   9
ENDBRANCH   1   8
BRANCH   6  21
ATOM     21  C   UNL     1       5.228   1.297   6.055  0.00  0.00    -0.040 C 
BRANCH  21  22
ATOM     22  C   UNL     1       5.681   0.685   7.355  0.00  0.00    -0.023 A 
ATOM     23  C   UNL     1       5.919   1.351   8.508  0.00  0.00    +0.107 A 
ATOM     24  N   UNL     1       6.302   0.447   9.434  0.00  0.00    -0.284 N 
ATOM     25  H   UNL     1       6.540   0.644  10.385  0.00  0.00    +0.188 HD
ATOM     26  N   UNL     1       6.308  -0.816   8.828  0.00  0.00    -0.178 NA
ATOM     27  C   UNL     1       5.935  -0.672   7.582  0.00  0.00    +0.067 A 
BRANCH  27  28
ATOM     28  C   UNL     1       5.803  -1.777   6.566  0.00  0.00    +0.040 C 
ATOM     29  C   UNL     1       4.774  -2.799   7.056  0.00  0.00    +0.010 C 
ATOM     30  C   UNL     1       4.639  -3.921   6.024  0.00  0.00    +0.001 C 
ATOM     31  C   UNL     1       5.994  -4.609   5.839  0.00  0.00    +0.000 C 
ATOM     32  C   UNL     1       7.022  -3.587   5.350  0.00  0.00    +0.001 C 
ATOM     33  C   UNL     1       7.157  -2.465   6.381  0.00  0.00    +0.010 C 
ENDBRANCH  27  28
ENDBRANCH  21  22
ENDBRANCH   6  21
TORSDOF 8
