REMARK  Name = ZINC40023952
REMARK  8 active torsions:
REMARK  status: ('A' for Active; 'I' for Inactive)
REMARK    1  A    between atoms: C_1  and  C_2
REMARK    2  A    between atoms: C_2  and  C_3
REMARK    3  A    between atoms: C_3  and  N_4
REMARK    4  A    between atoms: C_5  and  C_7
REMARK    5  A    between atoms: C_7  and  C_9
REMARK    6  A    between atoms: C_7  and  N_10
REMARK    7  A    between atoms: N_13  and  C_14
REMARK    8  A    between atoms: C_17  and  C_21
REMARK                            x       y       z     vdW  Elec       q    Type
REMARK                         _______ _______ _______ _____ _____    ______ ____
ROOT
ATOM      1  N   UNL     1      -3.927  -4.696   0.029  0.00  0.00    -0.288 N 
ATOM      2  C   UNL     1      -4.187  -5.929   0.509  0.00  0.00    +0.304 C 
ATOM      3  O   UNL     1      -3.282  -6.618   0.938  0.00  0.00    -0.252 OA
ATOM      4  N   UNL     1      -5.451  -6.397   0.513  0.00  0.00    -0.268 N 
ATOM      5  H   UNL     1      -4.649  -4.147  -0.313  0.00  0.00    +0.151 HD
ATOM      6  H   UNL     1      -6.182  -5.824   0.232  0.00  0.00    +0.156 HD
ENDROOT
BRANCH   4   7
ATOM      7  C   UNL     1      -5.710  -7.710   0.923  0.00  0.00    +0.049 A 
ATOM      8  C   UNL     1      -4.952  -8.285   1.935  0.00  0.00    +0.025 A 
ATOM      9  C   UNL     1      -5.210  -9.581   2.338  0.00  0.00    +0.005 A 
ATOM     10  C   UNL     1      -6.221 -10.306   1.735  0.00  0.00    -0.049 A 
ATOM     11  C   UNL     1      -6.978  -9.737   0.727  0.00  0.00    +0.020 A 
ATOM     12  C   UNL     1      -6.728  -8.439   0.323  0.00  0.00    +0.039 A 
ATOM     13 BR   UNL     1      -7.768  -7.659  -1.051  0.00  0.00    -0.048 Br
ATOM     14  C   UNL     1      -6.499 -11.720   2.177  0.00  0.00    +0.044 C 
ENDBRANCH   4   7
BRANCH   1  15
ATOM     15  C   UNL     1      -2.553  -4.187   0.025  0.00  0.00    +0.157 C 
ATOM     16  C   UNL     1      -1.834  -4.670  -1.236  0.00  0.00    +0.038 C 
BRANCH  15  18
ATOM     17  N   UNL     1      -1.419  -1.989   0.044  0.00  0.00    -0.314 N 
ATOM     18  C   UNL     1      -2.576  -2.681   0.044  0.00  0.00    +0.233 C 
ATOM     19  O   UNL     1      -3.635  -2.090   0.060  0.00  0.00    -0.274 OA
ATOM     20  H   UNL     1      -0.572  -2.461   0.031  0.00  0.00    +0.149 HD
BRANCH  17  21
ATOM     21  C   UNL     1      -1.441  -0.524   0.062  0.00  0.00    +0.104 C 
BRANCH  21  23
ATOM     22  C   UNL     1      -0.029   1.537   0.077  0.00  0.00    +0.005 C 
ATOM     23  C   UNL     1      -0.006   0.007   0.058  0.00  0.00    +0.015 C 
ENDBRANCH  21  23
ENDBRANCH  17  21
ENDBRANCH  15  18
ENDBRANCH   1  15
TORSDOF 5
