REMARK  Name = ZINC16636455
REMARK  6 active torsions:
REMARK  status: ('A' for Active; 'I' for Inactive)
REMARK    1  A    between atoms: C_3  and  C_9
REMARK    2  A    between atoms: C_9  and  C_10
REMARK    3  A    between atoms: C_10  and  N_11
REMARK    4  A    between atoms: C_12  and  C_14
REMARK    5  A    between atoms: C_14  and  C_15
REMARK    6  A    between atoms: C_18  and  C_20
REMARK                            x       y       z     vdW  Elec       q    Type
REMARK                         _______ _______ _______ _____ _____    ______ ____
ROOT
ATOM      1  N   UNL     1      -1.191   1.867   0.018  0.00  0.00    -0.315 N 
ATOM      2  C   UNL     1      -0.014   1.209   0.009  0.00  0.00    +0.219 C 
ATOM      3  O   UNL     1       0.002  -0.004   0.002  0.00  0.00    -0.275 OA
ATOM      4  H   UNL     1      -1.204   2.837   0.023  0.00  0.00    +0.149 HD
ENDROOT
BRANCH   1   5
ATOM      5  C   UNL     1      -2.449   1.117   0.020  0.00  0.00    +0.109 C 
BRANCH   5   6
ATOM      6  C   UNL     1      -3.626   2.095   0.031  0.00  0.00    +0.055 C 
BRANCH   6   9
ATOM      7  C   UNL     1      -6.803   0.436   1.216  0.00  0.00    +0.020 A 
ATOM      8  C   UNL     1      -5.615   1.143   1.214  0.00  0.00    +0.006 A 
ATOM      9  C   UNL     1      -4.920   1.324   0.033  0.00  0.00    -0.027 A 
ATOM     10  C   UNL     1      -5.417   0.803  -1.149  0.00  0.00    +0.046 A 
ATOM     11  C   UNL     1      -6.603   0.091  -1.147  0.00  0.00    +0.040 A 
ATOM     12  C   UNL     1      -7.297  -0.090   0.036  0.00  0.00    +0.042 A 
ATOM     13 CL   UNL     1      -8.789  -0.979   0.040  0.00  0.00    -0.083 Cl
ATOM     14 CL   UNL     1      -4.548   1.037  -2.634  0.00  0.00    -0.083 Cl
ENDBRANCH   6   9
ENDBRANCH   5   6
ENDBRANCH   1   5
BRANCH   2  15
ATOM     15  C   UNL     1       1.280   1.980   0.001  0.00  0.00    +0.151 C 
BRANCH  15  16
ATOM     16  C   UNL     1       2.439   1.016  -0.016  0.00  0.00    +0.058 A 
ATOM     17  C   UNL     1       3.381   1.102  -0.990  0.00  0.00    +0.071 A 
ATOM     18  S   UNL     1       4.467  -0.238  -0.519  0.00  0.00    -0.075 S 
ATOM     19  C   UNL     1       3.545  -0.772   0.918  0.00  0.00    +0.109 A 
ATOM     20  N   UNL     1       2.536   0.088   0.910  0.00  0.00    -0.243 NA
BRANCH  19  21
ATOM     21  C   UNL     1       3.832  -1.874   1.860  0.00  0.00    +0.014 A 
ATOM     22  C   UNL     1       4.958  -2.677   1.697  0.00  0.00    +0.018 A 
ATOM     23  C   UNL     1       5.186  -3.675   2.579  0.00  0.00    +0.046 A 
ATOM     24  S   UNL     1       3.800  -3.520   3.693  0.00  0.00    -0.104 S 
ATOM     25  C   UNL     1       2.999  -2.127   2.917  0.00  0.00    +0.055 A 
ENDBRANCH  19  21
ENDBRANCH  15  16
ENDBRANCH   2  15
TORSDOF 6
