REMARK  Name = ZINC51186634
REMARK  9 active torsions:
REMARK  status: ('A' for Active; 'I' for Inactive)
REMARK    1  A    between atoms: C_1  and  C_2
REMARK    2  A    between atoms: C_4  and  N_21
REMARK    3  A    between atoms: C_7  and  N_8
REMARK    4  A    between atoms: N_8  and  C_9
REMARK    5  A    between atoms: C_9  and  C_11
REMARK    6  A    between atoms: C_9  and  C_12
REMARK    7  A    between atoms: N_17  and  C_18
REMARK    8  A    between atoms: C_18  and  C_19
REMARK    9  A    between atoms: C_18  and  C_20
REMARK                            x       y       z     vdW  Elec       q    Type
REMARK                         _______ _______ _______ _____ _____    ______ ____
ROOT
ATOM      1  N   UNL     1       0.025  -0.011   2.417  0.00  0.00    -0.333 N 
ATOM      2  H   UNL     1       0.026   0.959   2.422  0.00  0.00    +0.147 HD
ENDROOT
BRANCH   1   9
ATOM      3  C   UNL     1       0.024   1.503   0.010  0.00  0.00    +0.046 C 
ATOM      4  C   UNL     1       0.022  -0.004   0.002  0.00  0.00    -0.028 A 
ATOM      5  C   UNL     1       0.026  -0.688  -1.198  0.00  0.00    +0.028 A 
ATOM      6  C   UNL     1       0.025  -2.076  -1.206  0.00  0.00    +0.030 A 
ATOM      7  C   UNL     1       0.020  -2.777  -0.007  0.00  0.00    +0.025 A 
ATOM      8  C   UNL     1       0.016  -2.094   1.193  0.00  0.00    +0.025 A 
ATOM      9  C   UNL     1       0.023  -0.705   1.200  0.00  0.00    +0.031 A 
BRANCH   6  10
ATOM     10  N   UNL     1       0.028  -2.770  -2.422  0.00  0.00    -0.328 N 
ATOM     11  C   UNL     1       0.154  -4.228  -2.422  0.00  0.00    +0.116 C 
ATOM     12  C   UNL     1      -1.142  -4.852  -2.953  0.00  0.00    +0.088 C 
ATOM     13  S   UNL     1      -1.469  -4.188  -4.614  0.00  0.00    -0.158 S 
ATOM     14  C   UNL     1      -1.419  -2.389  -4.357  0.00  0.00    +0.088 C 
ATOM     15  C   UNL     1      -0.099  -2.028  -3.677  0.00  0.00    +0.116 C 
ENDBRANCH   6  10
ENDBRANCH   1   9
BRANCH   1  16
ATOM     16  C   UNL     1       0.026  -0.751   3.682  0.00  0.00    +0.154 C 
ATOM     17  C   UNL     1      -1.411  -1.115   4.060  0.00  0.00    +0.038 C 
BRANCH  16  18
ATOM     18  C   UNL     1       0.628   0.107   4.764  0.00  0.00    +0.240 C 
ATOM     19  O   UNL     1       1.019   1.225   4.505  0.00  0.00    -0.273 OA
ATOM     20  N   UNL     1       0.733  -0.370   6.021  0.00  0.00    -0.239 N 
ATOM     21  C   UNL     1       1.272   0.397   6.989  0.00  0.00    +0.306 C 
ATOM     22  O   UNL     1       1.663   1.518   6.730  0.00  0.00    -0.252 OA
ATOM     23  N   UNL     1       1.377  -0.079   8.246  0.00  0.00    -0.297 N 
ATOM     24  H   UNL     1       0.421  -1.264   6.228  0.00  0.00    +0.159 HD
ATOM     25  H   UNL     1       1.065  -0.974   8.453  0.00  0.00    +0.151 HD
BRANCH  23  26
ATOM     26  C   UNL     1       1.963   0.754   9.299  0.00  0.00    +0.068 C 
ATOM     27  C   UNL     1       0.883   1.663   9.890  0.00  0.00    +0.027 C 
ATOM     28  C   UNL     1       2.535  -0.141  10.399  0.00  0.00    +0.027 C 
ENDBRANCH  23  26
ENDBRANCH  16  18
ENDBRANCH   1  16
TORSDOF 5
