REMARK  Name = ZINC13065237
REMARK  13 active torsions:
REMARK  status: ('A' for Active; 'I' for Inactive)
REMARK    1  A    between atoms: C_1  and  C_2
REMARK    2  A    between atoms: C_2  and  C_3
REMARK    3  A    between atoms: C_3  and  C_5
REMARK    4  A    between atoms: C_3  and  N_72
REMARK    5  A    between atoms: N_9  and  C_10
REMARK    6  A    between atoms: C_10  and  C_11
REMARK    7  A    between atoms: C_17  and  C_18
REMARK    8  A    between atoms: C_17  and  N_72
REMARK    9  A    between atoms: C_18  and  C_19
REMARK   10  A    between atoms: C_25  and  C_26
REMARK   11  A    between atoms: C_25  and  N_72
REMARK   12  A    between atoms: C_29  and  C_39
REMARK   13  A    between atoms: C_32  and  C_38
REMARK                            x       y       z     vdW  Elec       q    Type
REMARK                         _______ _______ _______ _____ _____    ______ ____
ROOT
ATOM      1  N   UNL     1       2.193   7.550  -2.109  0.00  0.00    +0.389 N 
ATOM      2  H   UNL     1       2.932   7.569  -1.396  0.00  0.00    -0.080 HD
ENDROOT
BRANCH   1   3
ATOM      3  C   UNL     1       1.449   6.277  -1.995  0.00  0.00    +0.003 C 
BRANCH   3   4
ATOM      4  C   UNL     1       2.419   5.184  -1.631  0.00  0.00    +0.138 A 
ATOM      5  N   UNL     1       3.594   4.968  -2.171  0.00  0.00    -0.115 NA
ATOM      6  N   UNL     1       4.117   3.944  -1.589  0.00  0.00    -0.023 NA
ATOM      7  N   UNL     1       3.309   3.504  -0.689  0.00  0.00    -0.044 NA
ATOM      8  N   UNL     1       2.248   4.239  -0.688  0.00  0.00    -0.226 N 
BRANCH   8   9
ATOM      9  C   UNL     1       1.080   4.079   0.182  0.00  0.00    +0.182 C 
BRANCH   9  10
ATOM     10  C   UNL     1       0.079   3.170  -0.484  0.00  0.00    -0.026 A 
ATOM     11  C   UNL     1       0.136   1.805  -0.271  0.00  0.00    +0.005 A 
ATOM     12  C   UNL     1      -0.782   0.971  -0.882  0.00  0.00    +0.000 A 
ATOM     13  C   UNL     1      -1.754   1.502  -1.710  0.00  0.00    +0.000 A 
ATOM     14  C   UNL     1      -1.813   2.867  -1.919  0.00  0.00    +0.000 A 
ATOM     15  C   UNL     1      -0.896   3.701  -1.308  0.00  0.00    +0.005 A 
ENDBRANCH   9  10
ENDBRANCH   8   9
ENDBRANCH   3   4
BRANCH   3  17
ATOM     16  C   UNL     1      -0.316   6.972  -3.622  0.00  0.00    +0.002 C 
ATOM     17  C   UNL     1       0.769   5.936  -3.322  0.00  0.00    -0.011 C 
ENDBRANCH   3  17
ENDBRANCH   1   3
BRANCH   1  18
ATOM     18  C   UNL     1       2.813   7.654  -3.446  0.00  0.00    -0.073 C 
BRANCH  18  19
ATOM     19  C   UNL     1       3.867   8.763  -3.414  0.00  0.00    +0.016 C 
BRANCH  19  20
ATOM     20  C   UNL     1       4.446   8.947  -4.793  0.00  0.00    -0.049 A 
ATOM     21  C   UNL     1       5.496   8.153  -5.213  0.00  0.00    +0.003 A 
ATOM     22  C   UNL     1       6.024   8.317  -6.480  0.00  0.00    +0.000 A 
ATOM     23  C   UNL     1       5.508   9.283  -7.324  0.00  0.00    +0.000 A 
ATOM     24  C   UNL     1       4.460  10.081  -6.902  0.00  0.00    +0.000 A 
ATOM     25  C   UNL     1       3.929   9.913  -5.637  0.00  0.00    +0.003 A 
ENDBRANCH  19  20
ENDBRANCH  18  19
ENDBRANCH   1  18
BRANCH   1  26
ATOM     26  C   UNL     1       1.280   8.690  -1.884  0.00  0.00    -0.037 C 
BRANCH  26  27
ATOM     27  C   UNL     1       1.081   8.864  -0.401  0.00  0.00    +0.001 A 
ATOM     28  C   UNL     1       1.895   9.694   0.298  0.00  0.00    +0.017 A 
ATOM     29  C   UNL     1       1.672   9.845   1.737  0.00  0.00    +0.002 A 
ATOM     30  C   UNL     1       2.474  10.691   2.509  0.00  0.00    -0.041 A 
ATOM     31  C   UNL     1       2.243  10.806   3.850  0.00  0.00    +0.004 A 
ATOM     32  C   UNL     1       1.219  10.090   4.455  0.00  0.00    +0.005 A 
ATOM     33  C   UNL     1       0.416   9.249   3.714  0.00  0.00    -0.026 A 
ATOM     34  C   UNL     1       0.632   9.117   2.346  0.00  0.00    +0.052 A 
ATOM     35  N   UNL     1      -0.156   8.285   1.580  0.00  0.00    -0.322 N 
ATOM     36  H   UNL     1      -0.872   7.784   2.002  0.00  0.00    +0.169 HD
ATOM     37  C   UNL     1       0.053   8.157   0.258  0.00  0.00    +0.251 A 
ATOM     38  O   UNL     1      -0.663   7.411  -0.387  0.00  0.00    -0.268 OA
ATOM     39  C   UNL     1      -0.692   8.478   4.383  0.00  0.00    +0.046 C 
ATOM     40  C   UNL     1       3.589  11.474   1.863  0.00  0.00    +0.044 C 
ENDBRANCH  26  27
ENDBRANCH   1  26
TORSDOF 10
