REMARK  Name = ZINC40826193
REMARK  9 active torsions:
REMARK  status: ('A' for Active; 'I' for Inactive)
REMARK    1  A    between atoms: C_1  and  C_2
REMARK    2  A    between atoms: C_6  and  C_7
REMARK    3  A    between atoms: N_9  and  N_10
REMARK    4  A    between atoms: C_11  and  C_13
REMARK    5  A    between atoms: C_18  and  O_19
REMARK    6  A    between atoms: O_19  and  C_20
REMARK    7  A    between atoms: N_25  and  N_26
REMARK    8  A    between atoms: N_26  and  S_27
REMARK    9  A    between atoms: S_27  and  C_30
REMARK                            x       y       z     vdW  Elec       q    Type
REMARK                         _______ _______ _______ _____ _____    ______ ____
ROOT
ATOM      1  C   UNL     1      -0.018   1.503   0.010  0.00  0.00    +0.048 C 
ATOM      2  C   UNL     1       0.002  -0.004   0.002  0.00  0.00    +0.009 A 
ATOM      3  C   UNL     1       0.009  -0.838  -1.122  0.00  0.00    +0.042 A 
ATOM      4  C   UNL     1       0.027  -2.136  -0.673  0.00  0.00    +0.115 A 
ATOM      5  O   UNL     1       0.035  -2.112   0.658  0.00  0.00    -0.454 OA
ATOM      6  C   UNL     1       0.024  -0.830   1.091  0.00  0.00    +0.194 A 
ATOM      7  C   UNL     1       0.033  -3.325  -1.601  0.00  0.00    +0.075 C 
ATOM      8  C   UNL     1      -0.492  -2.901  -2.975  0.00  0.00    +0.014 C 
ATOM      9  C   UNL     1       0.279  -1.684  -3.496  0.00  0.00    +0.058 C 
ATOM     10  C   UNL     1       0.001  -0.511  -2.567  0.00  0.00    +0.071 C 
ATOM     11  N   UNL     1      -0.227   0.687  -3.008  0.00  0.00    -0.170 NA
ENDROOT
BRANCH   6  12
ATOM     12  C   UNL     1       0.032  -0.400   2.494  0.00  0.00    +0.296 C 
ATOM     13  O   UNL     1       0.018   0.786   2.766  0.00  0.00    -0.265 OA
ATOM     14  N   UNL     1       0.054  -1.318   3.480  0.00  0.00    -0.228 N 
ATOM     15  H   UNL     1       0.065  -2.263   3.263  0.00  0.00    +0.173 HD
BRANCH  14  16
ATOM     16  N   UNL     1       0.062  -0.906   4.820  0.00  0.00    -0.230 N 
ATOM     17  C   UNL     1       0.084  -1.824   5.806  0.00  0.00    +0.264 C 
ATOM     18  O   UNL     1       0.098  -3.009   5.534  0.00  0.00    -0.269 OA
ATOM     19  H   UNL     1       0.051   0.039   5.037  0.00  0.00    +0.173 HD
BRANCH  17  20
ATOM     20  C   UNL     1       0.092  -1.391   7.217  0.00  0.00    +0.080 A 
ATOM     21  C   UNL     1       0.071  -0.031   7.534  0.00  0.00    +0.017 A 
ATOM     22  C   UNL     1       0.078   0.367   8.853  0.00  0.00    +0.001 A 
ATOM     23  C   UNL     1       0.106  -0.576   9.868  0.00  0.00    +0.004 A 
ATOM     24  C   UNL     1       0.127  -1.923   9.568  0.00  0.00    +0.046 A 
ATOM     25  C   UNL     1       0.115  -2.342   8.246  0.00  0.00    +0.132 A 
BRANCH  25  26
ATOM     26  O   UNL     1       0.131  -3.666   7.950  0.00  0.00    -0.494 OA
ATOM     27  C   UNL     1       0.154  -4.576   9.051  0.00  0.00    +0.277 C 
ENDBRANCH  25  26
ENDBRANCH  17  20
ENDBRANCH  14  16
ENDBRANCH   6  12
BRANCH  11  28
ATOM     28  N   UNL     1      -0.222   0.939  -4.386  0.00  0.00    -0.136 N 
ATOM     29  H   UNL     1      -0.049   0.217  -5.010  0.00  0.00    +0.197 HD
BRANCH  28  30
ATOM     30  S   UNL     1      -0.513   2.469  -4.949  0.00  0.00    +0.086 S 
ATOM     31  O   UNL     1      -0.299   2.432  -6.353  0.00  0.00    -0.149 OA
ATOM     32  O   UNL     1      -1.745   2.885  -4.377  0.00  0.00    -0.149 OA
BRANCH  30  33
ATOM     33  C   UNL     1       0.734   3.517  -4.277  0.00  0.00    +0.110 A 
ATOM     34  C   UNL     1       0.529   4.141  -3.060  0.00  0.00    +0.031 A 
ATOM     35  C   UNL     1       1.506   4.963  -2.532  0.00  0.00    +0.040 A 
ATOM     36  C   UNL     1       2.691   5.162  -3.221  0.00  0.00    +0.124 A 
ATOM     37  C   UNL     1       2.894   4.536  -4.440  0.00  0.00    +0.040 A 
ATOM     38  C   UNL     1       1.918   3.710  -4.964  0.00  0.00    +0.031 A 
ATOM     39  F   UNL     1       3.647   5.965  -2.706  0.00  0.00    -0.205 F 
ENDBRANCH  30  33
ENDBRANCH  28  30
ENDBRANCH  11  28
TORSDOF 7
