REMARK  Name = ZINC36596865
REMARK  10 active torsions:
REMARK  status: ('A' for Active; 'I' for Inactive)
REMARK    1  A    between atoms: C_1  and  C_2
REMARK    2  A    between atoms: C_5  and  C_7
REMARK    3  A    between atoms: C_7  and  N_8
REMARK    4  A    between atoms: N_8  and  C_9
REMARK    5  A    between atoms: C_9  and  C_11
REMARK    6  A    between atoms: C_9  and  C_18
REMARK    7  A    between atoms: C_16  and  O_17
REMARK    8  A    between atoms: N_20  and  C_21
REMARK    9  A    between atoms: C_27  and  C_29
REMARK   10  A    between atoms: C_30  and  C_31
REMARK                            x       y       z     vdW  Elec       q    Type
REMARK                         _______ _______ _______ _____ _____    ______ ____
ROOT
ATOM      1  C   UNL     1       3.170  -3.006  -2.172  0.00  0.00    +0.197 C 
ENDROOT
BRANCH   1   2
ATOM      2  C   UNL     1       2.899  -1.538  -2.386  0.00  0.00    +0.023 A 
ATOM      3  C   UNL     1       2.260  -0.803  -1.406  0.00  0.00    +0.009 A 
ATOM      4  C   UNL     1       2.011   0.542  -1.602  0.00  0.00    +0.001 A 
ATOM      5  C   UNL     1       2.401   1.156  -2.778  0.00  0.00    +0.004 A 
ATOM      6  C   UNL     1       3.040   0.426  -3.761  0.00  0.00    +0.046 A 
ATOM      7  C   UNL     1       3.296  -0.924  -3.564  0.00  0.00    +0.122 A 
BRANCH   7   8
ATOM      8  O   UNL     1       3.931  -1.643  -4.527  0.00  0.00    -0.506 OA
ATOM      9  H   UNL     1       3.335  -2.049  -5.172  0.00  0.00    +0.292 HD
ENDBRANCH   7   8
ENDBRANCH   1   2
BRANCH   1  10
ATOM     10  C   UNL     1       4.613  -3.198  -1.784  0.00  0.00    +0.238 C 
ATOM     11  O   UNL     1       4.892  -3.708  -0.719  0.00  0.00    -0.273 OA
ATOM     12  N   UNL     1       5.595  -2.804  -2.619  0.00  0.00    -0.311 N 
ATOM     13  H   UNL     1       5.372  -2.397  -3.471  0.00  0.00    +0.149 HD
BRANCH  12  14
ATOM     14  C   UNL     1       6.997  -2.992  -2.242  0.00  0.00    +0.073 C 
ATOM     15  C   UNL     1       7.457  -1.812  -1.383  0.00  0.00    +0.022 C 
ATOM     16  C   UNL     1       8.922  -2.008  -0.988  0.00  0.00    +0.002 C 
ATOM     17  C   UNL     1       9.784  -2.086  -2.250  0.00  0.00    +0.000 C 
ATOM     18  C   UNL     1       9.325  -3.265  -3.109  0.00  0.00    +0.002 C 
ATOM     19  C   UNL     1       7.859  -3.070  -3.503  0.00  0.00    +0.022 C 
ENDBRANCH  12  14
ENDBRANCH   1  10
BRANCH   1  20
ATOM     20  N   UNL     1       2.305  -3.511  -1.103  0.00  0.00    -0.268 N 
ATOM     21  C   UNL     1       2.487  -3.094   0.165  0.00  0.00    +0.293 C 
ATOM     22  O   UNL     1       3.318  -2.240   0.411  0.00  0.00    -0.260 OA
BRANCH  21  23
ATOM     23  C   UNL     1       1.703  -3.656   1.223  0.00  0.00    -0.003 C 
ATOM     24  C   UNL     1       1.060  -4.117   2.091  0.00  0.00    -0.057 C 
BRANCH  24  25
ATOM     25  C   UNL     1       0.275  -4.679   3.149  0.00  0.00    +0.025 A 
ATOM     26  C   UNL     1      -0.677  -5.665   2.870  0.00  0.00    +0.017 A 
ATOM     27  C   UNL     1      -1.428  -6.202   3.895  0.00  0.00    +0.001 A 
ATOM     28  C   UNL     1      -1.242  -5.767   5.195  0.00  0.00    +0.000 A 
ATOM     29  C   UNL     1      -0.302  -4.791   5.479  0.00  0.00    +0.001 A 
ATOM     30  C   UNL     1       0.461  -4.249   4.466  0.00  0.00    +0.017 A 
ENDBRANCH  24  25
ENDBRANCH  21  23
BRANCH  20  31
ATOM     31  C   UNL     1       1.242  -4.470  -1.414  0.00  0.00    +0.184 C 
BRANCH  31  36
ATOM     32  C   UNL     1       3.502  -8.884  -2.335  0.00  0.00    +0.086 C 
ATOM     33  C   UNL     1       2.742  -7.792  -1.627  0.00  0.00    +0.102 A 
ATOM     34  C   UNL     1       2.249  -7.860  -0.377  0.00  0.00    +0.045 A 
ATOM     35  C   UNL     1       1.615  -6.623  -0.119  0.00  0.00    +0.046 A 
ATOM     36  C   UNL     1       1.760  -5.873  -1.226  0.00  0.00    +0.122 A 
ATOM     37  O   UNL     1       2.448  -6.584  -2.134  0.00  0.00    -0.463 OA
ENDBRANCH  31  36
ENDBRANCH  20  31
ENDBRANCH   1  20
TORSDOF 9
