REMARK  Name = ZINC27118355
REMARK  6 active torsions:
REMARK  status: ('A' for Active; 'I' for Inactive)
REMARK    1  A    between atoms: C_7  and  C_20
REMARK    2  A    between atoms: C_12  and  C_13
REMARK    3  A    between atoms: C_20  and  O_22
REMARK    4  A    between atoms: O_22  and  C_23
REMARK    5  A    between atoms: C_23  and  C_24
REMARK    6  A    between atoms: N_26  and  C_27
REMARK                            x       y       z     vdW  Elec       q    Type
REMARK                         _______ _______ _______ _____ _____    ______ ____
ROOT
ATOM      1  C   UNL     1       1.157   1.778   0.001  0.00  0.00    +0.001 A 
ATOM      2  C   UNL     1       1.152   3.171   0.007  0.00  0.00    +0.002 A 
ATOM      3  C   UNL     1      -0.015   3.870   0.021  0.00  0.00    +0.028 A 
ATOM      4  C   UNL     1      -1.243   3.180   0.030  0.00  0.00    +0.072 A 
ATOM      5  C   UNL     1      -1.230   1.762   0.017  0.00  0.00    +0.015 A 
ATOM      6  C   UNL     1      -0.013   1.076   0.008  0.00  0.00    +0.011 A 
ATOM      7  C   UNL     1      -2.511   1.054   0.020  0.00  0.00    +0.073 A 
ATOM      8  C   UNL     1      -3.667   1.819   0.029  0.00  0.00    -0.007 A 
ATOM      9  C   UNL     1      -3.580   3.222   0.035  0.00  0.00    +0.072 A 
ATOM     10  N   UNL     1      -2.400   3.837   0.043  0.00  0.00    -0.247 NA
ATOM     11  C   UNL     1      -4.929   3.814   0.044  0.00  0.00    -0.018 C 
ATOM     12  C   UNL     1      -5.213   5.134   0.052  0.00  0.00    +0.052 C 
ATOM     13  C   UNL     1      -5.939   2.694   0.043  0.00  0.00    +0.042 C 
ATOM     14  C   UNL     1      -5.117   1.399   0.033  0.00  0.00    +0.043 C 
ENDROOT
BRANCH  12  15
ATOM     15  C   UNL     1      -6.605   5.583   0.060  0.00  0.00    +0.128 A 
ATOM     16  C   UNL     1      -7.030   6.882   0.068  0.00  0.00    +0.049 A 
ATOM     17  C   UNL     1      -8.435   6.847   0.073  0.00  0.00    +0.042 A 
ATOM     18  C   UNL     1      -8.801   5.548   0.068  0.00  0.00    +0.195 A 
ATOM     19  O   UNL     1      -7.694   4.788   0.055  0.00  0.00    -0.464 OA
ENDBRANCH  12  15
BRANCH   7  20
ATOM     20  C   UNL     1      -2.569  -0.423   0.013  0.00  0.00    +0.341 C 
ATOM     21  O   UNL     1      -2.589  -1.035   1.062  0.00  0.00    -0.245 OA
BRANCH  20  22
ATOM     22  O   UNL     1      -2.601  -1.090  -1.157  0.00  0.00    -0.452 OA
BRANCH  22  23
ATOM     23  C   UNL     1      -2.658  -2.540  -1.087  0.00  0.00    +0.328 C 
BRANCH  23  24
ATOM     24  C   UNL     1      -2.687  -3.109  -2.483  0.00  0.00    +0.251 C 
ATOM     25  O   UNL     1      -2.662  -2.366  -3.441  0.00  0.00    -0.272 OA
ATOM     26  N   UNL     1      -2.740  -4.443  -2.665  0.00  0.00    -0.305 N 
ATOM     27  H   UNL     1      -2.763  -5.117  -1.796  0.00  0.00    +0.149 HD
BRANCH  26  28
ATOM     28  C   UNL     1      -2.768  -4.996  -4.022  0.00  0.00    +0.110 C 
ATOM     29  C   UNL     1      -2.214  -6.423  -4.001  0.00  0.00    +0.068 C 
ATOM     30  C   UNL     1      -2.524  -7.079  -5.353  0.00  0.00    +0.231 C 
ATOM     31  O   UNL     1      -3.941  -7.194  -5.484  0.00  0.00    -0.492 OA
ATOM     32  C   UNL     1      -4.694  -6.093  -5.227  0.00  0.00    +0.125 A 
ATOM     33  C   UNL     1      -4.188  -5.010  -4.529  0.00  0.00    +0.014 A 
ATOM     34  C   UNL     1      -4.993  -3.910  -4.285  0.00  0.00    +0.009 A 
ATOM     35  C   UNL     1      -6.298  -3.887  -4.738  0.00  0.00    +0.001 A 
ATOM     36  C   UNL     1      -6.805  -4.966  -5.438  0.00  0.00    +0.004 A 
ATOM     37  C   UNL     1      -6.008  -6.066  -5.683  0.00  0.00    +0.046 A 
ENDBRANCH  26  28
ENDBRANCH  23  24
ENDBRANCH  22  23
ENDBRANCH  20  22
ENDBRANCH   7  20
TORSDOF 6
