REMARK  Name = ZINC44042933
REMARK  8 active torsions:
REMARK  status: ('A' for Active; 'I' for Inactive)
REMARK    1  A    between atoms: C_1  and  C_2
REMARK    2  A    between atoms: C_5  and  C_7
REMARK    3  A    between atoms: C_10  and  N_13
REMARK    4  A    between atoms: N_16  and  C_17
REMARK    5  A    between atoms: N_16  and  C_29
REMARK    6  A    between atoms: C_17  and  C_18
REMARK    7  A    between atoms: C_21  and  C_23
REMARK    8  A    between atoms: C_26  and  C_28
REMARK                            x       y       z     vdW  Elec       q    Type
REMARK                         _______ _______ _______ _____ _____    ______ ____
ROOT
ATOM      1  N   UNL     1       0.260  -6.663   3.933  0.00  0.00    -0.269 N 
ATOM      2  C   UNL     1       0.284  -6.549   5.276  0.00  0.00    +0.307 C 
ATOM      3  O   UNL     1       0.264  -5.448   5.792  0.00  0.00    -0.252 OA
ATOM      4  N   UNL     1       0.329  -7.654   6.046  0.00  0.00    -0.275 N 
ATOM      5  H   UNL     1       0.147  -7.535   3.523  0.00  0.00    +0.156 HD
ENDROOT
BRANCH   1   9
ATOM      6  C   UNL     1       0.674  -3.271   1.543  0.00  0.00    +0.019 A 
ATOM      7  C   UNL     1       1.159  -4.503   1.099  0.00  0.00    +0.013 A 
ATOM      8  C   UNL     1       1.020  -5.622   1.892  0.00  0.00    +0.024 A 
ATOM      9  C   UNL     1       0.399  -5.526   3.131  0.00  0.00    +0.035 A 
ATOM     10  C   UNL     1      -0.085  -4.301   3.576  0.00  0.00    +0.024 A 
ATOM     11  C   UNL     1       0.056  -3.176   2.791  0.00  0.00    +0.013 A 
BRANCH   6  16
ATOM     12  C   UNL     1       0.454   1.454  -0.122  0.00  0.00    +0.109 C 
ATOM     13  C   UNL     1       0.731  -0.025  -0.036  0.00  0.00    +0.193 A 
ATOM     14  N   UNL     1       1.324  -0.738  -0.952  0.00  0.00    -0.221 NA
ATOM     15  C   UNL     1       1.397  -2.010  -0.532  0.00  0.00    +0.161 A 
ATOM     16  C   UNL     1       0.821  -2.069   0.696  0.00  0.00    +0.155 A 
ATOM     17  O   UNL     1       0.413  -0.817   0.998  0.00  0.00    -0.440 OA
ENDBRANCH   6  16
ENDBRANCH   1   9
BRANCH   4  18
ATOM     18  C   UNL     1       0.460  -8.974   5.425  0.00  0.00    +0.078 C 
ATOM     19  C   UNL     1       0.507 -10.190   6.353  0.00  0.00    +0.024 C 
ATOM     20  C   UNL     1       1.776  -9.726   5.636  0.00  0.00    +0.024 C 
ENDBRANCH   4  18
BRANCH   4  21
ATOM     21  C   UNL     1       0.246  -7.535   7.504  0.00  0.00    +0.183 C 
BRANCH  21  22
ATOM     22  C   UNL     1      -1.198  -7.601   7.932  0.00  0.00    +0.123 A 
ATOM     23  C   UNL     1      -1.872  -8.720   8.254  0.00  0.00    +0.046 A 
ATOM     24  C   UNL     1      -3.186  -8.323   8.593  0.00  0.00    +0.045 A 
ATOM     25  C   UNL     1      -3.236  -6.985   8.457  0.00  0.00    +0.109 A 
ATOM     26  O   UNL     1      -2.027  -6.553   8.062  0.00  0.00    -0.463 OA
BRANCH  25  27
ATOM     27  C   UNL     1      -4.442  -6.118   8.710  0.00  0.00    +0.058 C 
ATOM     28  C   UNL     1      -4.238  -4.602   8.697  0.00  0.00    +0.015 C 
ATOM     29  C   UNL     1      -4.973  -5.286   7.541  0.00  0.00    -0.003 C 
ATOM     30  C   UNL     1      -4.238  -5.398   6.204  0.00  0.00    +0.008 C 
ENDBRANCH  25  27
ENDBRANCH  21  22
ENDBRANCH   4  21
TORSDOF 6
