REMARK  Name = ZINC15708081
REMARK  7 active torsions:
REMARK  status: ('A' for Active; 'I' for Inactive)
REMARK    1  A    between atoms: C_4  and  N_7
REMARK    2  A    between atoms: C_8  and  C_10
REMARK    3  A    between atoms: C_10  and  C_11
REMARK    4  A    between atoms: C_11  and  C_12
REMARK    5  A    between atoms: C_21  and  N_24
REMARK    6  A    between atoms: N_24  and  S_25
REMARK    7  A    between atoms: S_25  and  C_28
REMARK                            x       y       z     vdW  Elec       q    Type
REMARK                         _______ _______ _______ _____ _____    ______ ____
ROOT
ATOM      1  C   UNL     1      -3.874   5.952  -0.163  0.00  0.00    -0.050 C 
ATOM      2  C   UNL     1      -3.849   7.487  -0.121  0.00  0.00    +0.089 C 
ATOM      3  N   UNL     1      -5.138   8.043   0.241  0.00  0.00    -0.318 N 
ATOM      4  C   UNL     1      -6.176   7.329   0.719  0.00  0.00    +0.200 C 
ATOM      5  O   UNL     1      -7.178   7.888   1.111  0.00  0.00    -0.278 OA
ATOM      6  C   UNL     1      -6.076   5.839   0.757  0.00  0.00    +0.021 C 
ATOM      7  C   UNL     1      -4.678   4.061   1.277  0.00  0.00    -0.057 C 
ATOM      8  C   UNL     1      -5.894   3.922   2.234  0.00  0.00    +0.059 C 
ATOM      9  C   UNL     1      -6.794   5.146   1.915  0.00  0.00    +0.012 C 
ATOM     10  H   UNL     1      -5.257   9.000   0.143  0.00  0.00    +0.149 HD
ATOM     11  N   UNL     1      -4.706   5.514   1.016  0.00  0.00    +0.391 N 
ATOM     12  H   UNL     1      -4.374   6.011   1.851  0.00  0.00    -0.080 HD
ENDROOT
BRANCH   8  13
ATOM     13  N   UNL     1      -5.452   3.965   3.630  0.00  0.00    -0.189 NA
ATOM     14  H   UNL     1      -5.265   4.817   4.053  0.00  0.00    +0.148 HD
BRANCH  13  15
ATOM     15  S   UNL     1      -5.271   2.558   4.485  0.00  0.00    +0.059 S 
ATOM     16  O   UNL     1      -4.812   2.925   5.779  0.00  0.00    -0.153 OA
ATOM     17  O   UNL     1      -6.459   1.805   4.284  0.00  0.00    -0.153 OA
BRANCH  15  18
ATOM     18  C   UNL     1      -3.965   1.651   3.725  0.00  0.00    +0.105 A 
ATOM     19  C   UNL     1      -4.245   0.753   2.713  0.00  0.00    +0.028 A 
ATOM     20  C   UNL     1      -3.220   0.045   2.114  0.00  0.00    +0.002 A 
ATOM     21  C   UNL     1      -1.916   0.228   2.534  0.00  0.00    +0.000 A 
ATOM     22  C   UNL     1      -1.637   1.123   3.550  0.00  0.00    +0.002 A 
ATOM     23  C   UNL     1      -2.661   1.834   4.146  0.00  0.00    +0.028 A 
ENDBRANCH  15  18
ENDBRANCH  13  15
ENDBRANCH   8  13
BRANCH   1  24
ATOM     24  C   UNL     1      -2.448   5.406  -0.080  0.00  0.00    -0.005 C 
BRANCH  24  25
ATOM     25  C   UNL     1      -1.686   5.774  -1.355  0.00  0.00    +0.094 C 
BRANCH  25  27
ATOM     26  N   UNL     1       0.535   5.329  -2.349  0.00  0.00    -0.285 N 
ATOM     27  C   UNL     1      -0.319   5.141  -1.323  0.00  0.00    +0.217 C 
ATOM     28  O   UNL     1       0.014   4.462  -0.375  0.00  0.00    -0.275 OA
ATOM     29  H   UNL     1       0.300   5.933  -3.071  0.00  0.00    +0.155 HD
BRANCH  26  33
ATOM     30  C   UNL     1       4.179   3.312  -2.431  0.00  0.00    +0.000 A 
ATOM     31  C   UNL     1       3.070   2.710  -1.867  0.00  0.00    +0.002 A 
ATOM     32  C   UNL     1       1.861   3.376  -1.837  0.00  0.00    +0.023 A 
ATOM     33  C   UNL     1       1.760   4.653  -2.373  0.00  0.00    +0.033 A 
ATOM     34  C   UNL     1       2.876   5.256  -2.939  0.00  0.00    +0.023 A 
ATOM     35  C   UNL     1       4.082   4.584  -2.966  0.00  0.00    +0.002 A 
ENDBRANCH  26  33
ENDBRANCH  25  27
ENDBRANCH  24  25
ENDBRANCH   1  24
TORSDOF 7
