REMARK  Name = ZINC66425052
REMARK  16 active torsions:
REMARK  status: ('A' for Active; 'I' for Inactive)
REMARK    1  A    between atoms: C_1  and  C_2
REMARK    2  A    between atoms: C_2  and  C_4
REMARK    3  A    between atoms: C_2  and  O_22
REMARK    4  A    between atoms: C_9  and  C_12
REMARK    5  A    between atoms: C_9  and  N_13
REMARK    6  A    between atoms: N_13  and  C_14
REMARK    7  A    between atoms: C_15  and  O_17
REMARK    8  A    between atoms: O_17  and  C_18
REMARK    9  A    between atoms: C_18  and  C_19
REMARK   10  A    between atoms: C_18  and  C_20
REMARK   11  A    between atoms: C_18  and  C_21
REMARK   12  A    between atoms: O_22  and  C_23
REMARK   13  A    between atoms: C_23  and  C_24
REMARK   14  A    between atoms: C_24  and  C_25
REMARK   15  A    between atoms: C_25  and  C_26
REMARK   16  A    between atoms: C_25  and  C_27
REMARK                            x       y       z     vdW  Elec       q    Type
REMARK                         _______ _______ _______ _____ _____    ______ ____
ROOT
ATOM      1  C   UNL     1       0.804  -0.295   0.971  0.00  0.00    +0.244 C 
ATOM      2  O   UNL     1       0.250  -1.027   1.764  0.00  0.00    -0.273 OA
ATOM      3  N   UNL     1       2.114  -0.013   1.115  0.00  0.00    -0.299 N 
ATOM      4  C   UNL     1       2.773   0.956   0.230  0.00  0.00    +0.110 C 
ATOM      5  C   UNL     1       3.471   2.015   1.090  0.00  0.00    +0.045 C 
ATOM      6  C   UNL     1       4.414   1.324   2.077  0.00  0.00    +0.040 C 
ATOM      7  C   UNL     1       3.606   0.407   3.000  0.00  0.00    +0.045 C 
ATOM      8  C   UNL     1       2.909  -0.665   2.165  0.00  0.00    +0.110 C 
ATOM      9  C   UNL     1       5.138   2.380   2.915  0.00  0.00    +0.032 C 
ENDROOT
BRANCH   6  10
ATOM     10  N   UNL     1       5.397   0.528   1.338  0.00  0.00    -0.265 N 
ATOM     11  C   UNL     1       5.623  -0.874   1.697  0.00  0.00    +0.136 C 
ATOM     12  C   UNL     1       6.094   1.087   0.329  0.00  0.00    +0.404 C 
ATOM     13  O   UNL     1       5.906   2.250   0.031  0.00  0.00    -0.226 OA
BRANCH  12  14
ATOM     14  O   UNL     1       6.998   0.356  -0.351  0.00  0.00    -0.445 OA
BRANCH  14  15
ATOM     15  C   UNL     1       7.699   1.012  -1.409  0.00  0.00    +0.107 C 
ATOM     16  C   UNL     1       8.475   2.203  -0.844  0.00  0.00    +0.055 C 
ATOM     17  C   UNL     1       8.676   0.029  -2.059  0.00  0.00    +0.055 C 
ATOM     18  C   UNL     1       6.699   1.504  -2.456  0.00  0.00    +0.055 C 
ENDBRANCH  14  15
ENDBRANCH  12  14
ENDBRANCH   6  10
BRANCH   1  20
ATOM     19  C   UNL     1      -0.161   1.799   0.058  0.00  0.00    +0.048 C 
ATOM     20  C   UNL     1       0.028   0.299  -0.176  0.00  0.00    +0.201 C 
BRANCH  20  21
ATOM     21  O   UNL     1      -1.251  -0.334  -0.264  0.00  0.00    -0.368 OA
BRANCH  21  22
ATOM     22  C   UNL     1      -1.781  -0.391  -1.590  0.00  0.00    +0.161 C 
BRANCH  22  23
ATOM     23  C   UNL     1      -3.144  -1.085  -1.564  0.00  0.00    +0.031 C 
BRANCH  23  24
ATOM     24  C   UNL     1      -3.712  -1.146  -2.984  0.00  0.00    -0.015 C 
ATOM     25  C   UNL     1      -2.821  -2.037  -3.852  0.00  0.00    +0.007 C 
ATOM     26  C   UNL     1      -5.127  -1.726  -2.943  0.00  0.00    +0.007 C 
ENDBRANCH  23  24
ENDBRANCH  22  23
ENDBRANCH  21  22
ENDBRANCH  20  21
ENDBRANCH   1  20
TORSDOF 8
