REMARK  Name = ZINC12979050
REMARK  7 active torsions:
REMARK  status: ('A' for Active; 'I' for Inactive)
REMARK    1  A    between atoms: C_1  and  C_2
REMARK    2  A    between atoms: C_2  and  C_4
REMARK    3  A    between atoms: C_2  and  O_22
REMARK    4  A    between atoms: C_7  and  S_9
REMARK    5  A    between atoms: S_9  and  C_10
REMARK    6  A    between atoms: C_10  and  C_11
REMARK    7  A    between atoms: O_22  and  C_23
REMARK                            x       y       z     vdW  Elec       q    Type
REMARK                         _______ _______ _______ _____ _____    ______ ____
ROOT
ATOM      1  C   UNL     1       0.072   0.051  -0.214  0.00  0.00    +0.258 A 
ATOM      2  N   UNL     1       1.283  -0.399  -0.069  0.00  0.00    -0.108 NA
ATOM      3  N   UNL     1       2.119   0.575  -0.160  0.00  0.00    -0.101 NA
ATOM      4  C   UNL     1       1.462   1.691  -0.368  0.00  0.00    +0.278 A 
ATOM      5  O   UNL     1       0.152   1.383  -0.406  0.00  0.00    -0.412 OA
ENDROOT
BRANCH   1   7
ATOM      6  C   UNL     1      -1.507  -1.149   1.275  0.00  0.00    +0.062 C 
ATOM      7  C   UNL     1      -1.193  -0.767  -0.173  0.00  0.00    +0.257 C 
BRANCH   7   8
ATOM      8  O   UNL     1      -1.018  -1.953  -0.951  0.00  0.00    -0.480 OA
BRANCH   8   9
ATOM      9  C   UNL     1      -2.140  -2.530  -1.458  0.00  0.00    +0.122 A 
ATOM     10  C   UNL     1      -2.037  -3.612  -2.319  0.00  0.00    +0.048 A 
ATOM     11  C   UNL     1      -3.178  -4.201  -2.828  0.00  0.00    +0.042 A 
ATOM     12  C   UNL     1      -4.425  -3.704  -2.489  0.00  0.00    +0.124 A 
ATOM     13  C   UNL     1      -4.530  -2.619  -1.634  0.00  0.00    +0.042 A 
ATOM     14  C   UNL     1      -3.390  -2.032  -1.119  0.00  0.00    +0.048 A 
ATOM     15  F   UNL     1      -5.540  -4.277  -2.991  0.00  0.00    -0.205 F 
ENDBRANCH   8   9
ENDBRANCH   7   8
ENDBRANCH   1   7
BRANCH   4  16
ATOM     16  S   UNL     1       2.164   3.296  -0.561  0.00  0.00    -0.061 S 
BRANCH  16  17
ATOM     17  C   UNL     1       3.921   2.893  -0.389  0.00  0.00    +0.117 C 
BRANCH  17  18
ATOM     18  C   UNL     1       4.739   4.151  -0.523  0.00  0.00    +0.000 A 
ATOM     19  C   UNL     1       5.036   4.895   0.582  0.00  0.00    +0.017 A 
ATOM     20  C   UNL     1       5.804   6.063   0.412  0.00  0.00    +0.001 A 
ATOM     21  C   UNL     1       6.148   6.877   1.503  0.00  0.00    +0.010 A 
ATOM     22  C   UNL     1       6.892   7.998   1.297  0.00  0.00    +0.001 A 
ATOM     23  C   UNL     1       7.317   8.350   0.017  0.00  0.00    +0.002 A 
ATOM     24  C   UNL     1       7.001   7.584  -1.062  0.00  0.00    +0.028 A 
ATOM     25  C   UNL     1       6.235   6.418  -0.890  0.00  0.00    +0.073 A 
ATOM     26  N   UNL     1       5.910   5.646  -1.933  0.00  0.00    -0.235 NA
ATOM     27  C   UNL     1       5.200   4.554  -1.777  0.00  0.00    +0.134 A 
ATOM     28 CL   UNL     1       4.817   3.589  -3.168  0.00  0.00    -0.062 Cl
ENDBRANCH  17  18
ENDBRANCH  16  17
ENDBRANCH   4  16
TORSDOF 6
