REMARK  Name = ZINC01085949
REMARK  5 active torsions:
REMARK  status: ('A' for Active; 'I' for Inactive)
REMARK    1  A    between atoms: N_9  and  S_10
REMARK    2  A    between atoms: S_10  and  C_13
REMARK    3  A    between atoms: C_16  and  N_19
REMARK    4  A    between atoms: C_20  and  C_21
REMARK    5  A    between atoms: C_26  and  O_27
REMARK                            x       y       z     vdW  Elec       q    Type
REMARK                         _______ _______ _______ _____ _____    ______ ____
ROOT
ATOM      1  C   UNL     1       5.943   7.364  -0.013  0.00  0.00    +0.109 A 
ATOM      2  C   UNL     1       4.909   7.742  -0.850  0.00  0.00    +0.031 A 
ATOM      3  C   UNL     1       3.723   7.037  -0.849  0.00  0.00    +0.029 A 
ATOM      4  C   UNL     1       3.568   5.940   0.001  0.00  0.00    +0.064 A 
ATOM      5  C   UNL     1       4.615   5.567   0.847  0.00  0.00    +0.029 A 
ATOM      6  C   UNL     1       5.797   6.278   0.832  0.00  0.00    +0.031 A 
ENDROOT
BRANCH   1   7
ATOM      7  S   UNL     1       7.455   8.270  -0.022  0.00  0.00    +0.075 S 
ATOM      8  O   UNL     1       8.460   7.387   0.455  0.00  0.00    -0.150 OA
ATOM      9  O   UNL     1       7.539   8.907  -1.289  0.00  0.00    -0.150 OA
BRANCH   7  18
ATOM     10  C   UNL     1       5.908  13.380   0.748  0.00  0.00    +0.000 A 
ATOM     11  C   UNL     1       5.903  12.603  -0.396  0.00  0.00    +0.002 A 
ATOM     12  C   UNL     1       6.353  11.301  -0.352  0.00  0.00    +0.025 A 
ATOM     13  C   UNL     1       6.822  10.757   0.846  0.00  0.00    +0.054 A 
ATOM     14  C   UNL     1       6.817  11.543   1.988  0.00  0.00    -0.023 A 
ATOM     15  C   UNL     1       6.365  12.848   1.939  0.00  0.00    +0.005 A 
ATOM     16  C   UNL     1       7.362  10.724   3.137  0.00  0.00    +0.058 C 
ATOM     17  C   UNL     1       7.680   9.354   2.517  0.00  0.00    +0.136 C 
ATOM     18  N   UNL     1       7.309   9.475   1.105  0.00  0.00    -0.202 N 
ENDBRANCH   7  18
ENDBRANCH   1   7
BRANCH   4  19
ATOM     19  N   UNL     1       2.395   5.236   0.008  0.00  0.00    -0.255 NA
ATOM     20  C   UNL     1       2.416   3.932   0.001  0.00  0.00    +0.123 C 
BRANCH  20  21
ATOM     21  C   UNL     1       1.155   3.176   0.008  0.00  0.00    +0.034 A 
ATOM     22  C   UNL     1       1.173   1.778   0.000  0.00  0.00    +0.013 A 
ATOM     23  C   UNL     1      -0.013   1.076   0.008  0.00  0.00    +0.001 A 
ATOM     24  C   UNL     1      -1.224   1.749   0.017  0.00  0.00    +0.004 A 
ATOM     25  C   UNL     1      -1.256   3.130   0.031  0.00  0.00    +0.046 A 
ATOM     26  C   UNL     1      -0.074   3.853   0.024  0.00  0.00    +0.125 A 
BRANCH  26  27
ATOM     27  O   UNL     1      -0.105   5.210   0.032  0.00  0.00    -0.506 OA
ATOM     28  H   UNL     1      -0.122   5.608  -0.850  0.00  0.00    +0.292 HD
ENDBRANCH  26  27
ENDBRANCH  20  21
ENDBRANCH   4  19
TORSDOF 5
