REMARK  Name = ZINC04555230
REMARK  8 active torsions:
REMARK  status: ('A' for Active; 'I' for Inactive)
REMARK    1  A    between atoms: C_1  and  C_2
REMARK    2  A    between atoms: C_5  and  C_8
REMARK    3  A    between atoms: C_8  and  N_9
REMARK    4  A    between atoms: C_16  and  C_19
REMARK    5  A    between atoms: C_16  and  O_31
REMARK    6  A    between atoms: C_19  and  C_20
REMARK    7  A    between atoms: C_20  and  C_22
REMARK    8  A    between atoms: C_27  and  N_28
REMARK                            x       y       z     vdW  Elec       q    Type
REMARK                         _______ _______ _______ _____ _____    ______ ____
ROOT
ATOM      1  N   UNL     1      -6.368   4.401  -1.226  0.00  0.00    -0.264 N 
ATOM      2  C   UNL     1      -7.053   3.477  -0.437  0.00  0.00    +0.043 A 
ATOM      3  C   UNL     1      -8.307   2.892  -0.600  0.00  0.00    +0.024 A 
ATOM      4  C   UNL     1      -8.777   1.989   0.331  0.00  0.00    +0.002 A 
ATOM      5  C   UNL     1      -8.008   1.657   1.432  0.00  0.00    +0.000 A 
ATOM      6  C   UNL     1      -6.762   2.233   1.601  0.00  0.00    +0.009 A 
ATOM      7  C   UNL     1      -6.291   3.135   0.673  0.00  0.00    +0.015 A 
ATOM      8  C   UNL     1      -5.006   3.923   0.566  0.00  0.00    +0.175 C 
ATOM      9  C   UNL     1      -5.166   4.716  -0.714  0.00  0.00    +0.257 C 
ATOM     10  O   UNL     1      -4.361   5.489  -1.188  0.00  0.00    -0.272 OA
ENDROOT
BRANCH   8  11
ATOM     11  O   UNL     1      -4.859   4.801   1.684  0.00  0.00    -0.374 OA
ATOM     12  H   UNL     1      -4.065   5.352   1.649  0.00  0.00    +0.211 HD
ENDBRANCH   8  11
BRANCH   1  13
ATOM     13  C   UNL     1      -6.897   4.964  -2.471  0.00  0.00    +0.148 C 
BRANCH  13  18
ATOM     14  C   UNL     1      -5.327   1.624  -6.917  0.00  0.00    +0.044 C 
ATOM     15  C   UNL     1      -5.736   2.495  -5.758  0.00  0.00    -0.050 A 
ATOM     16  C   UNL     1      -6.923   2.248  -5.093  0.00  0.00    +0.003 A 
ATOM     17  C   UNL     1      -7.299   3.047  -4.029  0.00  0.00    +0.005 A 
ATOM     18  C   UNL     1      -6.488   4.093  -3.630  0.00  0.00    -0.030 A 
ATOM     19  C   UNL     1      -5.304   4.344  -4.298  0.00  0.00    +0.005 A 
ATOM     20  C   UNL     1      -4.926   3.542  -5.359  0.00  0.00    +0.003 A 
ENDBRANCH  13  18
ENDBRANCH   1  13
BRANCH   8  21
ATOM     21  C   UNL     1      -3.805   2.980   0.465  0.00  0.00    +0.129 C 
BRANCH  21  22
ATOM     22  C   UNL     1      -2.548   3.786   0.263  0.00  0.00    +0.169 C 
ATOM     23  O   UNL     1      -2.607   4.995   0.205  0.00  0.00    -0.292 OA
BRANCH  22  24
ATOM     24  C   UNL     1      -1.250   3.105   0.136  0.00  0.00    +0.048 A 
ATOM     25  C   UNL     1      -0.650   2.963  -1.119  0.00  0.00    +0.013 A 
ATOM     26  C   UNL     1       0.564   2.319  -1.231  0.00  0.00    +0.001 A 
ATOM     27  C   UNL     1       1.194   1.824  -0.103  0.00  0.00    +0.002 A 
ATOM     28  C   UNL     1       0.611   1.965   1.144  0.00  0.00    +0.033 A 
ATOM     29  C   UNL     1      -0.606   2.602   1.271  0.00  0.00    +0.137 A 
BRANCH  29  30
ATOM     30  N   UNL     1      -1.229   2.752   2.605  0.00  0.00    +0.057 N 
ATOM     31  O   UNL     1      -0.725   2.217   3.576  0.00  0.00    -0.126 OA
ATOM     32  O   UNL     1      -2.246   3.410   2.732  0.00  0.00    -0.126 OA
ENDBRANCH  29  30
ENDBRANCH  22  24
ENDBRANCH  21  22
ENDBRANCH   8  21
TORSDOF 7
