REMARK  Name = ZINC33939997
REMARK  16 active torsions:
REMARK  status: ('A' for Active; 'I' for Inactive)
REMARK    1  A    between atoms: C_1  and  C_2
REMARK    2  A    between atoms: C_2  and  C_3
REMARK    3  A    between atoms: C_2  and  C_4
REMARK    4  A    between atoms: C_4  and  C_5
REMARK    5  A    between atoms: C_5  and  N_6
REMARK    6  A    between atoms: C_7  and  C_33
REMARK    7  A    between atoms: C_12  and  C_32
REMARK    8  A    between atoms: C_14  and  C_20
REMARK    9  A    between atoms: N_22  and  C_23
REMARK   10  A    between atoms: C_23  and  C_24
REMARK   11  A    between atoms: C_27  and  O_30
REMARK   12  A    between atoms: O_30  and  C_31
REMARK   13  A    between atoms: N_35  and  C_36
REMARK   14  A    between atoms: C_36  and  C_37
REMARK   15  A    between atoms: C_36  and  C_38
REMARK   16  A    between atoms: C_36  and  C_39
REMARK                            x       y       z     vdW  Elec       q    Type
REMARK                         _______ _______ _______ _____ _____    ______ ____
ROOT
ATOM      1  N   UNL     1       2.156  -0.324  -2.887  0.00  0.00    -0.287 N 
ATOM      2  C   UNL     1       2.824  -1.659  -2.784  0.00  0.00    +0.198 C 
ATOM      3  C   UNL     1       4.046  -1.459  -3.626  0.00  0.00    +0.127 C 
ATOM      4  C   UNL     1       5.069  -0.548  -2.972  0.00  0.00    +0.009 C 
ATOM      5  C   UNL     1       6.082  -0.477  -3.823  0.00  0.00    +0.007 C 
ATOM      6  C   UNL     1       5.642  -1.307  -5.035  0.00  0.00    +0.098 C 
ATOM      7  O   UNL     1       4.818  -2.361  -4.384  0.00  0.00    -0.355 OA
ATOM      8  C   UNL     1       4.542  -0.383  -5.688  0.00  0.00    +0.125 C 
ATOM      9  C   UNL     1       3.351  -0.672  -4.809  0.00  0.00    +0.128 C 
ATOM     10  C   UNL     1       2.551   0.302  -4.045  0.00  0.00    +0.223 C 
ATOM     11  O   UNL     1       2.291   1.439  -4.376  0.00  0.00    -0.275 OA
ATOM     12  C   UNL     1       6.760  -1.799  -5.957  0.00  0.00    +0.047 C 
ENDROOT
BRANCH   8  13
ATOM     13  C   UNL     1       4.936   1.069  -5.606  0.00  0.00    +0.220 C 
ATOM     14  O   UNL     1       4.755   1.690  -4.579  0.00  0.00    -0.275 OA
ATOM     15  N   UNL     1       5.490   1.679  -6.673  0.00  0.00    -0.311 N 
ATOM     16  H   UNL     1       5.634   1.182  -7.494  0.00  0.00    +0.149 HD
BRANCH  15  17
ATOM     17  C   UNL     1       5.873   3.090  -6.593  0.00  0.00    +0.139 C 
BRANCH  17  18
ATOM     18  C   UNL     1       6.464   3.525  -7.909  0.00  0.00    -0.030 A 
ATOM     19  C   UNL     1       7.824   3.402  -8.130  0.00  0.00    +0.009 A 
ATOM     20  C   UNL     1       8.368   3.800  -9.336  0.00  0.00    +0.046 A 
ATOM     21  C   UNL     1       7.549   4.325 -10.325  0.00  0.00    +0.120 A 
ATOM     22  C   UNL     1       6.185   4.447 -10.101  0.00  0.00    +0.046 A 
ATOM     23  C   UNL     1       5.645   4.042  -8.896  0.00  0.00    +0.009 A 
BRANCH  21  24
ATOM     24  O   UNL     1       8.082   4.718 -11.512  0.00  0.00    -0.495 OA
ATOM     25  C   UNL     1       7.179   5.248 -12.485  0.00  0.00    +0.277 C 
ENDBRANCH  21  24
ENDBRANCH  17  18
ENDBRANCH  15  17
ENDBRANCH   8  13
BRANCH   2  26
ATOM     26  C   UNL     1       3.196  -1.966  -1.357  0.00  0.00    +0.237 C 
ATOM     27  O   UNL     1       3.262  -1.071  -0.541  0.00  0.00    -0.274 OA
ATOM     28  N   UNL     1       3.457  -3.236  -0.986  0.00  0.00    -0.309 N 
ATOM     29  H   UNL     1       3.404  -3.952  -1.639  0.00  0.00    +0.149 HD
BRANCH  28  30
ATOM     30  C   UNL     1       3.819  -3.534   0.401  0.00  0.00    +0.026 C 
ATOM     31  C   UNL     1       2.681  -3.105   1.329  0.00  0.00    +0.031 C 
ATOM     32  C   UNL     1       4.061  -5.037   0.553  0.00  0.00    +0.031 C 
ATOM     33  C   UNL     1       5.093  -2.773   0.771  0.00  0.00    +0.031 C 
ENDBRANCH  28  30
ENDBRANCH   2  26
BRANCH   1  34
ATOM     34  C   UNL     1       1.219   0.230  -1.906  0.00  0.00    +0.109 C 
BRANCH  34  35
ATOM     35  C   UNL     1      -0.207  -0.189  -2.270  0.00  0.00    +0.022 C 
BRANCH  35  37
ATOM     36  C   UNL     1      -1.176   1.916  -1.336  0.00  0.00    +0.007 C 
ATOM     37  C   UNL     1      -1.185   0.389  -1.245  0.00  0.00    -0.016 C 
ATOM     38  C   UNL     1      -2.594  -0.131  -1.536  0.00  0.00    +0.007 C 
ENDBRANCH  35  37
ENDBRANCH  34  35
ENDBRANCH   1  34
TORSDOF 9
