REMARK  Name = ZINC55384939
REMARK  7 active torsions:
REMARK  status: ('A' for Active; 'I' for Inactive)
REMARK    1  A    between atoms: C_3  and  C_9
REMARK    2  A    between atoms: C_9  and  N_10
REMARK    3  A    between atoms: C_16  and  C_18
REMARK    4  A    between atoms: C_18  and  C_19
REMARK    5  A    between atoms: N_21  and  C_22
REMARK    6  A    between atoms: C_22  and  C_23
REMARK    7  A    between atoms: C_23  and  N_28
REMARK                            x       y       z     vdW  Elec       q    Type
REMARK                         _______ _______ _______ _____ _____    ______ ____
ROOT
ATOM      1  C   UNL     1       6.087   1.541   0.193  0.00  0.00    +0.124 C 
ENDROOT
BRANCH   1   8
ATOM      2  N   UNL     1       5.402   3.789   0.877  0.00  0.00    -0.285 NA
ATOM      3  C   UNL     1       4.374   4.588   1.565  0.00  0.00    +0.104 C 
ATOM      4  C   UNL     1       3.033   4.375   0.859  0.00  0.00    +0.119 C 
ATOM      5  N   UNL     1       2.774   2.948   0.697  0.00  0.00    -0.313 N 
ATOM      6  C   UNL     1       3.732   2.020   0.787  0.00  0.00    +0.231 C 
ATOM      7  O   UNL     1       3.435   0.858   0.608  0.00  0.00    -0.274 OA
ATOM      8  C   UNL     1       5.163   2.357   1.100  0.00  0.00    +0.152 C 
ATOM      9  H   UNL     1       1.865   2.659   0.517  0.00  0.00    +0.149 HD
BRANCH   2  10
ATOM     10  C   UNL     1       6.749   4.173   1.318  0.00  0.00    +0.123 C 
BRANCH  10  13
ATOM     11  C   UNL     1       7.395   7.884   1.066  0.00  0.00    +0.003 A 
ATOM     12  C   UNL     1       7.078   6.640   1.578  0.00  0.00    +0.008 A 
ATOM     13  C   UNL     1       7.094   5.528   0.757  0.00  0.00    +0.005 A 
ATOM     14  C   UNL     1       7.427   5.660  -0.580  0.00  0.00    +0.163 A 
ATOM     15  C   UNL     1       7.745   6.908  -1.094  0.00  0.00    +0.159 A 
ATOM     16  C   UNL     1       7.728   8.019  -0.269  0.00  0.00    +0.041 A 
ATOM     17  F   UNL     1       8.070   7.039  -2.398  0.00  0.00    -0.202 F 
ATOM     18  F   UNL     1       7.443   4.574  -1.383  0.00  0.00    -0.202 F 
ENDBRANCH  10  13
ENDBRANCH   2  10
ENDBRANCH   1   8
BRANCH   1  19
ATOM     19  C   UNL     1       5.820   1.897  -1.246  0.00  0.00    +0.215 C 
ATOM     20  O   UNL     1       5.044   2.789  -1.517  0.00  0.00    -0.276 OA
ATOM     21  N   UNL     1       6.444   1.224  -2.234  0.00  0.00    -0.317 N 
ATOM     22  H   UNL     1       7.064   0.510  -2.017  0.00  0.00    +0.149 HD
BRANCH  21  23
ATOM     23  C   UNL     1       6.185   1.570  -3.633  0.00  0.00    +0.092 C 
BRANCH  23  24
ATOM     24  C   UNL     1       7.097   0.742  -4.541  0.00  0.00    -0.050 C 
ATOM     25  C   UNL     1       8.573   1.110  -4.283  0.00  0.00    -0.010 C 
ATOM     26  C   UNL     1       9.230   1.050  -5.684  0.00  0.00    -0.001 C 
ATOM     27  C   UNL     1       8.127   1.630  -6.604  0.00  0.00    -0.001 C 
ATOM     28  C   UNL     1       6.814   1.073  -6.016  0.00  0.00    -0.010 C 
BRANCH  24  29
ATOM     29  N   UNL     1       6.885  -0.691  -4.296  0.00  0.00    +0.384 N 
ATOM     30  C   UNL     1       7.813  -1.470  -5.124  0.00  0.00    -0.078 C 
ATOM     31  C   UNL     1       7.652  -2.959  -4.814  0.00  0.00    -0.019 C 
ATOM     32  C   UNL     1       6.213  -3.386  -5.118  0.00  0.00    -0.004 C 
ATOM     33  C   UNL     1       5.250  -2.516  -4.304  0.00  0.00    -0.019 C 
ATOM     34  C   UNL     1       5.500  -1.043  -4.633  0.00  0.00    -0.078 C 
ATOM     35  H   UNL     1       7.054  -0.893  -3.322  0.00  0.00    -0.081 HD
ENDBRANCH  24  29
ENDBRANCH  23  24
ENDBRANCH  21  23
ENDBRANCH   1  19
TORSDOF 7
