REMARK  Name = ZINC39683155
REMARK  14 active torsions:
REMARK  status: ('A' for Active; 'I' for Inactive)
REMARK    1  A    between atoms: C_1  and  C_2
REMARK    2  A    between atoms: C_2  and  C_3
REMARK    3  A    between atoms: C_2  and  C_4
REMARK    4  A    between atoms: C_4  and  O_5
REMARK    5  A    between atoms: O_5  and  C_6
REMARK    6  A    between atoms: C_6  and  C_7
REMARK    7  A    between atoms: C_7  and  C_8
REMARK    8  A    between atoms: C_8  and  N_9
REMARK    9  A    between atoms: C_10  and  C_12
REMARK   10  A    between atoms: C_23  and  C_25
REMARK   11  A    between atoms: C_27  and  O_33
REMARK   12  A    between atoms: C_29  and  O_31
REMARK   13  A    between atoms: O_31  and  C_32
REMARK   14  A    between atoms: O_33  and  C_34
REMARK                            x       y       z     vdW  Elec       q    Type
REMARK                         _______ _______ _______ _____ _____    ______ ____
ROOT
ATOM      1  C   UNL     1       8.400   0.506  -4.490  0.00  0.00    +0.100 C 
ATOM      2  C   UNL     1       8.724   2.008  -4.325  0.00  0.00    +0.121 C 
ATOM      3  N   UNL     1      10.014   2.192  -5.030  0.00  0.00    -0.296 N 
ATOM      4  C   UNL     1       9.901   1.339  -6.237  0.00  0.00    +0.115 C 
ATOM      5  C   UNL     1       9.174   0.071  -5.746  0.00  0.00    -0.004 C 
ATOM      6  C   UNL     1      10.187  -1.014  -5.394  0.00  0.00    -0.010 C 
ATOM      7  C   UNL     1      10.903  -1.470  -6.668  0.00  0.00    -0.082 C 
ATOM      8  N   UNL     1       9.919  -1.985  -7.628  0.00  0.00    +0.379 N 
ATOM      9  C   UNL     1       9.005  -0.910  -8.032  0.00  0.00    -0.082 C 
ATOM     10  C   UNL     1       8.208  -0.430  -6.816  0.00  0.00    -0.010 C 
ATOM     11  C   UNL     1      11.056   2.962  -4.657  0.00  0.00    +0.247 C 
ATOM     12  O   UNL     1      11.051   3.507  -3.571  0.00  0.00    -0.270 OA
ATOM     13  H   UNL     1      10.398  -2.340  -8.441  0.00  0.00    -0.086 HD
ATOM     14  H   UNL     1       9.391  -2.730  -7.199  0.00  0.00    -0.086 HD
ENDROOT
BRANCH  11  15
ATOM     15  C   UNL     1      12.205   3.144  -5.571  0.00  0.00    +0.044 A 
ATOM     16  C   UNL     1      12.056   2.907  -6.938  0.00  0.00    +0.059 A 
ATOM     17  C   UNL     1      13.135   3.079  -7.790  0.00  0.00    +0.124 A 
ATOM     18  C   UNL     1      14.362   3.485  -7.285  0.00  0.00    +0.091 A 
ATOM     19  C   UNL     1      14.514   3.721  -5.927  0.00  0.00    +0.124 A 
ATOM     20  C   UNL     1      13.439   3.557  -5.069  0.00  0.00    +0.059 A 
BRANCH  19  21
ATOM     21  O   UNL     1      15.718   4.118  -5.438  0.00  0.00    -0.495 OA
ATOM     22  C   UNL     1      16.782   4.273  -6.380  0.00  0.00    +0.277 C 
ENDBRANCH  19  21
BRANCH  17  23
ATOM     23  O   UNL     1      12.991   2.849  -9.121  0.00  0.00    -0.495 OA
ATOM     24  C   UNL     1      14.144   3.045  -9.942  0.00  0.00    +0.277 C 
ENDBRANCH  17  23
ENDBRANCH  11  15
BRANCH   1  26
ATOM     25  N   UNL     1       6.329  -0.828  -4.269  0.00  0.00    -0.315 N 
ATOM     26  C   UNL     1       6.920   0.307  -4.691  0.00  0.00    +0.218 C 
ATOM     27  O   UNL     1       6.260   1.169  -5.232  0.00  0.00    -0.275 OA
ATOM     28  H   UNL     1       6.857  -1.518  -3.836  0.00  0.00    +0.149 HD
BRANCH  25  29
ATOM     29  C   UNL     1       4.890  -1.022  -4.464  0.00  0.00    +0.106 C 
BRANCH  29  30
ATOM     30  C   UNL     1       4.477  -2.382  -3.899  0.00  0.00    +0.047 C 
BRANCH  30  31
ATOM     31  C   UNL     1       2.974  -2.584  -4.103  0.00  0.00    +0.161 C 
BRANCH  31  32
ATOM     32  O   UNL     1       2.588  -3.855  -3.575  0.00  0.00    -0.379 OA
BRANCH  32  33
ATOM     33  C   UNL     1       1.196  -4.144  -3.715  0.00  0.00    +0.162 C 
BRANCH  33  35
ATOM     34  C   UNL     1       1.156  -5.491  -1.612  0.00  0.00    +0.009 C 
ATOM     35  C   UNL     1       0.899  -5.521  -3.119  0.00  0.00    +0.009 C 
ATOM     36  C   UNL     1      -0.565  -5.885  -3.380  0.00  0.00    +0.009 C 
ENDBRANCH  33  35
ENDBRANCH  32  33
ENDBRANCH  31  32
ENDBRANCH  30  31
ENDBRANCH  29  30
ENDBRANCH  25  29
ENDBRANCH   1  26
TORSDOF 10
