REMARK  Name = ZINC42775090
REMARK  13 active torsions:
REMARK  status: ('A' for Active; 'I' for Inactive)
REMARK    1  A    between atoms: C_1  and  C_2
REMARK    2  A    between atoms: C_2  and  N_3
REMARK    3  A    between atoms: N_3  and  C_4
REMARK    4  A    between atoms: N_3  and  C_16
REMARK    5  A    between atoms: C_4  and  C_5
REMARK    6  A    between atoms: C_5  and  C_7
REMARK    7  A    between atoms: C_8  and  C_15
REMARK    8  A    between atoms: C_10  and  C_14
REMARK    9  A    between atoms: C_12  and  C_13
REMARK   10  A    between atoms: C_16  and  C_18
REMARK   11  A    between atoms: C_16  and  C_19
REMARK   12  A    between atoms: C_19  and  O_20
REMARK   13  A    between atoms: O_20  and  C_21
REMARK                            x       y       z     vdW  Elec       q    Type
REMARK                         _______ _______ _______ _____ _____    ______ ____
ROOT
ATOM      1  C   UNL     1      -0.502  -2.512  -1.581  0.00  0.00    +0.147 C 
ATOM      2  O   UNL     1      -1.491  -1.817  -1.482  0.00  0.00    -0.294 OA
ENDROOT
BRANCH   1   3
ATOM      3  C   UNL     1      -0.637  -3.948  -1.873  0.00  0.00    +0.021 A 
ATOM      4  C   UNL     1      -0.863  -4.858  -0.836  0.00  0.00    -0.040 A 
ATOM      5  C   UNL     1      -0.989  -6.202  -1.118  0.00  0.00    +0.007 A 
ATOM      6  C   UNL     1      -0.892  -6.651  -2.424  0.00  0.00    -0.050 A 
ATOM      7  C   UNL     1      -0.668  -5.756  -3.456  0.00  0.00    +0.007 A 
ATOM      8  C   UNL     1      -0.545  -4.408  -3.190  0.00  0.00    -0.040 A 
ATOM      9  C   UNL     1      -0.307  -3.435  -4.316  0.00  0.00    +0.044 C 
ATOM     10  C   UNL     1      -1.031  -8.121  -2.724  0.00  0.00    +0.044 C 
ATOM     11  C   UNL     1      -0.969  -4.372   0.587  0.00  0.00    +0.044 C 
ENDBRANCH   1   3
BRANCH   1  12
ATOM     12  C   UNL     1       0.866  -1.904  -1.403  0.00  0.00    +0.003 C 
BRANCH  12  13
ATOM     13  N   UNL     1       0.729  -0.504  -0.981  0.00  0.00    +0.388 N 
ATOM     14  H   UNL     1       0.150  -0.008  -1.642  0.00  0.00    -0.081 HD
BRANCH  13  16
ATOM     15  C   UNL     1       1.045  -1.087   1.377  0.00  0.00    -0.017 C 
ATOM     16  C   UNL     1       0.105  -0.453   0.349  0.00  0.00    -0.081 C 
ENDBRANCH  13  16
BRANCH  13  17
ATOM     17  C   UNL     1       2.056   0.123  -0.924  0.00  0.00    -0.045 C 
ATOM     18  C   UNL     1       2.652   0.183  -2.332  0.00  0.00    -0.011 C 
BRANCH  17  19
ATOM     19  C   UNL     1       1.927   1.540  -0.363  0.00  0.00    +0.144 C 
BRANCH  19  20
ATOM     20  O   UNL     1       1.153   2.339  -1.260  0.00  0.00    -0.385 OA
ATOM     21  C   UNL     1       0.971   3.689  -0.828  0.00  0.00    +0.193 C 
ENDBRANCH  19  20
ENDBRANCH  17  19
ENDBRANCH  13  17
ENDBRANCH  12  13
ENDBRANCH   1  12
TORSDOF 7
