REMARK  Name = ZINC27495903
REMARK  6 active torsions:
REMARK  status: ('A' for Active; 'I' for Inactive)
REMARK    1  A    between atoms: C_4  and  C_7
REMARK    2  A    between atoms: N_8  and  N_9
REMARK    3  A    between atoms: C_10  and  C_12
REMARK    4  A    between atoms: C_14  and  C_22
REMARK    5  A    between atoms: N_24  and  N_25
REMARK    6  A    between atoms: C_26  and  C_27
REMARK                            x       y       z     vdW  Elec       q    Type
REMARK                         _______ _______ _______ _____ _____    ______ ____
ROOT
ATOM      1  C   UNL     1       6.278  -4.740  -0.087  0.00  0.00    +0.050 C 
ATOM      2  C   UNL     1       6.023  -6.248  -0.092  0.00  0.00    +0.032 C 
ATOM      3  C   UNL     1       7.360  -6.992  -0.110  0.00  0.00    +0.050 C 
ATOM      4  C   UNL     1       8.169  -6.615   1.133  0.00  0.00    +0.019 C 
ATOM      5  C   UNL     1       8.424  -5.107   1.138  0.00  0.00    -0.009 C 
ATOM      6  C   UNL     1       7.087  -4.364   1.156  0.00  0.00    +0.019 C 
ATOM      7  C   UNL     1       9.207  -4.718  -0.117  0.00  0.00    +0.007 C 
ATOM      8  C   UNL     1       8.398  -5.093  -1.360  0.00  0.00    -0.009 C 
ATOM      9  C   UNL     1       8.143  -6.602  -1.365  0.00  0.00    +0.019 C 
ATOM     10  C   UNL     1       7.061  -4.350  -1.342  0.00  0.00    +0.019 C 
ENDROOT
BRANCH   1  12
ATOM     11  N   UNL     1       4.939  -2.660  -0.062  0.00  0.00    -0.207 N 
ATOM     12  C   UNL     1       4.961  -4.008  -0.069  0.00  0.00    +0.238 C 
ATOM     13  O   UNL     1       3.920  -4.631  -0.062  0.00  0.00    -0.273 OA
ATOM     14  H   UNL     1       5.771  -2.161  -0.068  0.00  0.00    +0.177 HD
BRANCH  11  16
ATOM     15  C   UNL     1       3.693  -0.682  -0.038  0.00  0.00    +0.138 C 
ATOM     16  N   UNL     1       3.714  -1.980  -0.046  0.00  0.00    -0.188 NA
BRANCH  15  20
ATOM     17  C   UNL     1      -0.017   1.379   0.010  0.00  0.00    +0.000 A 
ATOM     18  C   UNL     1       1.168   2.094   0.002  0.00  0.00    +0.001 A 
ATOM     19  C   UNL     1       2.377   1.431  -0.013  0.00  0.00    +0.009 A 
ATOM     20  C   UNL     1       2.404   0.034  -0.021  0.00  0.00    -0.005 A 
ATOM     21  C   UNL     1       1.204  -0.681  -0.013  0.00  0.00    +0.009 A 
ATOM     22  C   UNL     1       0.002  -0.004   0.002  0.00  0.00    +0.001 A 
ENDBRANCH  15  20
ENDBRANCH  11  16
ENDBRANCH   1  12
BRANCH   3  23
ATOM     23  C   UNL     1       7.109  -8.477  -0.116  0.00  0.00    +0.238 C 
ATOM     24  O   UNL     1       5.972  -8.900  -0.106  0.00  0.00    -0.273 OA
ATOM     25  N   UNL     1       8.148  -9.336  -0.131  0.00  0.00    -0.207 N 
ATOM     26  H   UNL     1       9.057  -8.998  -0.138  0.00  0.00    +0.177 HD
BRANCH  25  27
ATOM     27  N   UNL     1       7.914 -10.718  -0.136  0.00  0.00    -0.188 NA
ATOM     28  C   UNL     1       8.914 -11.545  -0.151  0.00  0.00    +0.138 C 
BRANCH  28  29
ATOM     29  C   UNL     1       8.668 -12.999  -0.156  0.00  0.00    -0.005 A 
ATOM     30  C   UNL     1       7.360 -13.489  -0.151  0.00  0.00    +0.009 A 
ATOM     31  C   UNL     1       7.138 -14.851  -0.156  0.00  0.00    +0.001 A 
ATOM     32  C   UNL     1       8.207 -15.730  -0.166  0.00  0.00    +0.000 A 
ATOM     33  C   UNL     1       9.505 -15.251  -0.171  0.00  0.00    +0.001 A 
ATOM     34  C   UNL     1       9.742 -13.892  -0.172  0.00  0.00    +0.009 A 
ENDBRANCH  28  29
ENDBRANCH  25  27
ENDBRANCH   3  23
TORSDOF 6
