REMARK  Name = ZINC01381768
REMARK  9 active torsions:
REMARK  status: ('A' for Active; 'I' for Inactive)
REMARK    1  A    between atoms: C_1  and  C_2
REMARK    2  A    between atoms: C_5  and  C_41
REMARK    3  A    between atoms: C_9  and  C_14
REMARK    4  A    between atoms: C_14  and  C_16
REMARK    5  A    between atoms: C_14  and  N_29
REMARK    6  A    between atoms: N_20  and  C_21
REMARK    7  A    between atoms: C_21  and  C_22
REMARK    8  A    between atoms: C_22  and  C_23
REMARK    9  A    between atoms: N_32  and  C_35
REMARK                            x       y       z     vdW  Elec       q    Type
REMARK                         _______ _______ _______ _____ _____    ______ ____
ROOT
ATOM      1  C   UNL     1       3.592   1.628   3.727  0.00  0.00    +0.162 C 
ENDROOT
BRANCH   1  10
ATOM      2  C   UNL     1       0.244   0.646  -0.139  0.00  0.00    +0.044 C 
ATOM      3  C   UNL     1      -0.562   1.125   1.041  0.00  0.00    -0.041 A 
ATOM      4  C   UNL     1      -1.921   1.232   0.945  0.00  0.00    +0.004 A 
ATOM      5  C   UNL     1      -2.673   1.668   2.027  0.00  0.00    +0.005 A 
ATOM      6  C   UNL     1      -2.063   2.010   3.215  0.00  0.00    -0.026 A 
ATOM      7  C   UNL     1      -0.681   1.915   3.334  0.00  0.00    +0.052 A 
ATOM      8  C   UNL     1       0.078   1.468   2.236  0.00  0.00    +0.002 A 
ATOM      9  C   UNL     1       1.532   1.371   2.371  0.00  0.00    +0.021 A 
ATOM     10  C   UNL     1       2.097   1.716   3.554  0.00  0.00    +0.042 A 
ATOM     11  C   UNL     1       1.291   2.158   4.625  0.00  0.00    +0.254 A 
ATOM     12  O   UNL     1       1.819   2.463   5.680  0.00  0.00    -0.268 OA
ATOM     13  N   UNL     1      -0.045   2.250   4.511  0.00  0.00    -0.322 N 
ATOM     14  H   UNL     1      -0.632   2.599   5.373  0.00  0.00    +0.169 HD
ATOM     15  C   UNL     1      -2.892   2.487   4.381  0.00  0.00    +0.046 C 
ENDBRANCH   1  10
BRANCH   1  16
ATOM     16  N   UNL     1       3.901   0.813   4.909  0.00  0.00    -0.292 NA
ATOM     17  C   UNL     1       5.351   0.759   5.147  0.00  0.00    +0.067 C 
ATOM     18  C   UNL     1       5.625  -0.031   6.429  0.00  0.00    -0.063 C 
ATOM     19  N   UNL     1       5.065  -1.383   6.298  0.00  0.00    +0.383 N 
ATOM     20  C   UNL     1       3.616  -1.329   6.060  0.00  0.00    -0.063 C 
ATOM     21  C   UNL     1       3.341  -0.540   4.778  0.00  0.00    +0.067 C 
ATOM     22  H   UNL     1       5.535  -1.863   5.426  0.00  0.00    -0.081 HD
BRANCH  19  23
ATOM     23  C   UNL     1       5.375  -2.198   7.480  0.00  0.00    -0.068 C 
ATOM     24  C   UNL     1       4.803  -1.523   8.729  0.00  0.00    -0.015 C 
ATOM     25  C   UNL     1       5.125  -2.372   9.960  0.00  0.00    -0.002 C 
ATOM     26  C   UNL     1       6.642  -2.508  10.103  0.00  0.00    -0.000 C 
ATOM     27  C   UNL     1       7.214  -3.183   8.855  0.00  0.00    -0.002 C 
ATOM     28  C   UNL     1       6.892  -2.334   7.623  0.00  0.00    -0.015 C 
ENDBRANCH  19  23
ENDBRANCH   1  16
BRANCH   1  29
ATOM     29  C   UNL     1       4.159   3.012   3.909  0.00  0.00    +0.173 A 
ATOM     30  N   UNL     1       4.083   3.753   4.987  0.00  0.00    -0.111 NA
ATOM     31  N   UNL     1       4.689   4.866   4.748  0.00  0.00    -0.023 NA
ATOM     32  N   UNL     1       5.148   4.853   3.546  0.00  0.00    -0.044 NA
ATOM     33  N   UNL     1       4.847   3.724   2.997  0.00  0.00    -0.227 N 
BRANCH  33  34
ATOM     34  C   UNL     1       5.187   3.300   1.637  0.00  0.00    +0.152 C 
BRANCH  34  35
ATOM     35  C   UNL     1       4.072   3.722   0.677  0.00  0.00    +0.058 C 
BRANCH  35  36
ATOM     36  C   UNL     1       4.421   3.285  -0.722  0.00  0.00    -0.046 A 
ATOM     37  C   UNL     1       5.132   4.131  -1.553  0.00  0.00    +0.004 A 
ATOM     38  C   UNL     1       5.457   3.729  -2.834  0.00  0.00    +0.000 A 
ATOM     39  C   UNL     1       5.062   2.485  -3.289  0.00  0.00    +0.000 A 
ATOM     40  C   UNL     1       4.346   1.641  -2.461  0.00  0.00    +0.000 A 
ATOM     41  C   UNL     1       4.026   2.041  -1.177  0.00  0.00    +0.004 A 
ENDBRANCH  35  36
ENDBRANCH  34  35
ENDBRANCH  33  34
ENDBRANCH   1  29
TORSDOF 7
