REMARK  Name = ZINC00381557
REMARK  4 active torsions:
REMARK  status: ('A' for Active; 'I' for Inactive)
REMARK    1  A    between atoms: N_9  and  C_10
REMARK    2  A    between atoms: C_10  and  C_11
REMARK    3  A    between atoms: N_13  and  N_14
REMARK    4  A    between atoms: C_15  and  C_16
REMARK                            x       y       z     vdW  Elec       q    Type
REMARK                         _______ _______ _______ _____ _____    ______ ____
ROOT
ATOM      1  C   UNL     1      -4.183   3.729  -1.361  0.00  0.00    +0.254 C 
ATOM      2  O   UNL     1      -3.415   3.871  -2.289  0.00  0.00    -0.272 OA
ATOM      3  N   UNL     1      -5.489   3.497  -1.596  0.00  0.00    -0.205 N 
ATOM      4  H   UNL     1      -6.103   3.383  -0.853  0.00  0.00    +0.177 HD
ENDROOT
BRANCH   3   5
ATOM      5  N   UNL     1      -5.962   3.421  -2.913  0.00  0.00    -0.188 NA
ATOM      6  C   UNL     1      -7.220   3.199  -3.139  0.00  0.00    +0.141 C 
BRANCH   6   7
ATOM      7  C   UNL     1      -7.716   3.119  -4.525  0.00  0.00    +0.031 A 
ATOM      8  C   UNL     1      -6.836   3.288  -5.598  0.00  0.00    +0.051 A 
ATOM      9  C   UNL     1      -7.308   3.207  -6.893  0.00  0.00    +0.021 A 
ATOM     10  C   UNL     1      -8.650   2.969  -7.130  0.00  0.00    +0.003 A 
ATOM     11  C   UNL     1      -9.529   2.805  -6.074  0.00  0.00    +0.021 A 
ATOM     12  C   UNL     1      -9.071   2.879  -4.773  0.00  0.00    +0.051 A 
ATOM     13 CL   UNL     1     -10.175   2.674  -3.449  0.00  0.00    -0.083 Cl
ATOM     14 CL   UNL     1      -5.153   3.594  -5.302  0.00  0.00    -0.083 Cl
ENDBRANCH   6   7
ENDBRANCH   3   5
BRANCH   1  15
ATOM     15  C   UNL     1      -3.675   3.810   0.056  0.00  0.00    +0.243 C 
BRANCH  15  24
ATOM     16  C   UNL     1       1.184   1.781   0.000  0.00  0.00    +0.002 A 
ATOM     17  C   UNL     1      -0.013   1.076   0.008  0.00  0.00    +0.002 A 
ATOM     18  C   UNL     1      -1.209   1.737   0.017  0.00  0.00    +0.029 A 
ATOM     19  C   UNL     1      -1.230   3.127   0.030  0.00  0.00    +0.090 A 
ATOM     20  C   UNL     1      -0.022   3.847   0.022  0.00  0.00    +0.113 A 
ATOM     21  C   UNL     1       1.191   3.145   0.007  0.00  0.00    +0.032 A 
ATOM     22  N   UNL     1      -0.328   5.160   0.032  0.00  0.00    -0.129 NA
ATOM     23  N   UNL     1      -1.604   5.321   0.044  0.00  0.00    -0.064 NA
ATOM     24  N   UNL     1      -2.233   4.067   0.044  0.00  0.00    -0.235 N 
ENDBRANCH  15  24
ENDBRANCH   1  15
TORSDOF 4
