REMARK  Name = ZINC63090472
REMARK  7 active torsions:
REMARK  status: ('A' for Active; 'I' for Inactive)
REMARK    1  A    between atoms: C_1  and  C_2
REMARK    2  A    between atoms: C_2  and  C_4
REMARK    3  A    between atoms: C_2  and  N_9
REMARK    4  A    between atoms: C_4  and  C_5
REMARK    5  A    between atoms: N_6  and  O_7
REMARK    6  A    between atoms: N_9  and  C_10
REMARK    7  A    between atoms: C_11  and  C_13
REMARK                            x       y       z     vdW  Elec       q    Type
REMARK                         _______ _______ _______ _____ _____    ______ ____
ROOT
ATOM      1  C   UNL     1      -0.498   1.691   0.197  0.00  0.00    +0.028 C 
ATOM      2  C   UNL     1      -0.207   0.199   0.018  0.00  0.00    +0.080 C 
ENDROOT
BRANCH   2   3
ATOM      3  N   UNL     1      -1.461  -0.555   0.092  0.00  0.00    -0.297 N 
ATOM      4  C   UNL     1      -2.536  -0.286  -0.867  0.00  0.00    +0.132 C 
ATOM      5  C   UNL     1      -1.626  -1.496   1.043  0.00  0.00    +0.253 C 
ATOM      6  O   UNL     1      -0.778  -1.648   1.903  0.00  0.00    -0.269 OA
BRANCH   5   7
ATOM      7  C   UNL     1      -2.826  -2.337   1.040  0.00  0.00    +0.075 A 
ATOM      8  C   UNL     1      -3.242  -3.268   1.980  0.00  0.00    +0.022 A 
ATOM      9  C   UNL     1      -4.425  -3.909   1.702  0.00  0.00    +0.028 A 
ATOM     10  C   UNL     1      -5.089  -3.600   0.559  0.00  0.00    +0.079 A 
ATOM     11  S   UNL     1      -4.134  -2.425  -0.167  0.00  0.00    -0.072 S 
ATOM     12 CL   UNL     1      -6.587  -4.262  -0.016  0.00  0.00    -0.076 Cl
ENDBRANCH   5   7
ENDBRANCH   2   3
BRANCH   2  13
ATOM     13  C   UNL     1       0.447  -0.033  -1.345  0.00  0.00    +0.096 C 
BRANCH  13  14
ATOM     14  C   UNL     1       0.845  -1.481  -1.472  0.00  0.00    +0.133 C 
ATOM     15  N   UNL     1       0.612  -2.302  -0.502  0.00  0.00    -0.077 NA
ATOM     16  N   UNL     1       1.456  -1.929  -2.622  0.00  0.00    -0.344 N 
ATOM     17  H   UNL     1       1.631  -1.312  -3.350  0.00  0.00    +0.144 HD
ATOM     18  H   UNL     1       1.712  -2.861  -2.703  0.00  0.00    +0.144 HD
BRANCH  15  19
ATOM     19  O   UNL     1       0.986  -3.662  -0.621  0.00  0.00    -0.408 OA
ATOM     20  H   UNL     1       0.771  -4.198   0.155  0.00  0.00    +0.328 HD
ENDBRANCH  15  19
ENDBRANCH  13  14
ENDBRANCH   2  13
TORSDOF 5
