REMARK  Name = ZINC37461017
REMARK  8 active torsions:
REMARK  status: ('A' for Active; 'I' for Inactive)
REMARK    1  A    between atoms: C_1  and  C_2
REMARK    2  A    between atoms: C_2  and  C_4
REMARK    3  A    between atoms: C_2  and  N_12
REMARK    4  A    between atoms: C_4  and  C_5
REMARK    5  A    between atoms: C_5  and  C_6
REMARK    6  A    between atoms: C_15  and  C_31
REMARK    7  A    between atoms: C_24  and  C_26
REMARK    8  A    between atoms: C_31  and  C_32
REMARK                            x       y       z     vdW  Elec       q    Type
REMARK                         _______ _______ _______ _____ _____    ______ ____
ROOT
ATOM      1  N   UNL     1       0.590  -0.572  -1.368  0.00  0.00    -0.311 N 
ATOM      2  C   UNL     1       1.861  -0.413  -1.793  0.00  0.00    +0.201 C 
ATOM      3  O   UNL     1       2.738   0.177  -1.198  0.00  0.00    -0.277 OA
ATOM      4  C   UNL     1       2.007  -1.094  -3.136  0.00  0.00    +0.023 C 
ATOM      5  N   UNL     1       0.831  -1.992  -3.235  0.00  0.00    +0.401 N 
ATOM      6  C   UNL     1      -0.165  -1.339  -2.362  0.00  0.00    +0.006 C 
ATOM      7  C   UNL     1      -1.023  -2.399  -1.672  0.00  0.00    +0.025 C 
ATOM      8  C   UNL     1      -2.029  -1.712  -0.743  0.00  0.00    +0.108 C 
ATOM      9  N   UNL     1      -2.787  -0.721  -1.518  0.00  0.00    -0.295 N 
ATOM     10  C   UNL     1      -2.049   0.297  -2.279  0.00  0.00    +0.108 C 
ATOM     11  C   UNL     1      -1.042  -0.406  -3.195  0.00  0.00    +0.025 C 
ATOM     12  C   UNL     1      -4.135  -0.744  -1.532  0.00  0.00    +0.282 C 
ATOM     13  O   UNL     1      -4.737  -1.535  -0.829  0.00  0.00    -0.267 OA
ATOM     14  H   UNL     1       0.498  -2.040  -4.186  0.00  0.00    -0.082 HD
ATOM     15  H   UNL     1       1.055  -2.913  -2.887  0.00  0.00    -0.082 HD
ENDROOT
BRANCH  12  16
ATOM     16  C   UNL     1      -4.876   0.182  -2.394  0.00  0.00    +0.189 A 
ATOM     17  C   UNL     1      -6.225   0.180  -2.602  0.00  0.00    +0.054 A 
ATOM     18  C   UNL     1      -6.499   1.232  -3.490  0.00  0.00    +0.042 A 
ATOM     19  C   UNL     1      -5.319   1.823  -3.781  0.00  0.00    +0.196 A 
ATOM     20  O   UNL     1      -4.344   1.191  -3.115  0.00  0.00    -0.458 OA
ENDBRANCH  12  16
BRANCH   1  22
ATOM     21  C   UNL     1       0.483   1.393   0.084  0.00  0.00    +0.028 C 
ATOM     22  C   UNL     1       0.050  -0.062  -0.105  0.00  0.00    +0.072 C 
BRANCH  22  23
ATOM     23  C   UNL     1       0.581  -0.907   1.055  0.00  0.00    +0.027 C 
BRANCH  23  24
ATOM     24  C   UNL     1       0.045  -2.334   0.933  0.00  0.00    +0.037 C 
BRANCH  24  25
ATOM     25  C   UNL     1       0.568  -3.167   2.075  0.00  0.00    -0.047 A 
ATOM     26  C   UNL     1       1.765  -3.846   1.944  0.00  0.00    +0.003 A 
ATOM     27  C   UNL     1       2.244  -4.609   2.993  0.00  0.00    +0.000 A 
ATOM     28  C   UNL     1       1.527  -4.693   4.171  0.00  0.00    +0.000 A 
ATOM     29  C   UNL     1       0.331  -4.013   4.303  0.00  0.00    +0.000 A 
ATOM     30  C   UNL     1      -0.146  -3.246   3.256  0.00  0.00    +0.003 A 
ENDBRANCH  24  25
ENDBRANCH  23  24
ENDBRANCH  22  23
ENDBRANCH   1  22
BRANCH   4  31
ATOM     31  C   UNL     1       3.304  -1.904  -3.184  0.00  0.00    +0.028 C 
BRANCH  31  32
ATOM     32  C   UNL     1       3.472  -2.502  -4.557  0.00  0.00    -0.048 A 
ATOM     33  C   UNL     1       2.948  -3.750  -4.837  0.00  0.00    +0.003 A 
ATOM     34  C   UNL     1       3.102  -4.299  -6.096  0.00  0.00    +0.000 A 
ATOM     35  C   UNL     1       3.780  -3.599  -7.077  0.00  0.00    +0.000 A 
ATOM     36  C   UNL     1       4.304  -2.350  -6.798  0.00  0.00    +0.000 A 
ATOM     37  C   UNL     1       4.146  -1.800  -5.539  0.00  0.00    +0.003 A 
ENDBRANCH  31  32
ENDBRANCH   4  31
TORSDOF 7
