REMARK  Name = ZINC13913949
REMARK  11 active torsions:
REMARK  status: ('A' for Active; 'I' for Inactive)
REMARK    1  A    between atoms: C_1  and  C_2
REMARK    2  A    between atoms: C_3  and  C_20
REMARK    3  A    between atoms: C_4  and  C_10
REMARK    4  A    between atoms: C_13  and  O_18
REMARK    5  A    between atoms: C_14  and  O_17
REMARK    6  A    between atoms: O_18  and  C_19
REMARK    7  A    between atoms: C_20  and  O_22
REMARK    8  A    between atoms: O_22  and  C_23
REMARK    9  A    between atoms: C_23  and  C_24
REMARK   10  A    between atoms: C_23  and  C_25
REMARK   11  A    between atoms: C_23  and  C_26
REMARK                            x       y       z     vdW  Elec       q    Type
REMARK                         _______ _______ _______ _____ _____    ______ ____
ROOT
ATOM      1  C   UNL     1       4.308   0.500   0.238  0.00  0.00    +0.061 C 
ATOM      2  C   UNL     1       2.861   0.805  -0.054  0.00  0.00    +0.021 C 
ATOM      3  C   UNL     1       2.029  -0.198  -0.406  0.00  0.00    +0.078 C 
ATOM      4  C   UNL     1       0.582   0.153  -0.691  0.00  0.00    +0.145 C 
ATOM      5  N   UNL     1       0.201   1.569  -0.558  0.00  0.00    -0.288 N 
ATOM      6  C   UNL     1       1.148   2.457  -0.197  0.00  0.00    +0.304 C 
ATOM      7  O   UNL     1       0.843   3.629  -0.085  0.00  0.00    -0.252 OA
ATOM      8  N   UNL     1       2.413   2.091   0.043  0.00  0.00    -0.273 N 
ATOM      9  H   UNL     1      -0.709   1.857  -0.731  0.00  0.00    +0.151 HD
ATOM     10  H   UNL     1       3.048   2.779   0.300  0.00  0.00    +0.156 HD
ENDROOT
BRANCH   4  11
ATOM     11  C   UNL     1       0.266  -0.284  -2.098  0.00  0.00    -0.006 A 
ATOM     12  C   UNL     1       0.475   0.585  -3.153  0.00  0.00    +0.010 A 
ATOM     13  C   UNL     1       0.187   0.189  -4.446  0.00  0.00    +0.050 A 
ATOM     14  C   UNL     1      -0.312  -1.081  -4.687  0.00  0.00    +0.162 A 
ATOM     15  C   UNL     1      -0.522  -1.956  -3.625  0.00  0.00    +0.172 A 
ATOM     16  C   UNL     1      -0.226  -1.555  -2.332  0.00  0.00    +0.064 A 
ATOM     17  I   UNL     1      -0.532  -2.871  -0.731  0.00  0.00    -0.040 I 
BRANCH  15  18
ATOM     18  O   UNL     1      -1.011  -3.204  -3.857  0.00  0.00    -0.503 OA
ATOM     19  H   UNL     1      -0.329  -3.871  -4.013  0.00  0.00    +0.292 HD
ENDBRANCH  15  18
BRANCH  14  20
ATOM     20  O   UNL     1      -0.595  -1.472  -5.958  0.00  0.00    -0.491 OA
ATOM     21  C   UNL     1      -0.354  -0.522  -6.998  0.00  0.00    +0.277 C 
ENDBRANCH  14  20
ENDBRANCH   4  11
BRANCH   3  22
ATOM     22  C   UNL     1       2.491  -1.531  -0.507  0.00  0.00    +0.339 C 
ATOM     23  O   UNL     1       2.309  -2.309   0.411  0.00  0.00    -0.245 OA
BRANCH  22  24
ATOM     24  O   UNL     1       3.134  -1.940  -1.620  0.00  0.00    -0.456 OA
BRANCH  24  25
ATOM     25  C   UNL     1       3.676  -3.262  -1.608  0.00  0.00    +0.106 C 
ATOM     26  C   UNL     1       2.542  -4.277  -1.455  0.00  0.00    +0.055 C 
ATOM     27  C   UNL     1       4.419  -3.521  -2.920  0.00  0.00    +0.055 C 
ATOM     28  C   UNL     1       4.649  -3.404  -0.435  0.00  0.00    +0.055 C 
ENDBRANCH  24  25
ENDBRANCH  22  24
ENDBRANCH   3  22
TORSDOF 6
