REMARK  Name = ZINC05182646
REMARK  8 active torsions:
REMARK  status: ('A' for Active; 'I' for Inactive)
REMARK    1  A    between atoms: C_1  and  C_2
REMARK    2  A    between atoms: C_2  and  C_3
REMARK    3  A    between atoms: C_9  and  C_10
REMARK    4  A    between atoms: C_9  and  N_63
REMARK    5  A    between atoms: C_11  and  O_29
REMARK    6  A    between atoms: C_16  and  C_20
REMARK    7  A    between atoms: C_17  and  C_19
REMARK    8  A    between atoms: N_22  and  C_23
REMARK                            x       y       z     vdW  Elec       q    Type
REMARK                         _______ _______ _______ _____ _____    ______ ____
ROOT
ATOM      1  C   UNL     1       0.461  -0.216   0.364  0.00  0.00    -0.011 A 
ATOM      2  C   UNL     1       1.601  -0.894  -0.029  0.00  0.00    +0.119 A 
ATOM      3  C   UNL     1       2.845  -0.281   0.068  0.00  0.00    +0.049 A 
ATOM      4  C   UNL     1       2.959   1.003   0.555  0.00  0.00    +0.050 A 
ATOM      5  C   UNL     1       1.824   1.699   0.954  0.00  0.00    +0.136 A 
ATOM      6  C   UNL     1       0.569   1.080   0.856  0.00  0.00    +0.037 A 
ATOM      7  C   UNL     1      -0.401   2.079   1.349  0.00  0.00    +0.085 A 
ATOM      8  C   UNL     1       0.335   3.169   1.694  0.00  0.00    +0.115 A 
ATOM      9  O   UNL     1       1.631   2.937   1.457  0.00  0.00    -0.459 OA
ATOM     10  C   UNL     1      -0.225   4.450   2.257  0.00  0.00    +0.087 C 
ENDROOT
BRANCH   7  11
ATOM     11  C   UNL     1      -1.861   1.926   1.447  0.00  0.00    +0.248 C 
ATOM     12  O   UNL     1      -2.367   1.588   2.500  0.00  0.00    -0.270 OA
ATOM     13  N   UNL     1      -2.637   2.159   0.370  0.00  0.00    -0.308 N 
ATOM     14  H   UNL     1      -2.229   2.351  -0.489  0.00  0.00    +0.149 HD
BRANCH  13  15
ATOM     15  C   UNL     1      -4.096   2.124   0.497  0.00  0.00    +0.073 C 
ATOM     16  C   UNL     1      -4.579   0.674   0.417  0.00  0.00    +0.022 C 
ATOM     17  C   UNL     1      -6.103   0.637   0.549  0.00  0.00    +0.002 C 
ATOM     18  C   UNL     1      -6.734   1.448  -0.584  0.00  0.00    +0.000 C 
ATOM     19  C   UNL     1      -6.250   2.897  -0.505  0.00  0.00    +0.002 C 
ATOM     20  C   UNL     1      -4.726   2.935  -0.637  0.00  0.00    +0.022 C 
ENDBRANCH  13  15
ENDBRANCH   7  11
BRANCH   2  21
ATOM     21  O   UNL     1       1.504  -2.162  -0.512  0.00  0.00    -0.507 OA
ATOM     22  H   UNL     1       1.383  -2.210  -1.470  0.00  0.00    +0.292 HD
ENDBRANCH   2  21
BRANCH   1  23
ATOM     23  C   UNL     1      -0.889  -0.877   0.260  0.00  0.00    -0.038 C 
BRANCH  23  29
ATOM     24  C   UNL     1      -2.192  -2.715   1.146  0.00  0.00    -0.068 C 
ATOM     25  C   UNL     1      -2.262  -3.748   2.273  0.00  0.00    -0.015 C 
ATOM     26  C   UNL     1      -2.452  -3.026   3.610  0.00  0.00    -0.003 C 
ATOM     27  C   UNL     1      -1.299  -2.041   3.817  0.00  0.00    -0.019 C 
ATOM     28  C   UNL     1      -1.257  -1.058   2.646  0.00  0.00    -0.078 C 
ATOM     29  N   UNL     1      -1.047  -1.813   1.392  0.00  0.00    +0.384 N 
ATOM     30  H   UNL     1      -0.193  -2.376   1.482  0.00  0.00    -0.081 HD
BRANCH  24  32
ATOM     31  C   UNL     1      -3.134  -4.408  -0.431  0.00  0.00    +0.002 C 
ATOM     32  C   UNL     1      -1.982  -3.431  -0.190  0.00  0.00    -0.019 C 
ENDBRANCH  24  32
ENDBRANCH  23  29
ENDBRANCH   1  23
TORSDOF 6
