REMARK  Name = ZINC09713183
REMARK  6 active torsions:
REMARK  status: ('A' for Active; 'I' for Inactive)
REMARK    1  A    between atoms: C_7  and  C_11
REMARK    2  A    between atoms: C_14  and  S_19
REMARK    3  A    between atoms: N_15  and  C_16
REMARK    4  A    between atoms: S_19  and  C_20
REMARK    5  A    between atoms: C_20  and  C_21
REMARK    6  A    between atoms: N_26  and  C_29
REMARK                            x       y       z     vdW  Elec       q    Type
REMARK                         _______ _______ _______ _____ _____    ______ ____
ROOT
ATOM      1  C   UNL     1       3.705   3.071   0.038  0.00  0.00    +0.167 A 
ATOM      2  N   UNL     1       3.778   1.762  -0.027  0.00  0.00    -0.128 NA
ATOM      3  N   UNL     1       2.597   1.257  -0.071  0.00  0.00    -0.122 NA
ATOM      4  C   UNL     1       1.697   2.212  -0.037  0.00  0.00    +0.193 A 
ATOM      5  N   UNL     1       2.370   3.401   0.029  0.00  0.00    -0.299 N 
ENDROOT
BRANCH   1  12
ATOM      6  C   UNL     1       8.321   2.471   0.487  0.00  0.00    +0.001 A 
ATOM      7  C   UNL     1       9.017   3.671   0.502  0.00  0.00    +0.002 A 
ATOM      8  C   UNL     1       8.350   4.871   0.391  0.00  0.00    +0.026 A 
ATOM      9  C   UNL     1       6.964   4.882   0.263  0.00  0.00    +0.047 A 
ATOM     10  C   UNL     1       6.265   3.663   0.255  0.00  0.00    +0.010 A 
ATOM     11  C   UNL     1       6.960   2.460   0.363  0.00  0.00    +0.011 A 
ATOM     12  C   UNL     1       4.842   4.012   0.104  0.00  0.00    +0.044 A 
ATOM     13  C   UNL     1       4.778   5.367   0.043  0.00  0.00    +0.095 A 
ATOM     14  N   UNL     1       6.035   5.892   0.137  0.00  0.00    -0.360 N 
ATOM     15  H   UNL     1       6.243   6.839   0.118  0.00  0.00    +0.165 HD
ENDBRANCH   1  12
BRANCH   5  16
ATOM     16  C   UNL     1       1.789   4.745   0.080  0.00  0.00    +0.091 C 
ATOM     17  C   UNL     1       0.304   4.861   0.427  0.00  0.00    +0.027 C 
ATOM     18  C   UNL     1       0.778   5.120  -1.005  0.00  0.00    +0.027 C 
ENDBRANCH   5  16
BRANCH   4  19
ATOM     19  S   UNL     1      -0.052   2.001  -0.074  0.00  0.00    -0.077 S 
BRANCH  19  20
ATOM     20  C   UNL     1      -0.149   0.196  -0.167  0.00  0.00    +0.173 C 
BRANCH  20  21
ATOM     21  C   UNL     1      -1.595  -0.227  -0.211  0.00  0.00    +0.226 C 
ATOM     22  O   UNL     1      -2.473   0.609  -0.182  0.00  0.00    -0.275 OA
ATOM     23  N   UNL     1      -1.912  -1.535  -0.282  0.00  0.00    -0.298 N 
ATOM     24  C   UNL     1      -0.862  -2.565  -0.324  0.00  0.00    +0.126 C 
ATOM     25  C   UNL     1      -1.171  -3.612   0.758  0.00  0.00    +0.124 C 
ATOM     26  N   UNL     1      -2.539  -4.113   0.572  0.00  0.00    -0.325 N 
ATOM     27  C   UNL     1      -3.528  -3.041   0.750  0.00  0.00    +0.124 C 
ATOM     28  C   UNL     1      -3.316  -1.970  -0.326  0.00  0.00    +0.126 C 
BRANCH  26  29
ATOM     29  C   UNL     1      -2.802  -5.185   1.430  0.00  0.00    +0.065 A 
ATOM     30  C   UNL     1      -4.015  -5.856   1.354  0.00  0.00    +0.026 A 
ATOM     31  C   UNL     1      -4.270  -6.918   2.201  0.00  0.00    +0.002 A 
ATOM     32  C   UNL     1      -3.324  -7.306   3.131  0.00  0.00    +0.003 A 
ATOM     33  C   UNL     1      -2.116  -6.637   3.215  0.00  0.00    +0.040 A 
ATOM     34  C   UNL     1      -1.852  -5.577   2.367  0.00  0.00    +0.144 A 
ATOM     35  F   UNL     1      -0.673  -4.922   2.449  0.00  0.00    -0.204 F 
ENDBRANCH  26  29
ENDBRANCH  20  21
ENDBRANCH  19  20
ENDBRANCH   4  19
TORSDOF 6
