REMARK  Name = ZINC09074656
REMARK  7 active torsions:
REMARK  status: ('A' for Active; 'I' for Inactive)
REMARK    1  A    between atoms: C_4  and  C_7
REMARK    2  A    between atoms: C_9  and  N_18
REMARK    3  A    between atoms: N_10  and  C_12
REMARK    4  A    between atoms: C_19  and  C_21
REMARK    5  A    between atoms: C_21  and  O_22
REMARK    6  A    between atoms: O_22  and  C_23
REMARK    7  A    between atoms: C_23  and  C_25
REMARK                            x       y       z     vdW  Elec       q    Type
REMARK                         _______ _______ _______ _____ _____    ______ ____
ROOT
ATOM      1  N   UNL     1       8.523  -0.226  -0.113  0.00  0.00    -0.267 N 
ATOM      2  C   UNL     1       7.265   0.257  -0.092  0.00  0.00    +0.256 C 
ATOM      3  O   UNL     1       7.075   1.455  -0.079  0.00  0.00    -0.272 OA
ATOM      4  H   UNL     1       8.674  -1.184  -0.123  0.00  0.00    +0.156 HD
ENDROOT
BRANCH   1   7
ATOM      5  C   UNL     1      10.857   2.505  -0.120  0.00  0.00    +0.095 A 
ATOM      6  C   UNL     1       9.540   2.008  -0.107  0.00  0.00    +0.074 A 
ATOM      7  C   UNL     1       9.607   0.651  -0.119  0.00  0.00    +0.129 A 
ATOM      8  N   UNL     1      10.923   0.302  -0.135  0.00  0.00    -0.218 N 
ATOM      9  N   UNL     1      11.682   1.479  -0.141  0.00  0.00    -0.165 NA
BRANCH   5  13
ATOM     10  C   UNL     1      11.976   6.607  -0.101  0.00  0.00    +0.000 A 
ATOM     11  C   UNL     1      12.952   5.626  -0.122  0.00  0.00    +0.001 A 
ATOM     12  C   UNL     1      12.594   4.293  -0.128  0.00  0.00    +0.010 A 
ATOM     13  C   UNL     1      11.248   3.936  -0.113  0.00  0.00    +0.002 A 
ATOM     14  C   UNL     1      10.269   4.928  -0.097  0.00  0.00    +0.010 A 
ATOM     15  C   UNL     1      10.638   6.258  -0.085  0.00  0.00    +0.001 A 
ENDBRANCH   5  13
BRANCH   8  16
ATOM     16  C   UNL     1      11.428  -1.004  -0.146  0.00  0.00    +0.067 A 
ATOM     17  C   UNL     1      10.771  -2.010   0.550  0.00  0.00    +0.028 A 
ATOM     18  C   UNL     1      11.269  -3.299   0.533  0.00  0.00    +0.002 A 
ATOM     19  C   UNL     1      12.427  -3.585  -0.168  0.00  0.00    +0.000 A 
ATOM     20  C   UNL     1      13.086  -2.584  -0.857  0.00  0.00    +0.002 A 
ATOM     21  C   UNL     1      12.590  -1.295  -0.848  0.00  0.00    +0.028 A 
ENDBRANCH   8  16
ENDBRANCH   1   7
BRANCH   2  22
ATOM     22  C   UNL     1       6.093  -0.691  -0.084  0.00  0.00    +0.328 C 
BRANCH  22  23
ATOM     23  O   UNL     1       4.856   0.068  -0.061  0.00  0.00    -0.452 OA
BRANCH  23  24
ATOM     24  C   UNL     1       3.706  -0.635  -0.052  0.00  0.00    +0.340 C 
ATOM     25  O   UNL     1       3.737  -1.850  -0.063  0.00  0.00    -0.245 OA
BRANCH  24  26
ATOM     26  C   UNL     1       2.412   0.069  -0.029  0.00  0.00    +0.061 A 
ATOM     27  C   UNL     1       2.378   1.467  -0.017  0.00  0.00    +0.016 A 
ATOM     28  C   UNL     1       1.167   2.122   0.002  0.00  0.00    +0.017 A 
ATOM     29  C   UNL     1      -0.017   1.395   0.010  0.00  0.00    +0.030 A 
ATOM     30  C   UNL     1       0.002  -0.004   0.002  0.00  0.00    +0.048 A 
ATOM     31  C   UNL     1       1.221  -0.662  -0.019  0.00  0.00    +0.039 A 
ATOM     32  N   UNL     1      -1.175  -0.748   0.021  0.00  0.00    -0.284 N 
ATOM     33  C   UNL     1      -2.379  -0.325  -0.354  0.00  0.00    +0.227 C 
ATOM     34  O   UNL     1      -3.307  -1.104  -0.288  0.00  0.00    -0.275 OA
ATOM     35  C   UNL     1      -2.654   1.066  -0.857  0.00  0.00    +0.170 C 
ATOM     36  S   UNL     1      -1.572   2.231   0.022  0.00  0.00    -0.114 S 
ATOM     37  H   UNL     1      -1.111  -1.663   0.338  0.00  0.00    +0.155 HD
ENDBRANCH  24  26
ENDBRANCH  23  24
ENDBRANCH  22  23
ENDBRANCH   2  22
TORSDOF 7
