REMARK  Name = ZINC64870717
REMARK  7 active torsions:
REMARK  status: ('A' for Active; 'I' for Inactive)
REMARK    1  A    between atoms: C_1  and  C_2
REMARK    2  A    between atoms: C_2  and  C_3
REMARK    3  A    between atoms: C_2  and  C_4
REMARK    4  A    between atoms: C_4  and  C_5
REMARK    5  A    between atoms: C_5  and  N_6
REMARK    6  A    between atoms: C_12  and  C_19
REMARK    7  A    between atoms: C_22  and  C_25
REMARK                            x       y       z     vdW  Elec       q    Type
REMARK                         _______ _______ _______ _____ _____    ______ ____
ROOT
ATOM      1  N   UNL     1       3.188  -0.482  -2.210  0.00  0.00    -0.261 N 
ATOM      2  C   UNL     1       3.771  -1.700  -2.226  0.00  0.00    +0.264 A 
ATOM      3  O   UNL     1       3.799  -2.392  -1.227  0.00  0.00    -0.267 OA
ATOM      4  C   UNL     1       4.373  -2.170  -3.487  0.00  0.00    +0.063 A 
ATOM      5  C   UNL     1       4.993  -3.413  -3.585  0.00  0.00    +0.016 A 
ATOM      6  C   UNL     1       5.541  -3.806  -4.788  0.00  0.00    +0.009 A 
ATOM      7  C   UNL     1       5.478  -2.973  -5.894  0.00  0.00    +0.006 A 
ATOM      8  C   UNL     1       4.867  -1.738  -5.810  0.00  0.00    +0.034 A 
ATOM      9  C   UNL     1       4.309  -1.325  -4.609  0.00  0.00    +0.056 A 
ATOM     10  N   UNL     1       3.686  -0.093  -4.483  0.00  0.00    -0.307 N 
ATOM     11  H   UNL     1       3.634   0.500  -5.248  0.00  0.00    +0.170 HD
ATOM     12  C   UNL     1       3.147   0.285  -3.310  0.00  0.00    +0.330 A 
ATOM     13  O   UNL     1       2.606   1.372  -3.242  0.00  0.00    -0.246 OA
ENDROOT
BRANCH   7  14
ATOM     14  C   UNL     1       6.083  -3.418  -7.200  0.00  0.00    +0.274 C 
ATOM     15  N   UNL     1       6.049  -4.882  -7.302  0.00  0.00    -0.339 N 
ATOM     16  C   UNL     1       7.266  -5.321  -7.399  0.00  0.00    +0.135 C 
ATOM     17  N   UNL     1       8.174  -4.291  -7.375  0.00  0.00    -0.247 N 
ATOM     18  O   UNL     1       7.473  -3.062  -7.251  0.00  0.00    -0.243 OA
ATOM     19  H   UNL     1       9.137  -4.387  -7.434  0.00  0.00    +0.196 HD
ATOM     20  H   UNL     1       5.249  -5.431  -7.298  0.00  0.00    +0.164 HD
BRANCH  16  21
ATOM     21  C   UNL     1       7.631  -6.750  -7.520  0.00  0.00    +0.035 A 
ATOM     22  C   UNL     1       7.204  -7.666  -6.558  0.00  0.00    +0.013 A 
ATOM     23  C   UNL     1       7.547  -8.997  -6.676  0.00  0.00    +0.001 A 
ATOM     24  C   UNL     1       8.312  -9.426  -7.746  0.00  0.00    +0.001 A 
ATOM     25  C   UNL     1       8.739  -8.524  -8.704  0.00  0.00    +0.021 A 
ATOM     26  C   UNL     1       8.398  -7.189  -8.601  0.00  0.00    +0.052 A 
ATOM     27 CL   UNL     1       8.927  -6.060  -9.808  0.00  0.00    -0.083 Cl
ENDBRANCH  16  21
ENDBRANCH   7  14
BRANCH   1  28
ATOM     28  C   UNL     1       2.581   0.007  -0.970  0.00  0.00    +0.130 C 
BRANCH  28  29
ATOM     29  C   UNL     1       1.115  -0.425  -0.913  0.00  0.00    +0.025 C 
BRANCH  29  31
ATOM     30  C   UNL     1       0.452   1.616   0.366  0.00  0.00    +0.007 C 
ATOM     31  C   UNL     1       0.482   0.086   0.382  0.00  0.00    -0.016 C 
ATOM     32  C   UNL     1      -0.947  -0.451   0.498  0.00  0.00    +0.007 C 
ENDBRANCH  29  31
ENDBRANCH  28  29
ENDBRANCH   1  28
TORSDOF 5
