REMARK  Name = ZINC39638138
REMARK  10 active torsions:
REMARK  status: ('A' for Active; 'I' for Inactive)
REMARK    1  A    between atoms: C_1  and  C_2
REMARK    2  A    between atoms: C_2  and  C_3
REMARK    3  A    between atoms: C_3  and  C_5
REMARK    4  A    between atoms: C_3  and  N_8
REMARK    5  A    between atoms: C_5  and  O_6
REMARK    6  A    between atoms: O_6  and  C_7
REMARK    7  A    between atoms: C_9  and  C_11
REMARK    8  A    between atoms: C_22  and  C_24
REMARK    9  A    between atoms: C_29  and  S_30
REMARK   10  A    between atoms: S_30  and  C_31
REMARK                            x       y       z     vdW  Elec       q    Type
REMARK                         _______ _______ _______ _____ _____    ______ ____
ROOT
ATOM      1  C   UNL     1       3.839   1.560  -1.448  0.00  0.00    +0.100 C 
ATOM      2  C   UNL     1       4.738   0.876  -2.502  0.00  0.00    +0.121 C 
ATOM      3  N   UNL     1       4.793   1.838  -3.628  0.00  0.00    -0.296 N 
ATOM      4  C   UNL     1       4.881   3.166  -2.975  0.00  0.00    +0.115 C 
ATOM      5  C   UNL     1       3.939   3.063  -1.759  0.00  0.00    -0.004 C 
ATOM      6  C   UNL     1       4.530   3.811  -0.568  0.00  0.00    -0.010 C 
ATOM      7  C   UNL     1       4.564   5.310  -0.879  0.00  0.00    -0.082 C 
ATOM      8  N   UNL     1       3.204   5.786  -1.155  0.00  0.00    +0.379 N 
ATOM      9  C   UNL     1       2.678   5.129  -2.358  0.00  0.00    -0.082 C 
ATOM     10  C   UNL     1       2.563   3.622  -2.109  0.00  0.00    -0.010 C 
ATOM     11  C   UNL     1       4.768   1.567  -4.948  0.00  0.00    +0.249 C 
ATOM     12  O   UNL     1       4.597   0.426  -5.331  0.00  0.00    -0.270 OA
ATOM     13  H   UNL     1       2.608   5.573  -0.369  0.00  0.00    -0.086 HD
ATOM     14  H   UNL     1       3.221   6.785  -1.300  0.00  0.00    -0.086 HD
ENDROOT
BRANCH  11  15
ATOM     15  C   UNL     1       4.948   2.654  -5.927  0.00  0.00    +0.069 A 
ATOM     16  C   UNL     1       5.823   3.714  -5.663  0.00  0.00    +0.017 A 
ATOM     17  C   UNL     1       5.957   4.709  -6.614  0.00  0.00    +0.020 A 
ATOM     18  C   UNL     1       5.230   4.631  -7.790  0.00  0.00    +0.112 A 
ATOM     19  N   UNL     1       4.411   3.625  -8.021  0.00  0.00    -0.248 NA
ATOM     20  C   UNL     1       4.248   2.642  -7.147  0.00  0.00    +0.114 A 
BRANCH  20  21
ATOM     21  S   UNL     1       3.145   1.318  -7.511  0.00  0.00    -0.069 S 
BRANCH  21  22
ATOM     22  C   UNL     1       2.626   1.639  -9.164  0.00  0.00    +0.014 A 
ATOM     23  C   UNL     1       3.276   1.028 -10.229  0.00  0.00    +0.015 A 
ATOM     24  C   UNL     1       2.866   1.282 -11.523  0.00  0.00    +0.001 A 
ATOM     25  C   UNL     1       1.810   2.143 -11.760  0.00  0.00    +0.000 A 
ATOM     26  C   UNL     1       1.160   2.753 -10.702  0.00  0.00    +0.001 A 
ATOM     27  C   UNL     1       1.561   2.499  -9.405  0.00  0.00    +0.015 A 
ENDBRANCH  21  22
ENDBRANCH  20  21
ENDBRANCH  11  15
BRANCH   1  29
ATOM     28  N   UNL     1       1.554   1.232  -0.560  0.00  0.00    -0.310 N 
ATOM     29  C   UNL     1       2.415   1.089  -1.587  0.00  0.00    +0.218 C 
ATOM     30  O   UNL     1       2.043   0.580  -2.623  0.00  0.00    -0.275 OA
ATOM     31  H   UNL     1       1.855   1.627   0.273  0.00  0.00    +0.149 HD
BRANCH  28  32
ATOM     32  C   UNL     1       0.164   0.791  -0.702  0.00  0.00    +0.098 C 
BRANCH  32  34
ATOM     33  C   UNL     1      -0.271   2.178  -2.734  0.00  0.00    +0.006 C 
ATOM     34  C   UNL     1      -0.676   1.931  -1.280  0.00  0.00    +0.021 C 
ENDBRANCH  32  34
BRANCH  32  35
ATOM     35  C   UNL     1      -0.388   0.394   0.669  0.00  0.00    +0.181 C 
BRANCH  35  36
ATOM     36  O   UNL     1      -0.441   1.546   1.512  0.00  0.00    -0.381 OA
ATOM     37  C   UNL     1      -0.945   1.283   2.824  0.00  0.00    +0.194 C 
ENDBRANCH  35  36
ENDBRANCH  32  35
ENDBRANCH  28  32
ENDBRANCH   1  29
TORSDOF 8
