REMARK  Name = ZINC15304359
REMARK  10 active torsions:
REMARK  status: ('A' for Active; 'I' for Inactive)
REMARK    1  A    between atoms: C_1  and  C_2
REMARK    2  A    between atoms: C_2  and  O_3
REMARK    3  A    between atoms: O_3  and  C_4
REMARK    4  A    between atoms: C_5  and  O_35
REMARK    5  A    between atoms: C_7  and  C_11
REMARK    6  A    between atoms: C_16  and  C_26
REMARK    7  A    between atoms: C_18  and  C_22
REMARK    8  A    between atoms: C_22  and  O_24
REMARK    9  A    between atoms: O_24  and  C_25
REMARK   10  A    between atoms: O_35  and  C_36
REMARK                            x       y       z     vdW  Elec       q    Type
REMARK                         _______ _______ _______ _____ _____    ______ ____
ROOT
ATOM      1  C   UNL     1       2.429   1.012   0.033  0.00  0.00    +0.136 C 
ATOM      2  C   UNL     1       1.240   1.942   0.015  0.00  0.00    +0.037 C 
ATOM      3  C   UNL     1       1.290   3.285  -0.009  0.00  0.00    +0.017 C 
ATOM      4  C   UNL     1       0.009   4.103  -0.030  0.00  0.00    +0.055 C 
ATOM      5  C   UNL     1      -1.087   3.375   0.746  0.00  0.00    +0.013 C 
ATOM      6  C   UNL     1      -1.312   2.016   0.066  0.00  0.00    +0.171 C 
ATOM      7  C   UNL     1      -0.008   1.276   0.040  0.00  0.00    +0.177 C 
ATOM      8  O   UNL     1      -0.024   0.061   0.035  0.00  0.00    -0.291 OA
ATOM      9  C   UNL     1      -0.645   3.168   2.196  0.00  0.00    +0.009 C 
ATOM     10  N   UNL     1       2.433   4.017  -0.031  0.00  0.00    -0.316 N 
ATOM     11  C   UNL     1       3.531   3.799   0.792  0.00  0.00    +0.052 A 
ATOM     12  C   UNL     1       3.943   4.723   1.737  0.00  0.00    +0.025 A 
ATOM     13  C   UNL     1       5.076   4.463   2.490  0.00  0.00    +0.002 A 
ATOM     14  C   UNL     1       5.789   3.294   2.299  0.00  0.00    +0.002 A 
ATOM     15  C   UNL     1       5.368   2.362   1.366  0.00  0.00    +0.025 A 
ATOM     16  C   UNL     1       4.223   2.609   0.626  0.00  0.00    +0.049 A 
ATOM     17  N   UNL     1       3.698   1.653  -0.242  0.00  0.00    -0.331 N 
ATOM     18  H   UNL     1       2.487   4.745  -0.669  0.00  0.00    +0.152 HD
ATOM     19  H   UNL     1       4.190   1.414  -1.043  0.00  0.00    +0.147 HD
ENDROOT
BRANCH   1  23
ATOM     20  C   UNL     1       2.651  -0.828   3.887  0.00  0.00    +0.176 A 
ATOM     21  C   UNL     1       2.432  -1.607   2.755  0.00  0.00    +0.163 A 
ATOM     22  C   UNL     1       2.360  -1.008   1.508  0.00  0.00    +0.055 A 
ATOM     23  C   UNL     1       2.507   0.362   1.390  0.00  0.00    -0.018 A 
ATOM     24  C   UNL     1       2.730   1.136   2.513  0.00  0.00    +0.025 A 
ATOM     25  C   UNL     1       2.797   0.545   3.762  0.00  0.00    +0.063 A 
ATOM     26 BR   UNL     1       3.097   1.608   5.297  0.00  0.00    -0.046 Br
BRANCH  21  27
ATOM     27  O   UNL     1       2.288  -2.954   2.873  0.00  0.00    -0.491 OA
ATOM     28  C   UNL     1       2.065  -3.691   1.668  0.00  0.00    +0.277 C 
ENDBRANCH  21  27
BRANCH  20  29
ATOM     29  O   UNL     1       2.722  -1.412   5.113  0.00  0.00    -0.487 OA
BRANCH  29  31
ATOM     30  C   UNL     1       3.894  -2.466   6.946  0.00  0.00    +0.048 C 
ATOM     31  C   UNL     1       4.013  -1.838   5.556  0.00  0.00    +0.226 C 
ENDBRANCH  29  31
ENDBRANCH  20  29
ENDBRANCH   1  23
BRANCH   6  32
ATOM     32  C   UNL     1      -1.803   2.227  -1.344  0.00  0.00    +0.318 C 
ATOM     33  O   UNL     1      -1.975   3.347  -1.763  0.00  0.00    -0.250 OA
BRANCH  32  34
ATOM     34  O   UNL     1      -2.048   1.169  -2.134  0.00  0.00    -0.467 OA
ATOM     35  C   UNL     1      -2.518   1.447  -3.479  0.00  0.00    +0.280 C 
ENDBRANCH  32  34
ENDBRANCH   6  32
TORSDOF 6
