REMARK  Name = ZINC01488296
REMARK  12 active torsions:
REMARK  status: ('A' for Active; 'I' for Inactive)
REMARK    1  A    between atoms: C_1  and  C_2
REMARK    2  A    between atoms: C_2  and  C_3
REMARK    3  A    between atoms: C_3  and  C_4
REMARK    4  A    between atoms: C_7  and  N_24
REMARK    5  A    between atoms: N_10  and  C_11
REMARK    6  A    between atoms: C_11  and  C_12
REMARK    7  A    between atoms: N_14  and  C_15
REMARK    8  A    between atoms: C_15  and  C_16
REMARK    9  A    between atoms: C_21  and  C_22
REMARK   10  A    between atoms: N_24  and  S_25
REMARK   11  A    between atoms: S_25  and  C_28
REMARK   12  A    between atoms: C_28  and  C_29
REMARK                            x       y       z     vdW  Elec       q    Type
REMARK                         _______ _______ _______ _____ _____    ______ ____
ROOT
ATOM      1  C   UNL     1       0.739  -2.004  -1.265  0.00  0.00    +0.023 A 
ATOM      2  C   UNL     1      -0.219  -2.681  -1.939  0.00  0.00    +0.023 A 
ATOM      3  C   UNL     1      -0.209  -4.084  -1.953  0.00  0.00    +0.031 A 
ATOM      4  C   UNL     1       0.777  -4.752  -1.280  0.00  0.00    +0.112 A 
ATOM      5  C   UNL     1       1.761  -4.013  -0.587  0.00  0.00    +0.274 A 
ATOM      6  O   UNL     1       2.648  -4.593   0.018  0.00  0.00    -0.266 OA
ATOM      7  N   UNL     1       1.723  -2.666  -0.600  0.00  0.00    -0.302 N 
ENDROOT
BRANCH   4   8
ATOM      8  N   UNL     1       0.810  -6.152  -1.277  0.00  0.00    -0.215 N 
ATOM      9  H   UNL     1       1.512  -6.620  -0.798  0.00  0.00    +0.173 HD
BRANCH   8  10
ATOM     10  S   UNL     1      -0.349  -7.009  -2.092  0.00  0.00    +0.047 S 
ATOM     11  O   UNL     1      -0.024  -8.372  -1.857  0.00  0.00    -0.155 OA
ATOM     12  O   UNL     1      -1.584  -6.470  -1.640  0.00  0.00    -0.155 OA
BRANCH  10  13
ATOM     13  C   UNL     1      -0.091  -6.597  -3.840  0.00  0.00    +0.223 C 
BRANCH  13  14
ATOM     14  C   UNL     1      -1.102  -7.330  -4.683  0.00  0.00    -0.025 A 
ATOM     15  C   UNL     1      -0.812  -8.590  -5.171  0.00  0.00    +0.005 A 
ATOM     16  C   UNL     1      -1.740  -9.262  -5.945  0.00  0.00    +0.000 A 
ATOM     17  C   UNL     1      -2.958  -8.674  -6.230  0.00  0.00    +0.000 A 
ATOM     18  C   UNL     1      -3.248  -7.414  -5.742  0.00  0.00    +0.000 A 
ATOM     19  C   UNL     1      -2.322  -6.743  -4.965  0.00  0.00    +0.005 A 
ENDBRANCH  13  14
ENDBRANCH  10  13
ENDBRANCH   8  10
ENDBRANCH   4   8
BRANCH   1  20
ATOM     20  C   UNL     1       0.718  -0.497  -1.257  0.00  0.00    +0.053 C 
BRANCH  20  22
ATOM     21  C   UNL     1      -0.019   1.526   0.010  0.00  0.00    +0.004 C 
ATOM     22  C   UNL     1       0.002  -0.004   0.002  0.00  0.00    +0.003 C 
ENDBRANCH  20  22
ENDBRANCH   1  20
BRANCH   7  23
ATOM     23  C   UNL     1       2.750  -1.906   0.117  0.00  0.00    +0.220 C 
BRANCH  23  24
ATOM     24  C   UNL     1       2.299  -1.663   1.534  0.00  0.00    +0.233 C 
ATOM     25  O   UNL     1       1.225  -2.083   1.909  0.00  0.00    -0.274 OA
ATOM     26  N   UNL     1       3.089  -0.979   2.385  0.00  0.00    -0.310 N 
ATOM     27  H   UNL     1       3.948  -0.642   2.085  0.00  0.00    +0.149 HD
BRANCH  26  28
ATOM     28  C   UNL     1       2.650  -0.742   3.762  0.00  0.00    +0.141 C 
BRANCH  28  29
ATOM     29  C   UNL     1       3.707   0.040   4.499  0.00  0.00    -0.011 A 
ATOM     30  C   UNL     1       4.597  -0.609   5.345  0.00  0.00    +0.010 A 
ATOM     31  C   UNL     1       5.552   0.146   6.002  0.00  0.00    +0.041 A 
ATOM     32  C   UNL     1       5.588   1.521   5.794  0.00  0.00    +0.094 A 
ATOM     33  N   UNL     1       4.722   2.102   4.979  0.00  0.00    -0.347 N 
ATOM     34  C   UNL     1       3.804   1.407   4.335  0.00  0.00    +0.019 A 
ATOM     35  C   UNL     1       2.846   2.115   3.412  0.00  0.00    +0.063 C 
ATOM     36  N   UNL     1       6.542   2.292   6.449  0.00  0.00    -0.345 N 
ATOM     37  H   UNL     1       7.179   1.870   7.047  0.00  0.00    +0.144 HD
ATOM     38  H   UNL     1       6.572   3.251   6.307  0.00  0.00    +0.144 HD
ATOM     39  H   UNL     1       4.766   3.063   4.849  0.00  0.00    +0.167 HD
ENDBRANCH  28  29
ENDBRANCH  26  28
ENDBRANCH  23  24
ENDBRANCH   7  23
TORSDOF 10
