REMARK  Name = ZINC02520002
REMARK  6 active torsions:
REMARK  status: ('A' for Active; 'I' for Inactive)
REMARK    1  A    between atoms: C_9  and  C_12
REMARK    2  A    between atoms: N_13  and  N_14
REMARK    3  A    between atoms: C_15  and  C_17
REMARK    4  A    between atoms: N_19  and  C_20
REMARK    5  A    between atoms: C_25  and  C_26
REMARK    6  A    between atoms: N_28  and  C_29
REMARK                            x       y       z     vdW  Elec       q    Type
REMARK                         _______ _______ _______ _____ _____    ______ ____
ROOT
ATOM      1  C   UNL     1       5.560  -7.845   2.235  0.00  0.00    +0.305 C 
ATOM      2  O   UNL     1       4.662  -8.442   2.793  0.00  0.00    -0.265 OA
ATOM      3  N   UNL     1       6.698  -8.490   1.911  0.00  0.00    -0.277 N 
ATOM      4  H   UNL     1       7.389  -8.031   1.408  0.00  0.00    +0.155 HD
ENDROOT
BRANCH   3   5
ATOM      5  C   UNL     1       6.882  -9.813   2.299  0.00  0.00    +0.046 A 
ATOM      6  C   UNL     1       5.804 -10.688   2.332  0.00  0.00    +0.024 A 
ATOM      7  C   UNL     1       5.989 -12.000   2.717  0.00  0.00    +0.002 A 
ATOM      8  C   UNL     1       7.248 -12.455   3.073  0.00  0.00    +0.001 A 
ATOM      9  C   UNL     1       8.330 -11.602   3.047  0.00  0.00    +0.015 A 
ATOM     10  C   UNL     1       8.160 -10.273   2.654  0.00  0.00    +0.058 A 
BRANCH  10  11
ATOM     11  C   UNL     1       9.315  -9.356   2.618  0.00  0.00    +0.246 C 
ATOM     12  O   UNL     1       9.147  -8.176   2.374  0.00  0.00    -0.270 OA
ATOM     13  N   UNL     1      10.556  -9.825   2.854  0.00  0.00    -0.308 N 
ATOM     14  H   UNL     1      10.689 -10.766   3.049  0.00  0.00    +0.149 HD
BRANCH  13  15
ATOM     15  C   UNL     1      11.703  -8.914   2.819  0.00  0.00    +0.073 C 
ATOM     16  C   UNL     1      12.192  -8.767   1.377  0.00  0.00    +0.022 C 
ATOM     17  C   UNL     1      13.390  -7.816   1.339  0.00  0.00    +0.002 C 
ATOM     18  C   UNL     1      14.517  -8.382   2.205  0.00  0.00    +0.000 C 
ATOM     19  C   UNL     1      14.028  -8.528   3.647  0.00  0.00    +0.002 C 
ATOM     20  C   UNL     1      12.830  -9.480   3.685  0.00  0.00    +0.022 C 
ENDBRANCH  13  15
ENDBRANCH  10  11
ENDBRANCH   3   5
BRANCH   1  22
ATOM     21  N   UNL     1       4.265  -5.755   2.232  0.00  0.00    -0.199 N 
ATOM     22  C   UNL     1       5.403  -6.399   1.908  0.00  0.00    +0.318 C 
ATOM     23  O   UNL     1       6.302  -5.802   1.350  0.00  0.00    -0.263 OA
ATOM     24  H   UNL     1       3.547  -6.231   2.678  0.00  0.00    +0.178 HD
BRANCH  21  26
ATOM     25  C   UNL     1       3.020  -3.774   2.237  0.00  0.00    +0.145 C 
ATOM     26  N   UNL     1       4.118  -4.396   1.925  0.00  0.00    -0.187 NA
BRANCH  25  35
ATOM     27  C   UNL     1       0.809   2.037   2.588  0.00  0.00    +0.001 A 
ATOM     28  C   UNL     1       1.901   2.600   1.943  0.00  0.00    +0.004 A 
ATOM     29  C   UNL     1       2.888   1.806   1.401  0.00  0.00    +0.047 A 
ATOM     30  C   UNL     1       2.798   0.421   1.498  0.00  0.00    +0.138 A 
ATOM     31  C   UNL     1       1.694  -0.146   2.155  0.00  0.00    +0.065 A 
ATOM     32  C   UNL     1       0.700   0.667   2.696  0.00  0.00    +0.015 A 
ATOM     33  C   UNL     1       1.627  -1.618   2.259  0.00  0.00    +0.201 A 
ATOM     34  O   UNL     1       0.613  -2.196   2.607  0.00  0.00    -0.286 OA
ATOM     35  C   UNL     1       2.865  -2.346   1.914  0.00  0.00    +0.077 A 
ATOM     36  C   UNL     1       3.862  -1.655   1.287  0.00  0.00    +0.209 A 
ATOM     37  O   UNL     1       3.753  -0.366   0.966  0.00  0.00    -0.462 OA
ENDBRANCH  25  35
ENDBRANCH  21  26
ENDBRANCH   1  22
TORSDOF 6
