REMARK  Name = ZINC00923359
REMARK  13 active torsions:
REMARK  status: ('A' for Active; 'I' for Inactive)
REMARK    1  A    between atoms: C_1  and  C_2
REMARK    2  A    between atoms: C_4  and  C_37
REMARK    3  A    between atoms: C_5  and  S_9
REMARK    4  A    between atoms: C_6  and  C_8
REMARK    5  A    between atoms: S_9  and  N_12
REMARK    6  A    between atoms: N_12  and  C_13
REMARK    7  A    between atoms: N_12  and  C_22
REMARK    8  A    between atoms: C_13  and  C_14
REMARK    9  A    between atoms: C_17  and  O_20
REMARK   10  A    between atoms: O_20  and  C_21
REMARK   11  A    between atoms: C_22  and  C_23
REMARK   12  A    between atoms: C_27  and  O_35
REMARK   13  A    between atoms: O_35  and  C_36
REMARK                            x       y       z     vdW  Elec       q    Type
REMARK                         _______ _______ _______ _____ _____    ______ ____
ROOT
ATOM      1  N   UNL     1      -2.967   1.603   1.806  0.00  0.00    -0.168 NA
ENDROOT
BRANCH   1   2
ATOM      2  S   UNL     1      -2.920   1.787   0.161  0.00  0.00    +0.062 S 
ATOM      3  O   UNL     1      -2.341   0.600  -0.364  0.00  0.00    -0.153 OA
ATOM      4  O   UNL     1      -2.374   3.075  -0.089  0.00  0.00    -0.153 OA
BRANCH   2   9
ATOM      5  C   UNL     1      -8.634   1.929  -1.772  0.00  0.00    +0.044 C 
ATOM      6  C   UNL     1      -7.205   1.893  -1.292  0.00  0.00    -0.050 A 
ATOM      7  C   UNL     1      -6.632   0.692  -0.919  0.00  0.00    +0.008 A 
ATOM      8  C   UNL     1      -5.322   0.659  -0.479  0.00  0.00    -0.024 A 
ATOM      9  C   UNL     1      -4.587   1.828  -0.407  0.00  0.00    +0.111 A 
ATOM     10  C   UNL     1      -5.159   3.028  -0.786  0.00  0.00    -0.024 A 
ATOM     11  C   UNL     1      -6.469   3.061  -1.226  0.00  0.00    +0.008 A 
ATOM     12  C   UNL     1      -4.356   4.301  -0.714  0.00  0.00    +0.046 C 
ATOM     13  C   UNL     1      -4.696  -0.650  -0.071  0.00  0.00    +0.046 C 
ENDBRANCH   2   9
ENDBRANCH   1   2
BRANCH   1  14
ATOM     14  C   UNL     1      -3.326   2.739   2.659  0.00  0.00    +0.145 C 
BRANCH  14  15
ATOM     15  C   UNL     1      -4.734   2.560   3.166  0.00  0.00    -0.031 A 
ATOM     16  C   UNL     1      -5.797   3.071   2.445  0.00  0.00    +0.008 A 
ATOM     17  C   UNL     1      -7.089   2.904   2.904  0.00  0.00    +0.046 A 
ATOM     18  C   UNL     1      -7.318   2.233   4.097  0.00  0.00    +0.120 A 
ATOM     19  C   UNL     1      -6.250   1.727   4.822  0.00  0.00    +0.046 A 
ATOM     20  C   UNL     1      -4.960   1.892   4.355  0.00  0.00    +0.008 A 
BRANCH  18  21
ATOM     21  O   UNL     1      -8.588   2.072   4.554  0.00  0.00    -0.495 OA
ATOM     22  C   UNL     1      -9.639   2.619   3.755  0.00  0.00    +0.277 C 
ENDBRANCH  18  21
ENDBRANCH  14  15
ENDBRANCH   1  14
BRANCH   1  23
ATOM     23  C   UNL     1      -2.650   0.306   2.408  0.00  0.00    +0.150 C 
BRANCH  23  24
ATOM     24  C   UNL     1      -1.398   0.430   3.238  0.00  0.00    +0.033 A 
ATOM     25  C   UNL     1      -1.491   0.572   4.583  0.00  0.00    +0.020 A 
ATOM     26  C   UNL     1      -0.257   0.690   5.362  0.00  0.00    +0.002 A 
ATOM     27  C   UNL     1      -0.292   0.838   6.752  0.00  0.00    +0.055 A 
ATOM     28  C   UNL     1       0.890   0.946   7.456  0.00  0.00    +0.121 A 
ATOM     29  C   UNL     1       2.112   0.908   6.788  0.00  0.00    +0.047 A 
ATOM     30  C   UNL     1       2.159   0.762   5.419  0.00  0.00    +0.030 A 
ATOM     31  C   UNL     1       0.980   0.652   4.691  0.00  0.00    +0.049 A 
ATOM     32  N   UNL     1       1.006   0.505   3.319  0.00  0.00    -0.322 N 
ATOM     33  H   UNL     1       1.885   0.482   2.842  0.00  0.00    +0.169 HD
ATOM     34  C   UNL     1      -0.133   0.392   2.613  0.00  0.00    +0.254 A 
ATOM     35  O   UNL     1      -0.072   0.258   1.403  0.00  0.00    -0.268 OA
BRANCH  28  36
ATOM     36  O   UNL     1       0.863   1.091   8.807  0.00  0.00    -0.495 OA
ATOM     37  C   UNL     1       2.122   1.197   9.475  0.00  0.00    +0.277 C 
ENDBRANCH  28  36
ENDBRANCH  23  24
ENDBRANCH   1  23
TORSDOF 8
