REMARK  Name = ZINC41297625
REMARK  10 active torsions:
REMARK  status: ('A' for Active; 'I' for Inactive)
REMARK    1  A    between atoms: C_1  and  C_2
REMARK    2  A    between atoms: N_4  and  C_5
REMARK    3  A    between atoms: C_5  and  C_7
REMARK    4  A    between atoms: C_5  and  C_18
REMARK    5  A    between atoms: C_7  and  C_8
REMARK    6  A    between atoms: N_20  and  C_21
REMARK    7  A    between atoms: C_21  and  C_22
REMARK    8  A    between atoms: C_22  and  C_23
REMARK    9  A    between atoms: C_22  and  C_24
REMARK   10  A    between atoms: C_22  and  N_25
REMARK                            x       y       z     vdW  Elec       q    Type
REMARK                         _______ _______ _______ _____ _____    ______ ____
ROOT
ATOM      1  C   UNL     1       0.377  -2.443  -1.012  0.00  0.00    +0.163 C 
ENDROOT
BRANCH   1   5
ATOM      2  C   UNL     1       0.572   1.217   0.093  0.00  0.00    +0.109 C 
ATOM      3  C   UNL     1       0.461  -0.286   0.117  0.00  0.00    +0.211 C 
ATOM      4  O   UNL     1       0.348  -0.868   1.175  0.00  0.00    -0.276 OA
ATOM      5  N   UNL     1       0.485  -0.982  -1.036  0.00  0.00    -0.304 N 
ATOM      6  H   UNL     1       0.575  -0.517  -1.882  0.00  0.00    +0.149 HD
ENDBRANCH   1   5
BRANCH   1   7
ATOM      7  C   UNL     1      -0.930  -2.840  -0.375  0.00  0.00    +0.234 C 
ATOM      8  O   UNL     1      -1.522  -2.054   0.333  0.00  0.00    -0.274 OA
ATOM      9  N   UNL     1      -1.440  -4.068  -0.593  0.00  0.00    -0.315 N 
ATOM     10  H   UNL     1      -0.967  -4.697  -1.160  0.00  0.00    +0.149 HD
BRANCH   9  11
ATOM     11  C   UNL     1      -2.711  -4.453   0.026  0.00  0.00    +0.092 C 
BRANCH  11  12
ATOM     12  C   UNL     1      -3.127  -5.835  -0.482  0.00  0.00    -0.055 C 
ATOM     13  C   UNL     1      -2.119  -6.880  -0.001  0.00  0.00    -0.008 C 
ATOM     14  C   UNL     1      -4.516  -6.180   0.059  0.00  0.00    -0.008 C 
BRANCH  12  15
ATOM     15  N   UNL     1      -3.161  -5.828  -1.950  0.00  0.00    +0.384 N 
ATOM     16  C   UNL     1      -4.097  -4.795  -2.411  0.00  0.00    -0.078 C 
ATOM     17  C   UNL     1      -4.076  -4.727  -3.940  0.00  0.00    -0.019 C 
ATOM     18  C   UNL     1      -4.491  -6.086  -4.511  0.00  0.00    -0.004 C 
ATOM     19  C   UNL     1      -3.554  -7.167  -3.965  0.00  0.00    -0.019 C 
ATOM     20  C   UNL     1      -3.594  -7.144  -2.435  0.00  0.00    -0.078 C 
ATOM     21  H   UNL     1      -2.239  -5.626  -2.306  0.00  0.00    -0.081 HD
ENDBRANCH  12  15
ENDBRANCH  11  12
ENDBRANCH   9  11
ENDBRANCH   1   7
BRANCH   1  22
ATOM     22  C   UNL     1       1.537  -3.027  -0.202  0.00  0.00    +0.069 C 
BRANCH  22  23
ATOM     23  C   UNL     1       2.837  -2.735  -0.905  0.00  0.00    -0.020 A 
ATOM     24  C   UNL     1       3.484  -3.546  -1.757  0.00  0.00    +0.087 A 
ATOM     25  N   UNL     1       4.632  -2.943  -2.195  0.00  0.00    -0.360 N 
ATOM     26  H   UNL     1       5.264  -3.335  -2.817  0.00  0.00    +0.165 HD
ATOM     27  C   UNL     1       4.754  -1.697  -1.622  0.00  0.00    +0.047 A 
ATOM     28  C   UNL     1       3.632  -1.510  -0.794  0.00  0.00    +0.003 A 
ATOM     29  C   UNL     1       3.484  -0.319  -0.081  0.00  0.00    +0.010 A 
ATOM     30  C   UNL     1       4.429   0.662  -0.194  0.00  0.00    +0.001 A 
ATOM     31  C   UNL     1       5.536   0.483  -1.013  0.00  0.00    +0.002 A 
ATOM     32  C   UNL     1       5.706  -0.688  -1.718  0.00  0.00    +0.026 A 
ENDBRANCH  22  23
ENDBRANCH   1  22
TORSDOF 7
