REMARK  Name = ZINC39674428
REMARK  10 active torsions:
REMARK  status: ('A' for Active; 'I' for Inactive)
REMARK    1  A    between atoms: C_1  and  C_2
REMARK    2  A    between atoms: C_4  and  C_9
REMARK    3  A    between atoms: C_5  and  C_8
REMARK    4  A    between atoms: C_9  and  C_11
REMARK    5  A    between atoms: C_9  and  N_12
REMARK    6  A    between atoms: C_13  and  C_15
REMARK    7  A    between atoms: C_26  and  C_28
REMARK    8  A    between atoms: C_31  and  O_38
REMARK    9  A    between atoms: C_32  and  C_34
REMARK   10  A    between atoms: O_38  and  C_39
REMARK                            x       y       z     vdW  Elec       q    Type
REMARK                         _______ _______ _______ _____ _____    ______ ____
ROOT
ATOM      1  C   UNL     1      -4.084   2.763  -1.220  0.00  0.00    +0.100 C 
ATOM      2  C   UNL     1      -3.666   3.837  -0.192  0.00  0.00    +0.121 C 
ATOM      3  N   UNL     1      -4.756   4.840  -0.234  0.00  0.00    -0.296 N 
ATOM      4  C   UNL     1      -5.994   4.034  -0.365  0.00  0.00    +0.115 C 
ATOM      5  C   UNL     1      -5.612   2.895  -1.331  0.00  0.00    -0.004 C 
ATOM      6  C   UNL     1      -6.287   1.595  -0.905  0.00  0.00    -0.010 C 
ATOM      7  C   UNL     1      -7.802   1.730  -1.078  0.00  0.00    -0.082 C 
ATOM      8  N   UNL     1      -8.111   2.028  -2.482  0.00  0.00    +0.379 N 
ATOM      9  C   UNL     1      -7.536   3.326  -2.857  0.00  0.00    -0.082 C 
ATOM     10  C   UNL     1      -6.010   3.257  -2.758  0.00  0.00    -0.010 C 
ATOM     11  C   UNL     1      -4.647   6.182  -0.168  0.00  0.00    +0.247 C 
ATOM     12  O   UNL     1      -3.549   6.703  -0.162  0.00  0.00    -0.270 OA
ATOM     13  H   UNL     1      -7.722   1.307  -3.071  0.00  0.00    -0.086 HD
ATOM     14  H   UNL     1      -9.112   2.057  -2.606  0.00  0.00    -0.086 HD
ENDROOT
BRANCH  11  15
ATOM     15  C   UNL     1      -5.862   7.019  -0.103  0.00  0.00    +0.038 A 
ATOM     16  C   UNL     1      -7.066   6.471   0.346  0.00  0.00    +0.016 A 
ATOM     17  C   UNL     1      -8.197   7.255   0.406  0.00  0.00    +0.047 A 
ATOM     18  C   UNL     1      -8.141   8.589   0.019  0.00  0.00    +0.132 A 
ATOM     19  C   UNL     1      -6.945   9.137  -0.428  0.00  0.00    +0.097 A 
ATOM     20  C   UNL     1      -5.808   8.361  -0.486  0.00  0.00    +0.029 A 
BRANCH  19  21
ATOM     21  C   UNL     1      -6.890  10.584  -0.847  0.00  0.00    +0.421 C 
ATOM     22  F   UNL     1      -5.590  10.902  -1.255  0.00  0.00    -0.166 F 
ATOM     23  F   UNL     1      -7.777  10.797  -1.907  0.00  0.00    -0.166 F 
ATOM     24  F   UNL     1      -7.250  11.396   0.234  0.00  0.00    -0.166 F 
ENDBRANCH  19  21
BRANCH  18  25
ATOM     25  O   UNL     1      -9.257   9.359   0.079  0.00  0.00    -0.495 OA
ATOM     26  C   UNL     1     -10.453   8.732   0.548  0.00  0.00    +0.277 C 
ENDBRANCH  18  25
ENDBRANCH  11  15
BRANCH   1  28
ATOM     27  N   UNL     1      -3.444   0.405  -1.608  0.00  0.00    -0.309 N 
ATOM     28  C   UNL     1      -3.710   1.389  -0.726  0.00  0.00    +0.219 C 
ATOM     29  O   UNL     1      -3.649   1.169   0.465  0.00  0.00    -0.275 OA
ATOM     30  H   UNL     1      -3.493   0.581  -2.560  0.00  0.00    +0.149 HD
BRANCH  27  31
ATOM     31  C   UNL     1      -3.080  -0.930  -1.127  0.00  0.00    +0.100 C 
ATOM     32  C   UNL     1      -4.351  -1.720  -0.806  0.00  0.00    +0.033 C 
BRANCH  31  35
ATOM     33  C   UNL     1      -3.041  -0.728  -4.402  0.00  0.00    +0.039 C 
ATOM     34  C   UNL     1      -2.736  -1.997  -3.605  0.00  0.00    +0.154 C 
ATOM     35  C   UNL     1      -2.296  -1.651  -2.193  0.00  0.00    -0.001 C 
ATOM     36  C   UNL     1      -1.055  -2.135  -2.115  0.00  0.00    +0.063 C 
ATOM     37  N   UNL     1      -0.693  -2.718  -3.280  0.00  0.00    -0.159 NA
ATOM     38  N   UNL     1      -1.561  -2.691  -4.160  0.00  0.00    -0.180 NA
ATOM     39  C   UNL     1      -0.175  -2.042  -0.895  0.00  0.00    +0.067 C 
ENDBRANCH  31  35
ENDBRANCH  27  31
ENDBRANCH   1  28
TORSDOF 6
