REMARK  Name = ZINC12447005
REMARK  10 active torsions:
REMARK  status: ('A' for Active; 'I' for Inactive)
REMARK    1  A    between atoms: C_1  and  C_2
REMARK    2  A    between atoms: C_5  and  O_9
REMARK    3  A    between atoms: O_9  and  C_10
REMARK    4  A    between atoms: C_10  and  C_11
REMARK    5  A    between atoms: N_13  and  N_14
REMARK    6  A    between atoms: C_15  and  C_16
REMARK    7  A    between atoms: C_15  and  C_17
REMARK    8  A    between atoms: C_17  and  C_18
REMARK    9  A    between atoms: N_20  and  C_21
REMARK   10  A    between atoms: C_26  and  C_27
REMARK                            x       y       z     vdW  Elec       q    Type
REMARK                         _______ _______ _______ _____ _____    ______ ____
ROOT
ATOM      1  N   UNL     1       3.803   8.273   0.575  0.00  0.00    -0.189 NA
ATOM      2  C   UNL     1       3.348   7.473  -0.314  0.00  0.00    +0.043 C 
ATOM      3  C   UNL     1       2.484   8.000  -1.431  0.00  0.00    +0.063 C 
ENDROOT
BRANCH   1   6
ATOM      4  C   UNL     1       4.905   8.601   2.660  0.00  0.00    +0.270 C 
ATOM      5  O   UNL     1       4.665   9.788   2.584  0.00  0.00    -0.270 OA
ATOM      6  N   UNL     1       4.501   7.768   1.680  0.00  0.00    -0.204 N 
ATOM      7  H   UNL     1       4.692   6.819   1.741  0.00  0.00    +0.177 HD
BRANCH   4   8
ATOM      8  C   UNL     1       5.655   8.058   3.849  0.00  0.00    +0.326 C 
BRANCH   8   9
ATOM      9  O   UNL     1       5.972   9.128   4.741  0.00  0.00    -0.482 OA
BRANCH   9  14
ATOM     10  C   UNL     1       8.797   7.795   9.429  0.00  0.00    +0.044 C 
ATOM     11  C   UNL     1       8.041   8.152   8.175  0.00  0.00    -0.049 A 
ATOM     12  C   UNL     1       7.702   7.164   7.269  0.00  0.00    +0.007 A 
ATOM     13  C   UNL     1       7.009   7.489   6.119  0.00  0.00    +0.047 A 
ATOM     14  C   UNL     1       6.653   8.806   5.873  0.00  0.00    +0.135 A 
ATOM     15  C   UNL     1       6.999   9.797   6.781  0.00  0.00    +0.060 A 
ATOM     16  C   UNL     1       7.688   9.467   7.933  0.00  0.00    +0.022 A 
ATOM     17 BR   UNL     1       6.522  11.596   6.447  0.00  0.00    -0.047 Br
ENDBRANCH   9  14
ENDBRANCH   8   9
ENDBRANCH   4   8
ENDBRANCH   1   6
BRANCH   2  18
ATOM     18  C   UNL     1       3.674   6.003  -0.244  0.00  0.00    +0.148 C 
BRANCH  18  19
ATOM     19  C   UNL     1       2.609   5.289   0.547  0.00  0.00    +0.223 C 
ATOM     20  O   UNL     1       1.676   5.912   1.008  0.00  0.00    -0.275 OA
ATOM     21  N   UNL     1       2.693   3.958   0.741  0.00  0.00    -0.285 N 
ATOM     22  H   UNL     1       3.477   3.472   0.441  0.00  0.00    +0.155 HD
BRANCH  21  23
ATOM     23  C   UNL     1       1.648   3.276   1.376  0.00  0.00    +0.038 A 
ATOM     24  C   UNL     1       0.382   3.843   1.435  0.00  0.00    +0.043 A 
ATOM     25  C   UNL     1      -0.647   3.167   2.062  0.00  0.00    +0.043 A 
ATOM     26  C   UNL     1      -0.418   1.925   2.627  0.00  0.00    +0.020 A 
ATOM     27  C   UNL     1       0.844   1.361   2.575  0.00  0.00    +0.006 A 
ATOM     28  C   UNL     1       1.876   2.032   1.949  0.00  0.00    -0.029 A 
ATOM     29  C   UNL     1       3.249   1.413   1.887  0.00  0.00    +0.045 C 
ATOM     30 CL   UNL     1      -2.231   3.874   2.136  0.00  0.00    -0.083 Cl
ENDBRANCH  21  23
ENDBRANCH  18  19
ENDBRANCH   2  18
TORSDOF 7
