REMARK  Name = ZINC36586824
REMARK  14 active torsions:
REMARK  status: ('A' for Active; 'I' for Inactive)
REMARK    1  A    between atoms: C_1  and  C_2
REMARK    2  A    between atoms: C_2  and  C_3
REMARK    3  A    between atoms: C_2  and  C_4
REMARK    4  A    between atoms: C_2  and  N_5
REMARK    5  A    between atoms: N_5  and  C_6
REMARK    6  A    between atoms: C_6  and  C_8
REMARK    7  A    between atoms: C_6  and  C_17
REMARK    8  A    between atoms: C_11  and  N_14
REMARK    9  A    between atoms: N_14  and  C_15
REMARK   10  A    between atoms: N_14  and  C_16
REMARK   11  A    between atoms: N_19  and  C_20
REMARK   12  A    between atoms: C_26  and  C_28
REMARK   13  A    between atoms: C_29  and  O_35
REMARK   14  A    between atoms: C_33  and  O_34
REMARK                            x       y       z     vdW  Elec       q    Type
REMARK                         _______ _______ _______ _____ _____    ______ ____
ROOT
ATOM      1  C   UNL     1       3.163  -0.978  -2.486  0.00  0.00    +0.193 C 
ENDROOT
BRANCH   1   2
ATOM      2  C   UNL     1       3.930  -1.836  -1.513  0.00  0.00    -0.018 A 
ATOM      3  C   UNL     1       3.969  -1.495  -0.174  0.00  0.00    +0.008 A 
ATOM      4  C   UNL     1       4.671  -2.280   0.720  0.00  0.00    +0.023 A 
ATOM      5  C   UNL     1       5.339  -3.413   0.272  0.00  0.00    +0.029 A 
ATOM      6  C   UNL     1       5.298  -3.752  -1.075  0.00  0.00    +0.023 A 
ATOM      7  C   UNL     1       4.589  -2.966  -1.962  0.00  0.00    +0.008 A 
BRANCH   5   8
ATOM      8  N   UNL     1       6.050  -4.208   1.173  0.00  0.00    -0.336 N 
ATOM      9  C   UNL     1       6.025  -3.896   2.604  0.00  0.00    +0.129 C 
ATOM     10  C   UNL     1       6.821  -5.355   0.687  0.00  0.00    +0.129 C 
ENDBRANCH   5   8
ENDBRANCH   1   2
BRANCH   1  11
ATOM     11  C   UNL     1       4.120  -0.078  -3.224  0.00  0.00    +0.238 C 
ATOM     12  O   UNL     1       3.970   1.125  -3.190  0.00  0.00    -0.273 OA
ATOM     13  N   UNL     1       5.142  -0.610  -3.923  0.00  0.00    -0.311 N 
ATOM     14  H   UNL     1       5.262  -1.572  -3.951  0.00  0.00    +0.149 HD
BRANCH  13  15
ATOM     15  C   UNL     1       6.072   0.265  -4.641  0.00  0.00    +0.073 C 
ATOM     16  C   UNL     1       5.497   0.599  -6.019  0.00  0.00    +0.022 C 
ATOM     17  C   UNL     1       6.468   1.513  -6.769  0.00  0.00    +0.002 C 
ATOM     18  C   UNL     1       7.812   0.801  -6.937  0.00  0.00    +0.000 C 
ATOM     19  C   UNL     1       8.387   0.467  -5.559  0.00  0.00    +0.002 C 
ATOM     20  C   UNL     1       7.416  -0.447  -4.809  0.00  0.00    +0.022 C 
ENDBRANCH  13  15
ENDBRANCH   1  11
BRANCH   1  21
ATOM     21  N   UNL     1       2.191  -0.161  -1.755  0.00  0.00    -0.277 N 
ATOM     22  C   UNL     1       2.616   0.803  -0.914  0.00  0.00    +0.255 C 
ATOM     23  O   UNL     1       3.804   1.050  -0.825  0.00  0.00    -0.270 OA
BRANCH  22  24
ATOM     24  C   UNL     1       1.644   1.556  -0.105  0.00  0.00    +0.119 A 
ATOM     25  C   UNL     1       1.271   1.091   1.165  0.00  0.00    +0.133 A 
ATOM     26  C   UNL     1       0.355   1.808   1.918  0.00  0.00    +0.046 A 
ATOM     27  C   UNL     1      -0.190   2.977   1.422  0.00  0.00    +0.007 A 
ATOM     28  C   UNL     1       0.170   3.445   0.172  0.00  0.00    +0.046 A 
ATOM     29  C   UNL     1       1.088   2.747  -0.596  0.00  0.00    +0.133 A 
BRANCH  29  30
ATOM     30  O   UNL     1       1.445   3.210  -1.820  0.00  0.00    -0.506 OA
ATOM     31  H   UNL     1       0.888   2.886  -2.541  0.00  0.00    +0.292 HD
ENDBRANCH  29  30
BRANCH  25  32
ATOM     32  O   UNL     1       1.804  -0.057   1.653  0.00  0.00    -0.506 OA
ATOM     33  H   UNL     1       2.619   0.072   2.157  0.00  0.00    +0.292 HD
ENDBRANCH  25  32
ENDBRANCH  22  24
BRANCH  21  35
ATOM     34  C   UNL     1       0.546  -1.557  -2.907  0.00  0.00    +0.031 C 
ATOM     35  C   UNL     1       0.755  -0.393  -1.937  0.00  0.00    +0.030 C 
ATOM     36  C   UNL     1       0.104   0.869  -2.506  0.00  0.00    +0.031 C 
ATOM     37  C   UNL     1       0.118  -0.732  -0.588  0.00  0.00    +0.031 C 
ENDBRANCH  21  35
ENDBRANCH   1  21
TORSDOF 9
