REMARK  Name = ZINC39920669
REMARK  6 active torsions:
REMARK  status: ('A' for Active; 'I' for Inactive)
REMARK    1  A    between atoms: C_1  and  C_2
REMARK    2  A    between atoms: C_2  and  C_4
REMARK    3  A    between atoms: C_2  and  O_25
REMARK    4  A    between atoms: N_6  and  N_7
REMARK    5  A    between atoms: C_8  and  C_20
REMARK    6  A    between atoms: O_25  and  C_26
REMARK                            x       y       z     vdW  Elec       q    Type
REMARK                         _______ _______ _______ _____ _____    ______ ____
ROOT
ATOM      1  N   UNL     1       1.192  -0.298   3.568  0.00  0.00    -0.188 N 
ATOM      2  C   UNL     1       0.912  -1.472   4.396  0.00  0.00    +0.247 C 
ATOM      3  N   UNL     1       2.158  -2.008   4.956  0.00  0.00    -0.318 N 
ATOM      4  C   UNL     1       3.098  -1.122   5.470  0.00  0.00    +0.041 A 
ATOM      5  C   UNL     1       3.961  -1.486   6.489  0.00  0.00    +0.025 A 
ATOM      6  C   UNL     1       4.886  -0.574   6.961  0.00  0.00    +0.017 A 
ATOM      7  C   UNL     1       4.957   0.701   6.421  0.00  0.00    +0.019 A 
ATOM      8  C   UNL     1       4.100   1.081   5.408  0.00  0.00    +0.030 A 
ATOM      9  C   UNL     1       3.159   0.173   4.927  0.00  0.00    +0.060 A 
ATOM     10  C   UNL     1       2.210   0.535   3.860  0.00  0.00    +0.267 C 
ATOM     11  O   UNL     1       2.342   1.580   3.252  0.00  0.00    -0.268 OA
ATOM     12 BR   UNL     1       6.235   1.930   7.079  0.00  0.00    -0.050 Br
ATOM     13  H   UNL     1       2.322  -2.964   4.967  0.00  0.00    +0.148 HD
ENDROOT
BRANCH   2  14
ATOM     14  C   UNL     1      -0.009  -1.079   5.522  0.00  0.00    +0.145 A 
ATOM     15  C   UNL     1      -0.043  -1.643   6.743  0.00  0.00    +0.048 A 
ATOM     16  C   UNL     1      -1.048  -0.971   7.476  0.00  0.00    +0.041 A 
ATOM     17  C   UNL     1      -1.568  -0.037   6.660  0.00  0.00    +0.195 A 
ATOM     18  O   UNL     1      -0.931  -0.103   5.479  0.00  0.00    -0.464 OA
ENDBRANCH   2  14
BRANCH   1  21
ATOM     19  C   UNL     1       0.863  -0.290   1.210  0.00  0.00    +0.270 C 
ATOM     20  O   UNL     1       1.980  -0.740   1.066  0.00  0.00    -0.270 OA
ATOM     21  N   UNL     1       0.391  -0.040   2.447  0.00  0.00    -0.226 N 
ATOM     22  H   UNL     1      -0.502   0.320   2.562  0.00  0.00    +0.173 HD
BRANCH  19  24
ATOM     23  C   UNL     1      -0.257   1.492  -0.101  0.00  0.00    +0.062 C 
ATOM     24  C   UNL     1       0.001  -0.013   0.005  0.00  0.00    +0.257 C 
BRANCH  24  25
ATOM     25  O   UNL     1       0.671  -0.465  -1.174  0.00  0.00    -0.479 OA
BRANCH  25  26
ATOM     26  C   UNL     1      -0.106  -0.774  -2.244  0.00  0.00    +0.129 A 
ATOM     27  C   UNL     1      -1.453  -0.545  -2.205  0.00  0.00    +0.046 A 
ATOM     28  C   UNL     1      -2.263  -0.857  -3.294  0.00  0.00    +0.004 A 
ATOM     29  C   UNL     1      -1.738  -1.399  -4.428  0.00  0.00    +0.009 A 
ATOM     30  C   UNL     1      -0.357  -1.649  -4.507  0.00  0.00    -0.014 A 
ATOM     31  C   UNL     1       0.472  -1.329  -3.404  0.00  0.00    +0.024 A 
ATOM     32  C   UNL     1       1.852  -1.575  -3.485  0.00  0.00    +0.012 A 
ATOM     33  C   UNL     1       2.375  -2.112  -4.621  0.00  0.00    +0.001 A 
ATOM     34  C   UNL     1       1.561  -2.423  -5.708  0.00  0.00    +0.001 A 
ATOM     35  C   UNL     1       0.217  -2.208  -5.662  0.00  0.00    +0.008 A 
ENDBRANCH  25  26
ENDBRANCH  24  25
ENDBRANCH  19  24
ENDBRANCH   1  21
TORSDOF 5
