REMARK  Name = ZINC36251763
REMARK  4 active torsions:
REMARK  status: ('A' for Active; 'I' for Inactive)
REMARK    1  A    between atoms: C_1  and  C_2
REMARK    2  A    between atoms: C_3  and  N_18
REMARK    3  A    between atoms: C_6  and  N_8
REMARK    4  A    between atoms: N_8  and  C_9
REMARK                            x       y       z     vdW  Elec       q    Type
REMARK                         _______ _______ _______ _____ _____    ______ ____
ROOT
ATOM      1  N   UNL     1       0.049  -2.637   2.418  0.00  0.00    -0.297 N 
ATOM      2  H   UNL     1       0.100  -3.605   2.447  0.00  0.00    +0.154 HD
ENDROOT
BRANCH   1   3
ATOM      3  C   UNL     1       0.150  -1.895   3.601  0.00  0.00    +0.071 A 
ATOM      4  C   UNL     1      -0.457  -0.650   3.695  0.00  0.00    +0.029 A 
ATOM      5  C   UNL     1      -0.357   0.082   4.863  0.00  0.00    +0.043 A 
ATOM      6  C   UNL     1       0.350  -0.424   5.940  0.00  0.00    +0.161 A 
ATOM      7  C   UNL     1       0.958  -1.666   5.851  0.00  0.00    +0.195 A 
ATOM      8  C   UNL     1       0.855  -2.406   4.685  0.00  0.00    +0.182 A 
ATOM      9  F   UNL     1       1.443  -3.619   4.599  0.00  0.00    -0.200 F 
ATOM     10  F   UNL     1       1.647  -2.158   6.904  0.00  0.00    -0.199 F 
ATOM     11  F   UNL     1       0.447   0.295   7.080  0.00  0.00    -0.202 F 
ENDBRANCH   1   3
BRANCH   1  17
ATOM     12  C   UNL     1      -0.124   1.501   0.012  0.00  0.00    +0.067 C 
ATOM     13  C   UNL     1      -0.212  -0.004   0.016  0.00  0.00    +0.061 A 
ATOM     14  C   UNL     1      -0.458  -0.679  -1.170  0.00  0.00    +0.046 A 
ATOM     15  C   UNL     1      -0.538  -2.071  -1.156  0.00  0.00    +0.028 A 
ATOM     16  C   UNL     1      -0.367  -2.728   0.049  0.00  0.00    +0.045 A 
ATOM     17  C   UNL     1      -0.124  -1.984   1.199  0.00  0.00    +0.123 A 
ATOM     18  N   UNL     1      -0.049  -0.664   1.147  0.00  0.00    -0.235 NA
BRANCH  14  19
ATOM     19  N   UNL     1      -0.625   0.028  -2.367  0.00  0.00    -0.357 N 
ATOM     20  H   UNL     1      -0.568   0.996  -2.370  0.00  0.00    +0.142 HD
ATOM     21  H   UNL     1      -0.796  -0.451  -3.193  0.00  0.00    +0.142 HD
ENDBRANCH  14  19
ENDBRANCH   1  17
TORSDOF 3
