REMARK  Name = ZINC09698746
REMARK  8 active torsions:
REMARK  status: ('A' for Active; 'I' for Inactive)
REMARK    1  A    between atoms: C_1  and  C_2
REMARK    2  A    between atoms: C_5  and  N_8
REMARK    3  A    between atoms: C_10  and  C_15
REMARK    4  A    between atoms: C_20  and  C_23
REMARK    5  A    between atoms: C_23  and  C_24
REMARK    6  A    between atoms: N_26  and  C_27
REMARK    7  A    between atoms: C_29  and  C_34
REMARK    8  A    between atoms: C_31  and  C_33
REMARK                            x       y       z     vdW  Elec       q    Type
REMARK                         _______ _______ _______ _____ _____    ______ ____
ROOT
ATOM      1  C   UNL     1      -0.363  -7.713  -0.186  0.00  0.00    +0.224 C 
ATOM      2  O   UNL     1      -1.121  -7.258  -1.016  0.00  0.00    -0.275 OA
ATOM      3  N   UNL     1      -0.189  -9.047  -0.091  0.00  0.00    -0.264 N 
ATOM      4  C   UNL     1      -0.879  -9.900  -0.945  0.00  0.00    +0.165 A 
ATOM      5  N   UNL     1      -0.843 -11.217  -1.007  0.00  0.00    -0.229 NA
ATOM      6  C   UNL     1      -1.569 -11.879  -1.886  0.00  0.00    +0.059 A 
ATOM      7  C   UNL     1      -2.358 -11.175  -2.733  0.00  0.00    +0.072 A 
ATOM      8  S   UNL     1      -2.014  -9.505  -2.199  0.00  0.00    -0.060 S 
ATOM      9  H   UNL     1       0.417  -9.411   0.573  0.00  0.00    +0.157 HD
ENDROOT
BRANCH   1  12
ATOM     10  N   UNL     1      -0.052  -4.735   1.899  0.00  0.00    -0.271 N 
ATOM     11  C   UNL     1      -0.087  -5.327   0.556  0.00  0.00    +0.127 C 
ATOM     12  C   UNL     1       0.385  -6.788   0.739  0.00  0.00    +0.102 C 
ATOM     13  C   UNL     1       0.007  -7.057   2.215  0.00  0.00    +0.110 C 
ATOM     14  C   UNL     1      -0.008  -5.684   2.850  0.00  0.00    +0.221 C 
ATOM     15  O   UNL     1       0.017  -5.471   4.043  0.00  0.00    -0.275 OA
BRANCH  10  20
ATOM     16  C   UNL     1      -0.115   0.841   2.941  0.00  0.00    +0.044 C 
ATOM     17  C   UNL     1      -0.098  -0.640   2.664  0.00  0.00    -0.050 A 
ATOM     18  C   UNL     1      -0.014  -1.098   1.362  0.00  0.00    +0.005 A 
ATOM     19  C   UNL     1       0.006  -2.455   1.105  0.00  0.00    +0.024 A 
ATOM     20  C   UNL     1      -0.068  -3.360   2.156  0.00  0.00    +0.036 A 
ATOM     21  C   UNL     1      -0.158  -2.897   3.462  0.00  0.00    +0.024 A 
ATOM     22  C   UNL     1      -0.173  -1.539   3.712  0.00  0.00    +0.005 A 
ENDBRANCH  10  20
ENDBRANCH   1  12
BRANCH   6  23
ATOM     23  C   UNL     1      -1.521 -13.384  -1.948  0.00  0.00    +0.152 C 
BRANCH  23  24
ATOM     24  C   UNL     1      -0.093 -13.835  -2.122  0.00  0.00    +0.223 C 
ATOM     25  O   UNL     1       0.797 -13.014  -2.189  0.00  0.00    -0.275 OA
ATOM     26  N   UNL     1       0.193 -15.149  -2.202  0.00  0.00    -0.285 N 
ATOM     27  H   UNL     1      -0.524 -15.802  -2.215  0.00  0.00    +0.155 HD
BRANCH  26  28
ATOM     28  C   UNL     1       1.525 -15.572  -2.268  0.00  0.00    +0.034 A 
ATOM     29  C   UNL     1       1.915 -16.746  -1.637  0.00  0.00    +0.026 A 
ATOM     30  C   UNL     1       3.230 -17.163  -1.708  0.00  0.00    -0.048 A 
ATOM     31  C   UNL     1       4.160 -16.408  -2.399  0.00  0.00    +0.006 A 
ATOM     32  C   UNL     1       3.776 -15.236  -3.024  0.00  0.00    -0.048 A 
ATOM     33  C   UNL     1       2.462 -14.816  -2.961  0.00  0.00    +0.026 A 
ATOM     34  C   UNL     1       4.793 -14.415  -3.775  0.00  0.00    +0.044 C 
ATOM     35  C   UNL     1       3.652 -18.440  -1.029  0.00  0.00    +0.044 C 
ENDBRANCH  26  28
ENDBRANCH  23  24
ENDBRANCH   6  23
TORSDOF 5
