REMARK  Name = ZINC14889583
REMARK  8 active torsions:
REMARK  status: ('A' for Active; 'I' for Inactive)
REMARK    1  A    between atoms: C_3  and  C_12
REMARK    2  A    between atoms: C_5  and  O_7
REMARK    3  A    between atoms: O_7  and  C_8
REMARK    4  A    between atoms: C_12  and  N_63
REMARK    5  A    between atoms: C_13  and  N_63
REMARK    6  A    between atoms: N_16  and  C_19
REMARK    7  A    between atoms: C_22  and  C_25
REMARK    8  A    between atoms: C_31  and  O_34
REMARK                            x       y       z     vdW  Elec       q    Type
REMARK                         _______ _______ _______ _____ _____    ______ ____
ROOT
ATOM      1  C   UNL     1       0.942   2.840  -0.470  0.00  0.00    -0.068 C 
ATOM      2  C   UNL     1       1.941   2.067   0.395  0.00  0.00    +0.003 C 
ATOM      3  C   UNL     1       3.300   2.768   0.347  0.00  0.00    +0.103 C 
ATOM      4  N   UNL     1       3.160   4.144   0.841  0.00  0.00    -0.330 N 
ATOM      5  C   UNL     1       2.241   4.920  -0.002  0.00  0.00    +0.103 C 
ATOM      6  C   UNL     1       0.851   4.282   0.036  0.00  0.00    +0.003 C 
ENDROOT
BRANCH   4   7
ATOM      7  C   UNL     1       4.399   4.769   0.935  0.00  0.00    +0.030 A 
ATOM      8  C   UNL     1       4.623   5.969   0.266  0.00  0.00    +0.024 A 
ATOM      9  C   UNL     1       5.846   6.592   0.361  0.00  0.00    +0.015 A 
ATOM     10  C   UNL     1       6.867   6.013   1.120  0.00  0.00    +0.037 A 
ATOM     11  C   UNL     1       6.640   4.805   1.786  0.00  0.00    +0.015 A 
ATOM     12  C   UNL     1       5.413   4.190   1.692  0.00  0.00    +0.024 A 
BRANCH  10  13
ATOM     13  C   UNL     1       8.182   6.676   1.219  0.00  0.00    +0.247 C 
ATOM     14  O   UNL     1       8.685   6.869   2.308  0.00  0.00    -0.270 OA
ATOM     15  N   UNL     1       8.825   7.067   0.101  0.00  0.00    -0.295 N 
ATOM     16  C   UNL     1       8.193   6.916  -1.218  0.00  0.00    +0.108 C 
ATOM     17  C   UNL     1       9.146   6.144  -2.135  0.00  0.00    +0.021 C 
ATOM     18  C   UNL     1      10.504   6.851  -2.166  0.00  0.00    +0.034 C 
ATOM     19  C   UNL     1      11.101   6.872  -0.757  0.00  0.00    +0.132 C 
ATOM     20  C   UNL     1      10.168   7.657   0.177  0.00  0.00    +0.139 C 
BRANCH  19  21
ATOM     21  O   UNL     1      12.382   7.505  -0.792  0.00  0.00    -0.390 OA
ATOM     22  H   UNL     1      12.820   7.554   0.069  0.00  0.00    +0.210 HD
ENDBRANCH  19  21
ENDBRANCH  10  13
ENDBRANCH   4   7
BRANCH   1  23
ATOM     23  N   UNL     1      -0.387   2.207  -0.374  0.00  0.00    +0.384 N 
ATOM     24  H   UNL     1      -0.518   1.836   0.574  0.00  0.00    -0.085 HD
ATOM     25  H   UNL     1      -1.111   2.908  -0.570  0.00  0.00    -0.085 HD
BRANCH  23  26
ATOM     26  C   UNL     1      -0.501   1.105  -1.348  0.00  0.00    -0.046 C 
BRANCH  26  29
ATOM     27  C   UNL     1      -4.169   0.385  -1.883  0.00  0.00    +0.004 A 
ATOM     28  C   UNL     1      -2.915   0.958  -1.990  0.00  0.00    +0.002 A 
ATOM     29  C   UNL     1      -1.866   0.479  -1.228  0.00  0.00    -0.061 A 
ATOM     30  C   UNL     1      -2.067  -0.578  -0.360  0.00  0.00    +0.047 A 
ATOM     31  C   UNL     1      -3.325  -1.151  -0.247  0.00  0.00    +0.130 A 
ATOM     32  C   UNL     1      -4.376  -0.668  -1.013  0.00  0.00    +0.046 A 
BRANCH  31  33
ATOM     33  O   UNL     1      -3.526  -2.187   0.609  0.00  0.00    -0.406 OA
BRANCH  33  34
ATOM     34  C   UNL     1      -4.846  -2.732   0.670  0.00  0.00    +0.575 C 
ATOM     35  F   UNL     1      -5.211  -3.211  -0.593  0.00  0.00    -0.133 F 
ATOM     36  F   UNL     1      -4.875  -3.782   1.593  0.00  0.00    -0.133 F 
ATOM     37  F   UNL     1      -5.744  -1.735   1.068  0.00  0.00    -0.133 F 
ENDBRANCH  33  34
ENDBRANCH  31  33
ENDBRANCH  26  29
ENDBRANCH  23  26
ENDBRANCH   1  23
TORSDOF 8
