REMARK  Name = ZINC13025073
REMARK  7 active torsions:
REMARK  status: ('A' for Active; 'I' for Inactive)
REMARK    1  A    between atoms: C_5  and  N_7
REMARK    2  A    between atoms: N_7  and  C_8
REMARK    3  A    between atoms: C_8  and  C_10
REMARK    4  A    between atoms: C_8  and  C_22
REMARK    5  A    between atoms: C_13  and  N_16
REMARK    6  A    between atoms: N_24  and  C_25
REMARK    7  A    between atoms: C_30  and  C_32
REMARK                            x       y       z     vdW  Elec       q    Type
REMARK                         _______ _______ _______ _____ _____    ______ ____
ROOT
ATOM      1  C   UNL     1       1.111  -2.692  -1.353  0.00  0.00    +0.198 C 
ENDROOT
BRANCH   1   2
ATOM      2  C   UNL     1      -0.136  -2.179  -2.027  0.00  0.00    -0.018 A 
ATOM      3  C   UNL     1      -0.546  -0.875  -1.817  0.00  0.00    +0.008 A 
ATOM      4  C   UNL     1      -1.688  -0.402  -2.433  0.00  0.00    +0.023 A 
ATOM      5  C   UNL     1      -2.423  -1.236  -3.265  0.00  0.00    +0.030 A 
ATOM      6  C   UNL     1      -2.008  -2.545  -3.474  0.00  0.00    +0.023 A 
ATOM      7  C   UNL     1      -0.862  -3.010  -2.859  0.00  0.00    +0.008 A 
BRANCH   5   8
ATOM      8  N   UNL     1      -3.579  -0.760  -3.890  0.00  0.00    -0.326 N 
ATOM      9  C   UNL     1      -4.442  -1.660  -4.671  0.00  0.00    +0.133 C 
ATOM     10  C   UNL     1      -5.887  -1.480  -4.191  0.00  0.00    +0.178 C 
ATOM     11  O   UNL     1      -6.224  -0.091  -4.221  0.00  0.00    -0.377 OA
ATOM     12  C   UNL     1      -5.436   0.721  -3.349  0.00  0.00    +0.178 C 
ATOM     13  C   UNL     1      -3.971   0.654  -3.781  0.00  0.00    +0.133 C 
ENDBRANCH   5   8
ENDBRANCH   1   2
BRANCH   1  14
ATOM     14  C   UNL     1       2.313  -2.357  -2.197  0.00  0.00    +0.239 C 
ATOM     15  O   UNL     1       3.006  -1.402  -1.913  0.00  0.00    -0.273 OA
ATOM     16  N   UNL     1       2.619  -3.117  -3.266  0.00  0.00    -0.311 N 
ATOM     17  H   UNL     1       2.065  -3.881  -3.493  0.00  0.00    +0.149 HD
BRANCH  16  18
ATOM     18  C   UNL     1       3.788  -2.791  -4.087  0.00  0.00    +0.073 C 
ATOM     19  C   UNL     1       3.397  -1.784  -5.188  0.00  0.00    +0.022 C 
ATOM     20  C   UNL     1       4.229  -2.224  -6.418  0.00  0.00    +0.002 C 
ATOM     21  C   UNL     1       4.196  -3.769  -6.319  0.00  0.00    +0.002 C 
ATOM     22  C   UNL     1       4.296  -4.053  -4.806  0.00  0.00    +0.022 C 
ENDBRANCH  16  18
ENDBRANCH   1  14
BRANCH   1  23
ATOM     23  N   UNL     1       1.247  -2.064  -0.036  0.00  0.00    -0.246 N 
ATOM     24  C   UNL     1       0.332  -2.305   0.923  0.00  0.00    +0.287 C 
ATOM     25  O   UNL     1       0.380  -1.696   1.976  0.00  0.00    -0.266 OA
BRANCH  23  30
ATOM     26  C   UNL     1       3.306   0.975   0.189  0.00  0.00    +0.002 A 
ATOM     27  C   UNL     1       4.468   0.465   0.740  0.00  0.00    +0.003 A 
ATOM     28  C   UNL     1       4.564  -0.882   1.035  0.00  0.00    +0.040 A 
ATOM     29  C   UNL     1       3.498  -1.725   0.779  0.00  0.00    +0.145 A 
ATOM     30  C   UNL     1       2.329  -1.215   0.225  0.00  0.00    +0.073 A 
ATOM     31  C   UNL     1       2.237   0.139  -0.069  0.00  0.00    +0.026 A 
ATOM     32  F   UNL     1       3.592  -3.042   1.066  0.00  0.00    -0.204 F 
ENDBRANCH  23  30
BRANCH  24  33
ATOM     33  C   UNL     1      -0.721  -3.299   0.699  0.00  0.00    +0.190 A 
ATOM     34  C   UNL     1      -1.774  -3.555   1.531  0.00  0.00    +0.054 A 
ATOM     35  C   UNL     1      -2.527  -4.574   0.927  0.00  0.00    +0.042 A 
ATOM     36  C   UNL     1      -1.909  -4.893  -0.231  0.00  0.00    +0.196 A 
ATOM     37  O   UNL     1      -0.824  -4.119  -0.368  0.00  0.00    -0.458 OA
ENDBRANCH  24  33
ENDBRANCH   1  23
TORSDOF 7
