REMARK  Name = ZINC33034012
REMARK  10 active torsions:
REMARK  status: ('A' for Active; 'I' for Inactive)
REMARK    1  A    between atoms: C_1  and  C_2
REMARK    2  A    between atoms: C_2  and  C_3
REMARK    3  A    between atoms: C_3  and  C_5
REMARK    4  A    between atoms: C_3  and  N_6
REMARK    5  A    between atoms: C_7  and  C_9
REMARK    6  A    between atoms: C_12  and  N_26
REMARK    7  A    between atoms: C_13  and  N_15
REMARK    8  A    between atoms: N_15  and  S_16
REMARK    9  A    between atoms: S_16  and  C_19
REMARK   10  A    between atoms: C_24  and  C_25
REMARK                            x       y       z     vdW  Elec       q    Type
REMARK                         _______ _______ _______ _____ _____    ______ ____
ROOT
ATOM      1  C   UNL     1       1.452   3.512   1.190  0.00  0.00    +0.039 A 
ATOM      2  C   UNL     1       2.749   3.086   0.894  0.00  0.00    +0.015 A 
ATOM      3  C   UNL     1       2.948   1.947   0.145  0.00  0.00    +0.026 A 
ATOM      4  C   UNL     1       1.859   1.218  -0.318  0.00  0.00    +0.052 A 
ATOM      5  C   UNL     1       0.558   1.638  -0.026  0.00  0.00    +0.070 A 
ATOM      6  C   UNL     1       0.355   2.784   0.720  0.00  0.00    +0.039 A 
ENDROOT
BRANCH   4   7
ATOM      7  N   UNL     1       2.064   0.066  -1.075  0.00  0.00    -0.332 N 
ATOM      8  C   UNL     1       3.473  -0.057  -1.475  0.00  0.00    +0.086 C 
ATOM      9  C   UNL     1       3.641  -1.288  -2.369  0.00  0.00    -0.063 C 
ATOM     10  N   UNL     1       3.198  -2.484  -1.638  0.00  0.00    +0.381 N 
ATOM     11  C   UNL     1       1.789  -2.361  -1.238  0.00  0.00    -0.063 C 
ATOM     12  C   UNL     1       1.621  -1.130  -0.345  0.00  0.00    +0.086 C 
ATOM     13  H   UNL     1       3.306  -3.369  -2.283  0.00  0.00    -0.086 HD
ATOM     14  H   UNL     1       3.813  -2.611  -0.735  0.00  0.00    -0.086 HD
ENDBRANCH   4   7
BRANCH   1  16
ATOM     15  N   UNL     1       2.298   5.437   2.440  0.00  0.00    -0.309 N 
ATOM     16  C   UNL     1       1.240   4.732   1.992  0.00  0.00    +0.244 C 
ATOM     17  O   UNL     1       0.110   5.102   2.249  0.00  0.00    -0.270 OA
ATOM     18  H   UNL     1       3.319   5.102   2.207  0.00  0.00    +0.149 HD
BRANCH  15  19
ATOM     19  C   UNL     1       2.087   6.648   3.236  0.00  0.00    +0.070 C 
ATOM     20  C   UNL     1       1.905   6.267   4.707  0.00  0.00    +0.028 C 
BRANCH  19  22
ATOM     21  C   UNL     1       3.409   8.051   1.646  0.00  0.00    +0.005 C 
ATOM     22  C   UNL     1       3.300   7.569   3.095  0.00  0.00    +0.018 C 
ENDBRANCH  19  22
ENDBRANCH  15  19
ENDBRANCH   1  16
BRANCH   5  23
ATOM     23  N   UNL     1      -0.537   0.902  -0.493  0.00  0.00    -0.214 N 
ATOM     24  H   UNL     1      -0.467   0.356  -1.445  0.00  0.00    +0.174 HD
BRANCH  23  25
ATOM     25  S   UNL     1      -1.939   0.855   0.387  0.00  0.00    +0.073 S 
ATOM     26  O   UNL     1      -2.836   0.011  -0.322  0.00  0.00    -0.150 OA
ATOM     27  O   UNL     1      -1.564   0.607   1.735  0.00  0.00    -0.150 OA
BRANCH  25  28
ATOM     28  C   UNL     1      -2.634   2.474   0.347  0.00  0.00    +0.111 A 
ATOM     29  C   UNL     1      -2.758   3.202   1.516  0.00  0.00    +0.029 A 
ATOM     30  C   UNL     1      -3.298   4.474   1.484  0.00  0.00    +0.002 A 
ATOM     31  C   UNL     1      -3.725   5.013   0.285  0.00  0.00    +0.000 A 
ATOM     32  C   UNL     1      -3.607   4.283  -0.883  0.00  0.00    +0.005 A 
ATOM     33  C   UNL     1      -3.061   3.013  -0.851  0.00  0.00    -0.024 A 
ATOM     34  C   UNL     1      -2.932   2.217  -2.124  0.00  0.00    +0.046 C 
ENDBRANCH  25  28
ENDBRANCH  23  25
ENDBRANCH   5  23
TORSDOF 7
