REMARK  Name = ZINC22381545
REMARK  11 active torsions:
REMARK  status: ('A' for Active; 'I' for Inactive)
REMARK    1  A    between atoms: C_1  and  N_2
REMARK    2  A    between atoms: N_2  and  C_3
REMARK    3  A    between atoms: N_2  and  C_4
REMARK    4  A    between atoms: C_4  and  C_6
REMARK    5  A    between atoms: C_4  and  C_29
REMARK    6  A    between atoms: C_6  and  N_7
REMARK    7  A    between atoms: C_8  and  C_10
REMARK    8  A    between atoms: C_10  and  C_11
REMARK    9  A    between atoms: C_11  and  C_12
REMARK   10  A    between atoms: C_14  and  C_23
REMARK   11  A    between atoms: C_15  and  C_17
REMARK                            x       y       z     vdW  Elec       q    Type
REMARK                         _______ _______ _______ _____ _____    ______ ____
ROOT
ATOM      1  C   UNL     1       1.017   8.026  -0.679  0.00  0.00    +0.105 C 
ENDROOT
BRANCH   1   2
ATOM      2  C   UNL     1       2.060   6.945  -0.799  0.00  0.00    +0.197 A 
ATOM      3  N   UNL     1       3.307   7.137  -1.115  0.00  0.00    -0.213 NA
ATOM      4  C   UNL     1       3.944   5.947  -1.127  0.00  0.00    +0.117 A 
ATOM      5  C   UNL     1       3.010   4.986  -0.796  0.00  0.00    +0.163 A 
ATOM      6  O   UNL     1       1.842   5.637  -0.603  0.00  0.00    -0.439 OA
BRANCH   5   7
ATOM      7  C   UNL     1       3.241   3.533  -0.683  0.00  0.00    +0.019 A 
ATOM      8  C   UNL     1       4.324   3.050   0.055  0.00  0.00    +0.011 A 
ATOM      9  C   UNL     1       4.533   1.691   0.157  0.00  0.00    +0.001 A 
ATOM     10  C   UNL     1       3.673   0.806  -0.468  0.00  0.00    +0.000 A 
ATOM     11  C   UNL     1       2.597   1.277  -1.200  0.00  0.00    +0.001 A 
ATOM     12  C   UNL     1       2.376   2.634  -1.312  0.00  0.00    +0.011 A 
ENDBRANCH   5   7
BRANCH   4  13
ATOM     13  C   UNL     1       5.374   5.716  -1.438  0.00  0.00    +0.004 A 
ATOM     14  C   UNL     1       6.348   6.581  -0.938  0.00  0.00    +0.010 A 
ATOM     15  C   UNL     1       7.678   6.357  -1.227  0.00  0.00    +0.001 A 
ATOM     16  C   UNL     1       8.047   5.284  -2.018  0.00  0.00    +0.000 A 
ATOM     17  C   UNL     1       7.085   4.426  -2.521  0.00  0.00    +0.001 A 
ATOM     18  C   UNL     1       5.752   4.636  -2.235  0.00  0.00    +0.010 A 
ENDBRANCH   4  13
ENDBRANCH   1   2
BRANCH   1  19
ATOM     19  C   UNL     1       0.336   8.230  -2.034  0.00  0.00    +0.105 C 
BRANCH  19  21
ATOM     20  N   UNL     1      -1.438   9.665  -2.990  0.00  0.00    -0.316 N 
ATOM     21  C   UNL     1      -0.706   9.312  -1.914  0.00  0.00    +0.213 C 
ATOM     22  O   UNL     1      -0.887   9.865  -0.850  0.00  0.00    -0.276 OA
ATOM     23  H   UNL     1      -1.274   9.163  -3.955  0.00  0.00    +0.149 HD
BRANCH  20  24
ATOM     24  C   UNL     1      -2.452  10.716  -2.873  0.00  0.00    +0.096 C 
BRANCH  24  25
ATOM     25  C   UNL     1      -3.133  10.920  -4.228  0.00  0.00    +0.016 C 
BRANCH  25  26
ATOM     26  C   UNL     1      -4.087  12.083  -4.140  0.00  0.00    +0.093 A 
ATOM     27  C   UNL     1      -5.430  12.000  -4.133  0.00  0.00    +0.043 A 
ATOM     28  C   UNL     1      -5.922  13.322  -4.039  0.00  0.00    +0.041 A 
ATOM     29  C   UNL     1      -4.850  14.134  -3.994  0.00  0.00    +0.195 A 
ATOM     30  O   UNL     1      -3.742  13.378  -4.050  0.00  0.00    -0.469 OA
ENDBRANCH  25  26
BRANCH  25  32
ATOM     31  C   UNL     1      -2.730  11.355  -6.576  0.00  0.00    -0.096 C 
ATOM     32  N   UNL     1      -2.115  11.198  -5.251  0.00  0.00    +0.384 N 
ATOM     33  C   UNL     1      -1.321  12.382  -4.895  0.00  0.00    -0.096 C 
ATOM     34  H   UNL     1      -1.435  10.335  -5.294  0.00  0.00    -0.082 HD
ENDBRANCH  25  32
ENDBRANCH  24  25
ENDBRANCH  20  24
ENDBRANCH  19  21
ENDBRANCH   1  19
TORSDOF 9
