REMARK  Name = ZINC13495884
REMARK  16 active torsions:
REMARK  status: ('A' for Active; 'I' for Inactive)
REMARK    1  A    between atoms: C_1  and  C_2
REMARK    2  A    between atoms: C_2  and  C_3
REMARK    3  A    between atoms: C_3  and  C_5
REMARK    4  A    between atoms: C_3  and  N_71
REMARK    5  A    between atoms: N_9  and  C_10
REMARK    6  A    between atoms: C_10  and  C_11
REMARK    7  A    between atoms: C_11  and  O_13
REMARK    8  A    between atoms: O_13  and  C_14
REMARK    9  A    between atoms: C_14  and  C_15
REMARK   10  A    between atoms: C_16  and  C_17
REMARK   11  A    between atoms: C_16  and  N_71
REMARK   12  A    between atoms: C_17  and  C_18
REMARK   13  A    between atoms: C_23  and  C_24
REMARK   14  A    between atoms: C_25  and  C_26
REMARK   15  A    between atoms: C_25  and  N_71
REMARK   16  A    between atoms: C_32  and  C_38
REMARK                            x       y       z     vdW  Elec       q    Type
REMARK                         _______ _______ _______ _____ _____    ______ ____
ROOT
ATOM      1  N   UNL     1       2.262  -3.378   5.983  0.00  0.00    +0.389 N 
ATOM      2  H   UNL     1       2.979  -2.721   6.312  0.00  0.00    -0.080 HD
ENDROOT
BRANCH   1   3
ATOM      3  C   UNL     1       1.370  -3.720   7.111  0.00  0.00    +0.003 C 
BRANCH   3   4
ATOM      4  C   UNL     1       1.209  -2.502   7.983  0.00  0.00    +0.139 A 
ATOM      5  N   UNL     1       1.031  -1.268   7.578  0.00  0.00    -0.115 NA
ATOM      6  N   UNL     1       0.936  -0.517   8.621  0.00  0.00    -0.023 NA
ATOM      7  N   UNL     1       1.050  -1.240   9.680  0.00  0.00    -0.043 NA
ATOM      8  N   UNL     1       1.214  -2.471   9.329  0.00  0.00    -0.220 N 
BRANCH   8   9
ATOM      9  C   UNL     1       1.378  -3.618  10.225  0.00  0.00    +0.267 C 
BRANCH   9  10
ATOM     10  C   UNL     1       2.827  -3.744  10.619  0.00  0.00    +0.329 C 
ATOM     11  O   UNL     1       3.623  -2.904  10.272  0.00  0.00    -0.249 OA
BRANCH  10  12
ATOM     12  O   UNL     1       3.234  -4.789  11.357  0.00  0.00    -0.464 OA
BRANCH  12  13
ATOM     13  C   UNL     1       4.644  -4.845  11.699  0.00  0.00    +0.229 C 
ATOM     14  C   UNL     1       4.915  -6.098  12.535  0.00  0.00    +0.048 C 
ENDBRANCH  12  13
ENDBRANCH  10  12
ENDBRANCH   9  10
ENDBRANCH   8   9
ENDBRANCH   3   4
BRANCH   3  16
ATOM     15  C   UNL     1       0.155  -5.439   5.764  0.00  0.00    +0.002 C 
ATOM     16  C   UNL     1      -0.000  -4.162   6.593  0.00  0.00    -0.011 C 
ENDBRANCH   3  16
ENDBRANCH   1   3
BRANCH   1  17
ATOM     17  C   UNL     1       2.925  -4.598   5.476  0.00  0.00    -0.073 C 
BRANCH  17  18
ATOM     18  C   UNL     1       3.984  -5.039   6.488  0.00  0.00    +0.017 C 
BRANCH  18  19
ATOM     19  C   UNL     1       4.776  -6.188   5.919  0.00  0.00    -0.046 A 
ATOM     20  C   UNL     1       4.448  -7.488   6.255  0.00  0.00    +0.004 A 
ATOM     21  C   UNL     1       5.171  -8.542   5.729  0.00  0.00    +0.000 A 
ATOM     22  C   UNL     1       6.229  -8.295   4.874  0.00  0.00    +0.000 A 
ATOM     23  C   UNL     1       6.561  -6.995   4.542  0.00  0.00    +0.003 A 
ATOM     24  C   UNL     1       5.834  -5.942   5.064  0.00  0.00    -0.047 A 
ATOM     25  C   UNL     1       6.195  -4.524   4.701  0.00  0.00    +0.044 C 
ENDBRANCH  18  19
ENDBRANCH  17  18
ENDBRANCH   1  17
BRANCH   1  26
ATOM     26  C   UNL     1       1.485  -2.738   4.901  0.00  0.00    -0.037 C 
BRANCH  26  27
ATOM     27  C   UNL     1       2.444  -2.088   3.937  0.00  0.00    +0.001 A 
ATOM     28  C   UNL     1       2.830  -2.749   2.818  0.00  0.00    +0.017 A 
ATOM     29  C   UNL     1       3.762  -2.089   1.901  0.00  0.00    -0.001 A 
ATOM     30  C   UNL     1       4.197  -2.721   0.732  0.00  0.00    +0.010 A 
ATOM     31  C   UNL     1       5.067  -2.078  -0.102  0.00  0.00    +0.001 A 
ATOM     32  C   UNL     1       5.518  -0.800   0.197  0.00  0.00    +0.005 A 
ATOM     33  C   UNL     1       5.108  -0.160   1.347  0.00  0.00    -0.026 A 
ATOM     34  C   UNL     1       4.222  -0.796   2.212  0.00  0.00    +0.052 A 
ATOM     35  N   UNL     1       3.791  -0.177   3.366  0.00  0.00    -0.322 N 
ATOM     36  H   UNL     1       4.110   0.714   3.578  0.00  0.00    +0.169 HD
ATOM     37  C   UNL     1       2.935  -0.791   4.201  0.00  0.00    +0.251 A 
ATOM     38  O   UNL     1       2.575  -0.214   5.213  0.00  0.00    -0.268 OA
ATOM     39  C   UNL     1       5.612   1.224   1.663  0.00  0.00    +0.046 C 
ENDBRANCH  26  27
ENDBRANCH   1  26
TORSDOF 12
