REMARK  Name = ZINC38597732
REMARK  7 active torsions:
REMARK  status: ('A' for Active; 'I' for Inactive)
REMARK    1  A    between atoms: C_3  and  C_6
REMARK    2  A    between atoms: C_6  and  C_8
REMARK    3  A    between atoms: C_6  and  N_26
REMARK    4  A    between atoms: C_8  and  N_9
REMARK    5  A    between atoms: C_10  and  C_12
REMARK    6  A    between atoms: N_17  and  C_19
REMARK    7  A    between atoms: N_29  and  C_32
REMARK                            x       y       z     vdW  Elec       q    Type
REMARK                         _______ _______ _______ _____ _____    ______ ____
ROOT
ATOM      1  C   UNL     1       3.606   0.594   0.089  0.00  0.00    +0.017 C 
ENDROOT
BRANCH   1   2
ATOM      2  N   UNL     1       4.020  -0.349   1.137  0.00  0.00    +0.389 N 
ATOM      3  C   UNL     1       3.491  -1.684   0.829  0.00  0.00    -0.059 C 
ATOM      4  C   UNL     1       4.017  -2.690   1.858  0.00  0.00    +0.086 C 
ATOM      5  N   UNL     1       3.681  -2.200   3.204  0.00  0.00    -0.333 N 
ATOM      6  C   UNL     1       4.029  -0.812   3.543  0.00  0.00    +0.086 C 
ATOM      7  C   UNL     1       3.503   0.106   2.434  0.00  0.00    -0.059 C 
ATOM      8  H   UNL     1       5.027  -0.389   1.173  0.00  0.00    -0.081 HD
BRANCH   5   9
ATOM      9  C   UNL     1       3.048  -3.030   4.134  0.00  0.00    +0.030 A 
ATOM     10  C   UNL     1       2.843  -4.372   3.842  0.00  0.00    +0.026 A 
ATOM     11  C   UNL     1       2.218  -5.191   4.763  0.00  0.00    +0.040 A 
ATOM     12  C   UNL     1       1.796  -4.674   5.976  0.00  0.00    +0.124 A 
ATOM     13  C   UNL     1       1.999  -3.336   6.269  0.00  0.00    +0.040 A 
ATOM     14  C   UNL     1       2.628  -2.515   5.353  0.00  0.00    +0.026 A 
ATOM     15  F   UNL     1       1.185  -5.476   6.875  0.00  0.00    -0.205 F 
ENDBRANCH   5   9
ENDBRANCH   1   2
BRANCH   1  18
ATOM     16  C   UNL     1       0.045   1.546   0.080  0.00  0.00    +0.041 A 
ATOM     17  C   UNL     1       1.418   1.883   0.049  0.00  0.00    +0.043 A 
ATOM     18  C   UNL     1       2.105   0.728   0.099  0.00  0.00    +0.093 A 
ATOM     19  O   UNL     1       1.226  -0.286   0.158  0.00  0.00    -0.469 OA
ATOM     20  C   UNL     1      -0.024   0.204   0.147  0.00  0.00    +0.195 A 
ENDBRANCH   1  18
BRANCH   1  21
ATOM     21  C   UNL     1       4.063   0.073  -1.275  0.00  0.00    +0.096 C 
BRANCH  21  22
ATOM     22  N   UNL     1       5.509  -0.159  -1.250  0.00  0.00    -0.316 N 
ATOM     23  C   UNL     1       6.121  -0.718  -2.312  0.00  0.00    +0.218 C 
ATOM     24  O   UNL     1       5.473  -1.030  -3.290  0.00  0.00    -0.275 OA
ATOM     25  H   UNL     1       6.027   0.091  -0.468  0.00  0.00    +0.149 HD
BRANCH  23  26
ATOM     26  C   UNL     1       7.609  -0.956  -2.287  0.00  0.00    +0.101 C 
ATOM     27  C   UNL     1       7.986  -1.985  -1.196  0.00  0.00    +0.110 C 
ATOM     28  C   UNL     1       8.001  -3.310  -1.926  0.00  0.00    +0.221 C 
ATOM     29  O   UNL     1       7.976  -4.398  -1.390  0.00  0.00    -0.275 OA
ATOM     30  N   UNL     1       8.046  -3.106  -3.253  0.00  0.00    -0.271 N 
ATOM     31  C   UNL     1       8.076  -1.673  -3.573  0.00  0.00    +0.127 C 
BRANCH  30  32
ATOM     32  C   UNL     1       8.063  -4.129  -4.210  0.00  0.00    +0.036 A 
ATOM     33  C   UNL     1       7.899  -5.451  -3.817  0.00  0.00    +0.026 A 
ATOM     34  C   UNL     1       7.916  -6.458  -4.762  0.00  0.00    +0.040 A 
ATOM     35  C   UNL     1       8.097  -6.151  -6.100  0.00  0.00    +0.124 A 
ATOM     36  C   UNL     1       8.261  -4.833  -6.494  0.00  0.00    +0.040 A 
ATOM     37  C   UNL     1       8.238  -3.822  -5.553  0.00  0.00    +0.026 A 
ATOM     38  F   UNL     1       8.114  -7.137  -7.022  0.00  0.00    -0.205 F 
ENDBRANCH  30  32
ENDBRANCH  23  26
ENDBRANCH  21  22
ENDBRANCH   1  21
TORSDOF 7
