REMARK  Name = ZINC36316027
REMARK  17 active torsions:
REMARK  status: ('A' for Active; 'I' for Inactive)
REMARK    1  A    between atoms: C_1  and  C_2
REMARK    2  A    between atoms: C_5  and  O_8
REMARK    3  A    between atoms: O_8  and  C_9
REMARK    4  A    between atoms: C_10  and  C_21
REMARK    5  A    between atoms: C_11  and  C_15
REMARK    6  A    between atoms: N_13  and  C_14
REMARK    7  A    between atoms: C_21  and  N_22
REMARK    8  A    between atoms: N_22  and  C_23
REMARK    9  A    between atoms: N_22  and  C_36
REMARK   10  A    between atoms: C_23  and  C_24
REMARK   11  A    between atoms: C_24  and  C_26
REMARK   12  A    between atoms: C_24  and  O_35
REMARK   13  A    between atoms: C_26  and  O_27
REMARK   14  A    between atoms: O_27  and  C_28
REMARK   15  A    between atoms: C_33  and  C_34
REMARK   16  A    between atoms: C_36  and  C_37
REMARK   17  A    between atoms: C_36  and  C_38
REMARK                            x       y       z     vdW  Elec       q    Type
REMARK                         _______ _______ _______ _____ _____    ______ ____
ROOT
ATOM      1  C   UNL     1       0.925  -4.526   0.551  0.00  0.00    +0.221 A 
ATOM      2  C   UNL     1       0.347  -5.754   0.568  0.00  0.00    +0.025 A 
ATOM      3  C   UNL     1      -0.772  -5.692   1.420  0.00  0.00    +0.098 A 
ATOM      4  N   UNL     1      -0.858  -4.467   1.894  0.00  0.00    -0.168 NA
ATOM      5  N   UNL     1       0.201  -3.717   1.367  0.00  0.00    -0.235 N 
ATOM      6  C   UNL     1       0.477  -2.305   1.645  0.00  0.00    +0.176 C 
ENDROOT
BRANCH   3   7
ATOM      7  C   UNL     1      -1.695  -6.812   1.728  0.00  0.00    +0.002 A 
ATOM      8  C   UNL     1      -2.134  -7.657   0.711  0.00  0.00    +0.010 A 
ATOM      9  C   UNL     1      -2.993  -8.697   1.004  0.00  0.00    +0.001 A 
ATOM     10  C   UNL     1      -3.417  -8.902   2.304  0.00  0.00    +0.000 A 
ATOM     11  C   UNL     1      -2.984  -8.067   3.318  0.00  0.00    +0.001 A 
ATOM     12  C   UNL     1      -2.121  -7.027   3.038  0.00  0.00    +0.010 A 
ENDBRANCH   3   7
BRANCH   1  13
ATOM     13  O   UNL     1       2.031  -4.171  -0.151  0.00  0.00    -0.438 OA
BRANCH  13  18
ATOM     14  C   UNL     1       1.309  -1.876  -5.243  0.00  0.00    +0.044 C 
ATOM     15  C   UNL     1       1.502  -2.490  -3.880  0.00  0.00    -0.050 A 
ATOM     16  C   UNL     1       2.770  -2.576  -3.336  0.00  0.00    +0.007 A 
ATOM     17  C   UNL     1       2.950  -3.139  -2.087  0.00  0.00    +0.046 A 
ATOM     18  C   UNL     1       1.857  -3.617  -1.379  0.00  0.00    +0.130 A 
ATOM     19  C   UNL     1       0.585  -3.529  -1.927  0.00  0.00    +0.046 A 
ATOM     20  C   UNL     1       0.410  -2.961  -3.174  0.00  0.00    +0.007 A 
ENDBRANCH  13  18
ENDBRANCH   1  13
BRANCH   2  21
ATOM     21  C   UNL     1       0.820  -6.968  -0.189  0.00  0.00    -0.035 C 
BRANCH  21  22
ATOM     22  N   UNL     1       2.174  -7.325   0.254  0.00  0.00    +0.386 N 
ATOM     23  H   UNL     1       2.742  -6.493   0.305  0.00  0.00    -0.081 HD
BRANCH  22  24
ATOM     24  C   UNL     1       2.106  -7.954   1.580  0.00  0.00    -0.074 C 
ATOM     25  C   UNL     1       1.648  -6.920   2.611  0.00  0.00    -0.014 C 
ATOM     26  C   UNL     1       1.109  -9.114   1.544  0.00  0.00    -0.014 C 
ENDBRANCH  22  24
BRANCH  22  27
ATOM     27  C   UNL     1       2.771  -8.267  -0.703  0.00  0.00    -0.043 C 
BRANCH  27  28
ATOM     28  C   UNL     1       4.247  -8.475  -0.361  0.00  0.00    +0.135 C 
BRANCH  28  29
ATOM     29  O   UNL     1       4.354  -9.223   0.852  0.00  0.00    -0.390 OA
ATOM     30  H   UNL     1       4.019 -10.128   0.787  0.00  0.00    +0.210 HD
ENDBRANCH  28  29
BRANCH  28  31
ATOM     31  C   UNL     1       4.930  -9.242  -1.495  0.00  0.00    +0.258 C 
BRANCH  31  32
ATOM     32  O   UNL     1       6.332  -9.335  -1.231  0.00  0.00    -0.489 OA
BRANCH  32  33
ATOM     33  C   UNL     1       7.090  -9.991  -2.148  0.00  0.00    +0.124 A 
ATOM     34  C   UNL     1       6.499 -10.528  -3.283  0.00  0.00    +0.046 A 
ATOM     35  C   UNL     1       7.272 -11.194  -4.213  0.00  0.00    +0.004 A 
ATOM     36  C   UNL     1       8.634 -11.325  -4.016  0.00  0.00    +0.000 A 
ATOM     37  C   UNL     1       9.226 -10.790  -2.887  0.00  0.00    +0.007 A 
ATOM     38  C   UNL     1       8.458 -10.118  -1.955  0.00  0.00    -0.009 A 
ATOM     39  C   UNL     1       9.104  -9.530  -0.727  0.00  0.00    +0.047 C 
ENDBRANCH  32  33
ENDBRANCH  31  32
ENDBRANCH  28  31
ENDBRANCH  27  28
ENDBRANCH  22  27
ENDBRANCH  21  22
ENDBRANCH   2  21
TORSDOF 12
