REMARK  Name = ZINC05508632
REMARK  8 active torsions:
REMARK  status: ('A' for Active; 'I' for Inactive)
REMARK    1  A    between atoms: C_1  and  C_2
REMARK    2  A    between atoms: C_3  and  C_12
REMARK    3  A    between atoms: C_12  and  C_14
REMARK    4  A    between atoms: C_14  and  C_16
REMARK    5  A    between atoms: C_14  and  O_17
REMARK    6  A    between atoms: O_17  and  C_18
REMARK    7  A    between atoms: C_18  and  C_20
REMARK    8  A    between atoms: C_23  and  N_27
REMARK                            x       y       z     vdW  Elec       q    Type
REMARK                         _______ _______ _______ _____ _____    ______ ____
ROOT
ATOM      1  C   UNL     1       2.790   0.420  -0.150  0.00  0.00    +0.244 C 
ATOM      2  C   UNL     1       2.404  -0.307   1.140  0.00  0.00    +0.061 C 
ENDROOT
BRANCH   1   3
ATOM      3  C   UNL     1       2.465   1.885  -0.016  0.00  0.00    +0.205 C 
ATOM      4  O   UNL     1       3.349   2.684   0.215  0.00  0.00    -0.288 OA
BRANCH   3   7
ATOM      5  C   UNL     1       1.079   2.520  -2.715  0.00  0.00    +0.064 C 
ATOM      6  C   UNL     1       0.474   2.624  -1.338  0.00  0.00    +0.025 A 
ATOM      7  C   UNL     1       1.127   2.331  -0.160  0.00  0.00    +0.049 A 
ATOM      8  C   UNL     1       0.153   2.575   0.922  0.00  0.00    +0.011 A 
ATOM      9  C   UNL     1       0.201   2.466   2.308  0.00  0.00    +0.011 A 
ATOM     10  C   UNL     1      -0.914   2.780   3.056  0.00  0.00    +0.001 A 
ATOM     11  C   UNL     1      -2.078   3.202   2.432  0.00  0.00    +0.002 A 
ATOM     12  C   UNL     1      -2.139   3.314   1.060  0.00  0.00    +0.026 A 
ATOM     13  C   UNL     1      -1.024   3.002   0.288  0.00  0.00    +0.047 A 
ATOM     14  N   UNL     1      -0.784   3.022  -1.071  0.00  0.00    -0.358 N 
ATOM     15  H   UNL     1      -1.433   3.285  -1.742  0.00  0.00    +0.166 HD
ENDBRANCH   3   7
ENDBRANCH   1   3
BRANCH   1  16
ATOM     16  O   UNL     1       4.213   0.259  -0.389  0.00  0.00    -0.450 OA
BRANCH  16  17
ATOM     17  C   UNL     1       4.593  -0.808  -1.119  0.00  0.00    +0.341 C 
ATOM     18  O   UNL     1       3.759  -1.582  -1.543  0.00  0.00    -0.245 OA
BRANCH  17  19
ATOM     19  C   UNL     1       6.024  -1.035  -1.402  0.00  0.00    +0.077 A 
ATOM     20  C   UNL     1       6.986  -0.147  -0.916  0.00  0.00    +0.018 A 
ATOM     21  C   UNL     1       8.321  -0.365  -1.185  0.00  0.00    +0.033 A 
ATOM     22  C   UNL     1       8.710  -1.462  -1.935  0.00  0.00    +0.128 A 
ATOM     23  C   UNL     1       7.764  -2.347  -2.420  0.00  0.00    +0.053 A 
ATOM     24  C   UNL     1       6.424  -2.144  -2.154  0.00  0.00    +0.057 A 
ATOM     25 CL   UNL     1       5.238  -3.259  -2.757  0.00  0.00    -0.083 Cl
BRANCH  22  26
ATOM     26  N   UNL     1      10.144  -1.689  -2.218  0.00  0.00    +0.056 N 
ATOM     27  O   UNL     1      10.980  -0.911  -1.792  0.00  0.00    -0.126 OA
ATOM     28  O   UNL     1      10.490  -2.653  -2.878  0.00  0.00    -0.126 OA
ENDBRANCH  22  26
ENDBRANCH  17  19
ENDBRANCH  16  17
ENDBRANCH   1  16
TORSDOF 6
