REMARK  Name = ZINC42764540
REMARK  13 active torsions:
REMARK  status: ('A' for Active; 'I' for Inactive)
REMARK    1  A    between atoms: C_1  and  C_2
REMARK    2  A    between atoms: C_2  and  N_3
REMARK    3  A    between atoms: N_3  and  C_4
REMARK    4  A    between atoms: N_3  and  C_19
REMARK    5  A    between atoms: C_7  and  C_15
REMARK    6  A    between atoms: C_11  and  C_13
REMARK    7  A    between atoms: C_15  and  C_16
REMARK    8  A    between atoms: C_15  and  C_17
REMARK    9  A    between atoms: C_15  and  C_18
REMARK   10  A    between atoms: C_19  and  C_21
REMARK   11  A    between atoms: C_19  and  C_22
REMARK   12  A    between atoms: C_22  and  O_23
REMARK   13  A    between atoms: O_23  and  C_24
REMARK                            x       y       z     vdW  Elec       q    Type
REMARK                         _______ _______ _______ _____ _____    ______ ____
ROOT
ATOM      1  C   UNL     1      -1.807  -2.268  -0.116  0.00  0.00    -0.051 C 
ATOM      2  C   UNL     1      -1.636  -3.006   1.214  0.00  0.00    -0.010 C 
ATOM      3  C   UNL     1      -2.807  -2.667   2.139  0.00  0.00    -0.007 C 
ATOM      4  C   UNL     1      -4.119  -3.099   1.481  0.00  0.00    +0.005 C 
ATOM      5  C   UNL     1      -4.290  -2.362   0.151  0.00  0.00    +0.017 C 
ATOM      6  C   UNL     1      -3.119  -2.700  -0.774  0.00  0.00    +0.078 C 
ENDROOT
BRANCH   3   7
ATOM      7  C   UNL     1      -2.636  -3.405   3.469  0.00  0.00    -0.035 C 
ATOM      8  C   UNL     1      -1.324  -2.973   4.127  0.00  0.00    +0.011 C 
ATOM      9  C   UNL     1      -3.807  -3.066   4.394  0.00  0.00    +0.011 C 
ATOM     10  C   UNL     1      -2.606  -4.913   3.215  0.00  0.00    +0.011 C 
ENDBRANCH   3   7
BRANCH   1  11
ATOM     11  N   UNL     1      -1.835  -0.820   0.128  0.00  0.00    +0.385 N 
ATOM     12  H   UNL     1      -2.537  -0.609   0.822  0.00  0.00    -0.081 HD
BRANCH  11  14
ATOM     13  C   UNL     1      -0.671   0.948   1.359  0.00  0.00    -0.017 C 
ATOM     14  C   UNL     1      -0.521  -0.379   0.612  0.00  0.00    -0.081 C 
ENDBRANCH  11  14
BRANCH  11  15
ATOM     15  C   UNL     1      -2.157  -0.119  -1.122  0.00  0.00    -0.045 C 
ATOM     16  C   UNL     1      -2.030   1.391  -0.908  0.00  0.00    -0.011 C 
BRANCH  15  17
ATOM     17  C   UNL     1      -1.187  -0.562  -2.219  0.00  0.00    +0.144 C 
BRANCH  17  18
ATOM     18  O   UNL     1       0.085   0.055  -2.007  0.00  0.00    -0.385 OA
ATOM     19  C   UNL     1       1.070  -0.294  -2.982  0.00  0.00    +0.193 C 
ENDBRANCH  17  18
ENDBRANCH  15  17
ENDBRANCH  11  15
ENDBRANCH   1  11
BRANCH   6  20
ATOM     20  C   UNL     1      -3.090  -4.152  -1.018  0.00  0.00    +0.064 C 
ATOM     21  N   UNL     1      -3.068  -5.272  -1.207  0.00  0.00    -0.196 NA
ENDBRANCH   6  20
TORSDOF 7
