REMARK  Name = ZINC63491622
REMARK  9 active torsions:
REMARK  status: ('A' for Active; 'I' for Inactive)
REMARK    1  A    between atoms: C_1  and  C_2
REMARK    2  A    between atoms: C_4  and  C_35
REMARK    3  A    between atoms: N_5  and  C_7
REMARK    4  A    between atoms: C_7  and  C_8
REMARK    5  A    between atoms: C_8  and  C_9
REMARK    6  A    between atoms: N_19  and  C_24
REMARK    7  A    between atoms: C_24  and  C_25
REMARK    8  A    between atoms: N_27  and  C_28
REMARK    9  A    between atoms: C_31  and  C_34
REMARK                            x       y       z     vdW  Elec       q    Type
REMARK                         _______ _______ _______ _____ _____    ______ ____
ROOT
ATOM      1  C   UNL     1       1.525  -4.907   2.662  0.00  0.00    +0.088 C 
ATOM      2  N   UNL     1       1.526  -4.872   3.962  0.00  0.00    -0.352 N 
ATOM      3  C   UNL     1       1.545  -6.265   4.432  0.00  0.00    +0.224 C 
ATOM      4  C   UNL     1       0.713  -6.385   5.682  0.00  0.00    +0.016 A 
ATOM      5  C   UNL     1       0.893  -5.551   6.760  0.00  0.00    +0.009 A 
ATOM      6  C   UNL     1       0.100  -5.703   7.885  0.00  0.00    +0.001 A 
ATOM      7  C   UNL     1      -0.867  -6.691   7.921  0.00  0.00    +0.002 A 
ATOM      8  C   UNL     1      -1.050  -7.530   6.840  0.00  0.00    +0.024 A 
ATOM      9  C   UNL     1      -0.259  -7.383   5.708  0.00  0.00    +0.045 A 
ATOM     10  N   UNL     1      -0.432  -8.224   4.606  0.00  0.00    -0.245 N 
ATOM     11  C   UNL     1       0.188  -8.015   3.429  0.00  0.00    +0.328 C 
ATOM     12  O   UNL     1      -0.006  -8.790   2.512  0.00  0.00    -0.250 OA
ATOM     13  N   UNL     1       1.021  -6.986   3.239  0.00  0.00    -0.178 N 
ATOM     14  N   UNL     1       1.541  -6.207   2.199  0.00  0.00    -0.248 N 
ATOM     15  H   UNL     1       1.849  -6.518   1.333  0.00  0.00    +0.172 HD
ATOM     16  H   UNL     1       1.516  -4.077   4.518  0.00  0.00    +0.163 HD
ENDROOT
BRANCH   1  17
ATOM     17  C   UNL     1       1.504  -3.688   1.777  0.00  0.00    +0.094 C 
BRANCH  17  18
ATOM     18  C   UNL     1       0.055  -3.295   1.485  0.00  0.00    +0.151 C 
BRANCH  18  23
ATOM     19  C   UNL     1      -0.018   1.503   0.010  0.00  0.00    +0.067 C 
ATOM     20  C   UNL     1       0.002  -0.004   0.002  0.00  0.00    +0.060 A 
ATOM     21  C   UNL     1       0.008  -0.818  -1.135  0.00  0.00    +0.047 A 
ATOM     22  C   UNL     1       0.028  -2.107  -0.725  0.00  0.00    +0.036 A 
ATOM     23  N   UNL     1       0.034  -2.109   0.625  0.00  0.00    -0.268 N 
ATOM     24  N   UNL     1       0.023  -0.777   1.058  0.00  0.00    -0.176 NA
ATOM     25  C   UNL     1       0.040  -3.323  -1.615  0.00  0.00    +0.065 C 
ENDBRANCH  18  23
ENDBRANCH  17  18
ENDBRANCH   1  17
BRANCH  10  26
ATOM     26  C   UNL     1      -1.322  -9.380   4.737  0.00  0.00    +0.211 C 
BRANCH  26  27
ATOM     27  C   UNL     1      -2.722  -8.982   4.347  0.00  0.00    +0.233 C 
ATOM     28  O   UNL     1      -2.954  -7.845   3.995  0.00  0.00    -0.274 OA
ATOM     29  N   UNL     1      -3.717  -9.890   4.390  0.00  0.00    -0.288 N 
ATOM     30  H   UNL     1      -3.532 -10.800   4.671  0.00  0.00    +0.151 HD
BRANCH  29  31
ATOM     31  C   UNL     1      -5.079  -9.503   4.011  0.00  0.00    +0.239 C 
ATOM     32  C   UNL     1      -5.724 -10.579   3.156  0.00  0.00    +0.045 C 
ATOM     33  C   UNL     1      -6.778 -10.972   3.875  0.00  0.00    +0.060 C 
ATOM     34  N   UNL     1      -6.851 -10.283   5.035  0.00  0.00    -0.157 NA
ATOM     35  N   UNL     1      -5.953  -9.447   5.195  0.00  0.00    -0.160 NA
ATOM     36  C   UNL     1      -7.754 -12.039   3.450  0.00  0.00    +0.067 C 
ENDBRANCH  29  31
ENDBRANCH  26  27
ENDBRANCH  10  26
TORSDOF 6
