REMARK  Name = ZINC37361668
REMARK  6 active torsions:
REMARK  status: ('A' for Active; 'I' for Inactive)
REMARK    1  A    between atoms: C_1  and  C_2
REMARK    2  A    between atoms: C_2  and  C_3
REMARK    3  A    between atoms: C_2  and  N_4
REMARK    4  A    between atoms: C_12  and  C_27
REMARK    5  A    between atoms: C_14  and  N_26
REMARK    6  A    between atoms: N_15  and  C_19
REMARK                            x       y       z     vdW  Elec       q    Type
REMARK                         _______ _______ _______ _____ _____    ______ ____
ROOT
ATOM      1  N   UNL     1      -0.612  -0.635  -1.235  0.00  0.00    +0.383 N 
ATOM      2  C   UNL     1      -1.619  -0.105  -2.163  0.00  0.00    -0.059 C 
ATOM      3  C   UNL     1      -3.016  -0.519  -1.690  0.00  0.00    +0.089 C 
ATOM      4  N   UNL     1      -3.042  -1.982  -1.536  0.00  0.00    -0.303 N 
ATOM      5  C   UNL     1      -1.970  -2.616  -0.753  0.00  0.00    +0.089 C 
ATOM      6  C   UNL     1      -0.622  -2.103  -1.271  0.00  0.00    -0.059 C 
ATOM      7  C   UNL     1      -4.046  -2.740  -2.111  0.00  0.00    +0.220 A 
ATOM      8  N   UNL     1      -4.019  -4.058  -1.933  0.00  0.00    -0.214 NA
ATOM      9  C   UNL     1      -4.942  -4.859  -2.450  0.00  0.00    +0.089 A 
ATOM     10  C   UNL     1      -5.982  -4.278  -3.211  0.00  0.00    +0.086 A 
ATOM     11  C   UNL     1      -7.097  -4.748  -3.894  0.00  0.00    +0.131 A 
ATOM     12  N   UNL     1      -7.718  -3.683  -4.437  0.00  0.00    -0.216 N 
ATOM     13  N   UNL     1      -7.023  -2.511  -4.117  0.00  0.00    -0.144 NA
ATOM     14  C   UNL     1      -5.974  -2.814  -3.383  0.00  0.00    +0.189 A 
ATOM     15  N   UNL     1      -4.979  -2.117  -2.801  0.00  0.00    -0.193 NA
ATOM     16  H   UNL     1      -0.822  -0.321  -0.300  0.00  0.00    -0.081 HD
ENDROOT
BRANCH   9  17
ATOM     17  C   UNL     1      -4.885  -6.322  -2.234  0.00  0.00    +0.003 A 
ATOM     18  C   UNL     1      -5.069  -7.195  -3.307  0.00  0.00    +0.013 A 
ATOM     19  C   UNL     1      -5.015  -8.557  -3.102  0.00  0.00    +0.040 A 
ATOM     20  C   UNL     1      -4.778  -9.061  -1.833  0.00  0.00    +0.142 A 
ATOM     21  C   UNL     1      -4.594  -8.197  -0.762  0.00  0.00    +0.077 A 
ATOM     22  C   UNL     1      -4.640  -6.832  -0.959  0.00  0.00    +0.033 A 
ATOM     23 CL   UNL     1      -4.297  -8.835   0.825  0.00  0.00    -0.081 Cl
ATOM     24  F   UNL     1      -4.727 -10.396  -1.637  0.00  0.00    -0.204 F 
ENDBRANCH   9  17
BRANCH  12  25
ATOM     25  C   UNL     1      -8.887  -3.739  -5.207  0.00  0.00    +0.068 A 
ATOM     26  C   UNL     1      -9.111  -4.819  -6.052  0.00  0.00    +0.030 A 
ATOM     27  C   UNL     1     -10.264  -4.872  -6.810  0.00  0.00    +0.040 A 
ATOM     28  C   UNL     1     -11.196  -3.851  -6.729  0.00  0.00    +0.124 A 
ATOM     29  C   UNL     1     -10.974  -2.774  -5.887  0.00  0.00    +0.040 A 
ATOM     30  C   UNL     1      -9.826  -2.719  -5.122  0.00  0.00    +0.030 A 
ATOM     31  F   UNL     1     -12.323  -3.905  -7.472  0.00  0.00    -0.205 F 
ENDBRANCH  12  25
BRANCH   1  33
ATOM     32  C   UNL     1       0.730   1.383  -1.591  0.00  0.00    -0.014 C 
ATOM     33  C   UNL     1       0.717  -0.146  -1.627  0.00  0.00    -0.075 C 
ATOM     34  C   UNL     1       1.767  -0.688  -0.654  0.00  0.00    -0.014 C 
ENDBRANCH   1  33
BRANCH  11  35
ATOM     35  N   UNL     1      -7.495  -6.068  -3.999  0.00  0.00    -0.342 N 
ATOM     36  H   UNL     1      -7.072  -6.747  -3.450  0.00  0.00    +0.144 HD
ATOM     37  H   UNL     1      -8.197  -6.314  -4.621  0.00  0.00    +0.144 HD
ENDBRANCH  11  35
TORSDOF 4
