REMARK  Name = ZINC00826789
REMARK  10 active torsions:
REMARK  status: ('A' for Active; 'I' for Inactive)
REMARK    1  A    between atoms: C_1  and  C_2
REMARK    2  A    between atoms: C_7  and  N_8
REMARK    3  A    between atoms: N_8  and  S_9
REMARK    4  A    between atoms: S_9  and  C_12
REMARK    5  A    between atoms: C_15  and  O_18
REMARK    6  A    between atoms: O_18  and  C_19
REMARK    7  A    between atoms: C_22  and  S_25
REMARK    8  A    between atoms: S_25  and  N_28
REMARK    9  A    between atoms: N_28  and  C_29
REMARK   10  A    between atoms: C_34  and  C_35
REMARK                            x       y       z     vdW  Elec       q    Type
REMARK                         _______ _______ _______ _____ _____    ______ ____
ROOT
ATOM      1  O   UNL     1      -1.656   5.115  -3.497  0.00  0.00    -0.456 OA
ENDROOT
BRANCH   1   5
ATOM      2  C   UNL     1      -0.025   3.571  -0.037  0.00  0.00    +0.109 A 
ATOM      3  C   UNL     1       0.549   3.280  -1.260  0.00  0.00    +0.032 A 
ATOM      4  C   UNL     1       0.003   3.792  -2.421  0.00  0.00    +0.048 A 
ATOM      5  C   UNL     1      -1.119   4.607  -2.357  0.00  0.00    +0.129 A 
ATOM      6  C   UNL     1      -1.690   4.902  -1.127  0.00  0.00    +0.048 A 
ATOM      7  C   UNL     1      -1.142   4.383   0.030  0.00  0.00    +0.032 A 
BRANCH   2   8
ATOM      8  S   UNL     1       0.671   2.911   1.441  0.00  0.00    +0.072 S 
ATOM      9  O   UNL     1       0.279   3.778   2.497  0.00  0.00    -0.150 OA
ATOM     10  O   UNL     1       2.034   2.626   1.156  0.00  0.00    -0.150 OA
BRANCH   8  11
ATOM     11  N   UNL     1      -0.067   1.456   1.724  0.00  0.00    -0.216 N 
ATOM     12  H   UNL     1      -0.570   1.318   2.542  0.00  0.00    +0.174 HD
BRANCH  11  19
ATOM     13  C   UNL     1      -2.322  -0.237   1.351  0.00  0.00    +0.046 C 
ATOM     14  C   UNL     1      -1.049  -0.421   0.567  0.00  0.00    -0.028 A 
ATOM     15  C   UNL     1      -0.951  -1.435  -0.366  0.00  0.00    +0.005 A 
ATOM     16  C   UNL     1       0.217  -1.603  -1.087  0.00  0.00    +0.000 A 
ATOM     17  C   UNL     1       1.291  -0.758  -0.876  0.00  0.00    +0.002 A 
ATOM     18  C   UNL     1       1.198   0.261   0.052  0.00  0.00    +0.025 A 
ATOM     19  C   UNL     1       0.028   0.430   0.781  0.00  0.00    +0.051 A 
ENDBRANCH  11  19
ENDBRANCH   8  11
ENDBRANCH   2   8
ENDBRANCH   1   5
BRANCH   1  20
ATOM     20  C   UNL     1      -1.423   6.423  -3.784  0.00  0.00    +0.129 A 
ATOM     21  C   UNL     1      -0.742   7.223  -2.878  0.00  0.00    +0.048 A 
ATOM     22  C   UNL     1      -0.501   8.550  -3.175  0.00  0.00    +0.032 A 
ATOM     23  C   UNL     1      -0.949   9.085  -4.369  0.00  0.00    +0.109 A 
ATOM     24  C   UNL     1      -1.633   8.291  -5.271  0.00  0.00    +0.032 A 
ATOM     25  C   UNL     1      -1.871   6.962  -4.982  0.00  0.00    +0.048 A 
BRANCH  23  26
ATOM     26  S   UNL     1      -0.646  10.780  -4.741  0.00  0.00    +0.072 S 
ATOM     27  O   UNL     1       0.488  11.168  -3.978  0.00  0.00    -0.150 OA
ATOM     28  O   UNL     1      -0.689  10.899  -6.157  0.00  0.00    -0.150 OA
BRANCH  26  29
ATOM     29  N   UNL     1      -1.930  11.647  -4.155  0.00  0.00    -0.216 N 
ATOM     30  H   UNL     1      -2.473  12.178  -4.759  0.00  0.00    +0.174 HD
BRANCH  29  31
ATOM     31  C   UNL     1      -2.232  11.612  -2.792  0.00  0.00    +0.051 A 
ATOM     32  C   UNL     1      -1.214  11.465  -1.857  0.00  0.00    +0.025 A 
ATOM     33  C   UNL     1      -1.516  11.435  -0.510  0.00  0.00    +0.002 A 
ATOM     34  C   UNL     1      -2.830  11.543  -0.091  0.00  0.00    +0.000 A 
ATOM     35  C   UNL     1      -3.845  11.685  -1.019  0.00  0.00    +0.005 A 
ATOM     36  C   UNL     1      -3.550  11.720  -2.368  0.00  0.00    -0.028 A 
ATOM     37  C   UNL     1      -4.657  11.874  -3.378  0.00  0.00    +0.046 C 
ENDBRANCH  29  31
ENDBRANCH  26  29
ENDBRANCH  23  26
ENDBRANCH   1  20
TORSDOF 8
