REMARK  Name = ZINC31973000
REMARK  5 active torsions:
REMARK  status: ('A' for Active; 'I' for Inactive)
REMARK    1  A    between atoms: C_1  and  C_2
REMARK    2  A    between atoms: C_7  and  C_16
REMARK    3  A    between atoms: C_8  and  C_11
REMARK    4  A    between atoms: C_11  and  C_12
REMARK    5  A    between atoms: C_12  and  C_13
REMARK                            x       y       z     vdW  Elec       q    Type
REMARK                         _______ _______ _______ _____ _____    ______ ____
ROOT
ATOM      1  C   UNL     1      -4.485  -1.329  -1.696  0.00  0.00    +0.045 C 
ATOM      2  C   UNL     1      -3.073  -1.606  -1.250  0.00  0.00    -0.034 A 
ATOM      3  C   UNL     1      -2.539  -2.898  -1.383  0.00  0.00    +0.008 A 
ATOM      4  C   UNL     1      -1.264  -3.145  -0.980  0.00  0.00    +0.045 A 
ATOM      5  C   UNL     1      -0.497  -2.096  -0.432  0.00  0.00    +0.116 A 
ATOM      6  N   UNL     1       0.743  -2.051   0.034  0.00  0.00    -0.339 N 
ATOM      7  C   UNL     1       1.013  -0.802   0.446  0.00  0.00    +0.068 A 
ATOM      8  C   UNL     1      -0.095  -0.036   0.241  0.00  0.00    +0.049 A 
ATOM      9  N   UNL     1      -1.046  -0.845  -0.314  0.00  0.00    -0.304 N 
ATOM     10  C   UNL     1      -2.328  -0.612  -0.723  0.00  0.00    +0.096 A 
ATOM     11  H   UNL     1       1.364  -2.959   0.034  0.00  0.00    +0.167 HD
ENDROOT
BRANCH   7  12
ATOM     12  C   UNL     1       2.297  -0.337   1.026  0.00  0.00    +0.004 A 
ATOM     13  C   UNL     1       2.957  -1.117   1.974  0.00  0.00    +0.014 A 
ATOM     14  C   UNL     1       4.151  -0.683   2.514  0.00  0.00    +0.050 A 
ATOM     15  C   UNL     1       4.697   0.527   2.116  0.00  0.00    +0.166 A 
ATOM     16  C   UNL     1       4.041   1.310   1.168  0.00  0.00    +0.167 A 
ATOM     17  C   UNL     1       2.847   0.877   0.621  0.00  0.00    +0.059 A 
ATOM     18  O   UNL     1       4.777   2.440   0.951  0.00  0.00    -0.453 OA
ATOM     19  C   UNL     1       6.089   2.150   1.468  0.00  0.00    +0.466 C 
ATOM     20  O   UNL     1       5.843   1.167   2.491  0.00  0.00    -0.453 OA
ENDBRANCH   7  12
BRANCH   8  21
ATOM     21  C   UNL     1      -0.241   1.430   0.561  0.00  0.00    +0.067 C 
BRANCH  21  22
ATOM     22  C   UNL     1      -0.887   1.589   1.939  0.00  0.00    +0.131 C 
BRANCH  22  23
ATOM     23  C   UNL     1      -1.033   3.055   2.258  0.00  0.00    +0.356 C 
ATOM     24  O   UNL     1      -0.659   3.886   1.465  0.00  0.00    -0.246 OA
ATOM     25  O   UNL     1      -1.579   3.436   3.424  0.00  0.00    -0.246 OA
ENDBRANCH  22  23
ENDBRANCH  21  22
ENDBRANCH   8  21
TORSDOF 4
