REMARK  Name = ZINC34906449
REMARK  11 active torsions:
REMARK  status: ('A' for Active; 'I' for Inactive)
REMARK    1  A    between atoms: C_1  and  C_2
REMARK    2  A    between atoms: C_5  and  S_8
REMARK    3  A    between atoms: S_8  and  N_11
REMARK    4  A    between atoms: N_11  and  C_12
REMARK    5  A    between atoms: C_18  and  N_20
REMARK    6  A    between atoms: C_21  and  C_23
REMARK    7  A    between atoms: C_26  and  C_28
REMARK    8  A    between atoms: C_28  and  O_29
REMARK    9  A    between atoms: O_29  and  C_30
REMARK   10  A    between atoms: C_32  and  C_37
REMARK   11  A    between atoms: C_34  and  C_36
REMARK                            x       y       z     vdW  Elec       q    Type
REMARK                         _______ _______ _______ _____ _____    ______ ____
ROOT
ATOM      1  N   UNL     1       4.456  -5.566  -0.092  0.00  0.00    -0.306 N 
ATOM      2  C   UNL     1       5.420  -5.410  -1.021  0.00  0.00    +0.263 C 
ATOM      3  O   UNL     1       5.853  -4.300  -1.267  0.00  0.00    -0.269 OA
ATOM      4  H   UNL     1       4.110  -6.451   0.105  0.00  0.00    +0.149 HD
ENDROOT
BRANCH   1  10
ATOM      5  C   UNL     1       2.512  -4.699   1.113  0.00  0.00    +0.097 C 
ATOM      6  C   UNL     1       2.542  -5.903   2.056  0.00  0.00    +0.022 C 
ATOM      7  C   UNL     1       3.441  -5.589   3.254  0.00  0.00    +0.002 C 
ATOM      8  C   UNL     1       4.859  -5.290   2.763  0.00  0.00    +0.002 C 
ATOM      9  C   UNL     1       4.828  -4.086   1.819  0.00  0.00    +0.024 C 
ATOM     10  C   UNL     1       3.929  -4.400   0.621  0.00  0.00    +0.092 C 
BRANCH   5  11
ATOM     11  N   UNL     1       1.651  -4.999  -0.034  0.00  0.00    -0.185 NA
ATOM     12  H   UNL     1       2.011  -5.473  -0.800  0.00  0.00    +0.148 HD
BRANCH  11  13
ATOM     13  S   UNL     1       0.063  -4.530  -0.023  0.00  0.00    +0.059 S 
ATOM     14  O   UNL     1      -0.476  -4.950   1.223  0.00  0.00    -0.153 OA
ATOM     15  O   UNL     1      -0.490  -4.937  -1.267  0.00  0.00    -0.153 OA
BRANCH  13  20
ATOM     16  C   UNL     1      -0.018   1.503   0.010  0.00  0.00    +0.044 C 
ATOM     17  C   UNL     1       0.002  -0.004   0.002  0.00  0.00    -0.050 A 
ATOM     18  C   UNL     1       0.006  -0.689  -1.199  0.00  0.00    +0.005 A 
ATOM     19  C   UNL     1       0.025  -2.071  -1.206  0.00  0.00    +0.029 A 
ATOM     20  C   UNL     1       0.040  -2.768  -0.013  0.00  0.00    +0.105 A 
ATOM     21  C   UNL     1       0.037  -2.084   1.188  0.00  0.00    +0.029 A 
ATOM     22  C   UNL     1       0.023  -0.702   1.195  0.00  0.00    +0.005 A 
ENDBRANCH  13  20
ENDBRANCH  11  13
ENDBRANCH   5  11
ENDBRANCH   1  10
BRANCH   2  23
ATOM     23  C   UNL     1       5.948  -6.583  -1.738  0.00  0.00    +0.133 A 
ATOM     24  C   UNL     1       6.931  -6.471  -2.685  0.00  0.00    +0.080 A 
ATOM     25  S   UNL     1       7.150  -8.065  -3.168  0.00  0.00    -0.076 S 
ATOM     26  C   UNL     1       6.016  -8.807  -2.178  0.00  0.00    +0.116 A 
ATOM     27  N   UNL     1       5.501  -7.819  -1.498  0.00  0.00    -0.236 NA
BRANCH  26  28
ATOM     28  C   UNL     1       5.677 -10.273  -2.090  0.00  0.00    +0.291 C 
BRANCH  28  29
ATOM     29  O   UNL     1       4.632 -10.576  -3.017  0.00  0.00    -0.485 OA
BRANCH  29  30
ATOM     30  C   UNL     1       4.204 -11.865  -3.064  0.00  0.00    +0.122 A 
ATOM     31  C   UNL     1       4.775 -12.818  -2.232  0.00  0.00    +0.049 A 
ATOM     32  C   UNL     1       4.338 -14.127  -2.282  0.00  0.00    -0.047 A 
ATOM     33  C   UNL     1       3.334 -14.489  -3.161  0.00  0.00    +0.007 A 
ATOM     34  C   UNL     1       2.764 -13.542  -3.992  0.00  0.00    -0.047 A 
ATOM     35  C   UNL     1       3.193 -12.230  -3.941  0.00  0.00    +0.049 A 
ATOM     36  C   UNL     1       1.670 -13.940  -4.949  0.00  0.00    +0.044 C 
ATOM     37  C   UNL     1       4.957 -15.162  -1.379  0.00  0.00    +0.044 C 
ENDBRANCH  29  30
ENDBRANCH  28  29
ENDBRANCH  26  28
ENDBRANCH   2  23
TORSDOF 8
