REMARK  Name = ZINC56159740
REMARK  11 active torsions:
REMARK  status: ('A' for Active; 'I' for Inactive)
REMARK    1  A    between atoms: C_1  and  C_2
REMARK    2  A    between atoms: C_5  and  C_31
REMARK    3  A    between atoms: C_6  and  N_8
REMARK    4  A    between atoms: C_9  and  C_11
REMARK    5  A    between atoms: C_11  and  C_13
REMARK    6  A    between atoms: C_11  and  N_14
REMARK    7  A    between atoms: N_14  and  C_15
REMARK    8  A    between atoms: C_15  and  C_17
REMARK    9  A    between atoms: C_15  and  C_18
REMARK   10  A    between atoms: C_21  and  N_24
REMARK   11  A    between atoms: N_27  and  C_28
REMARK                            x       y       z     vdW  Elec       q    Type
REMARK                         _______ _______ _______ _____ _____    ______ ____
ROOT
ATOM      1  N   UNL     1       0.396  -1.954   5.974  0.00  0.00    +0.391 N 
ATOM      2  H   UNL     1       1.155  -1.308   5.814  0.00  0.00    -0.084 HD
ATOM      3  H   UNL     1      -0.470  -1.442   6.049  0.00  0.00    -0.084 HD
ENDROOT
BRANCH   1   4
ATOM      4  C   UNL     1       0.311  -2.897   4.851  0.00  0.00    +0.014 C 
ATOM      5  C   UNL     1      -0.914  -3.795   5.031  0.00  0.00    -0.004 C 
BRANCH   4   7
ATOM      6  N   UNL     1       0.095  -2.793   2.389  0.00  0.00    -0.287 N 
ATOM      7  C   UNL     1       0.187  -2.131   3.559  0.00  0.00    +0.203 C 
ATOM      8  O   UNL     1       0.171  -0.918   3.572  0.00  0.00    -0.277 OA
ATOM      9  H   UNL     1       0.027  -3.761   2.384  0.00  0.00    +0.155 HD
BRANCH   6  15
ATOM     10  C   UNL     1       1.320   1.232  -0.154  0.00  0.00    +0.044 C 
ATOM     11  C   UNL     1       0.683  -0.132  -0.079  0.00  0.00    -0.049 A 
ATOM     12  C   UNL     1       0.099  -0.685  -1.204  0.00  0.00    +0.004 A 
ATOM     13  C   UNL     1      -0.486  -1.936  -1.139  0.00  0.00    +0.005 A 
ATOM     14  C   UNL     1      -0.489  -2.637   0.051  0.00  0.00    -0.029 A 
ATOM     15  C   UNL     1       0.097  -2.085   1.182  0.00  0.00    +0.036 A 
ATOM     16  C   UNL     1       0.688  -0.831   1.112  0.00  0.00    +0.027 A 
ATOM     17  C   UNL     1      -1.127  -4.001   0.120  0.00  0.00    +0.045 C 
ENDBRANCH   6  15
ENDBRANCH   4   7
ENDBRANCH   1   4
BRANCH   1  18
ATOM     18  C   UNL     1       0.637  -2.695   7.219  0.00  0.00    -0.043 C 
ATOM     19  C   UNL     1       2.008  -3.370   7.154  0.00  0.00    -0.009 C 
BRANCH  18  20
ATOM     20  C   UNL     1       0.601  -1.742   8.386  0.00  0.00    -0.062 A 
ATOM     21  C   UNL     1       1.170  -0.487   8.269  0.00  0.00    +0.004 A 
ATOM     22  C   UNL     1       1.139   0.389   9.336  0.00  0.00    +0.023 A 
ATOM     23  C   UNL     1       0.536   0.009  10.528  0.00  0.00    +0.035 A 
ATOM     24  C   UNL     1      -0.034  -1.252  10.642  0.00  0.00    +0.023 A 
ATOM     25  C   UNL     1      -0.005  -2.122   9.569  0.00  0.00    +0.004 A 
BRANCH  23  26
ATOM     26  N   UNL     1       0.504   0.894  11.611  0.00  0.00    -0.269 N 
ATOM     27  C   UNL     1       0.370   2.217  11.396  0.00  0.00    +0.304 C 
ATOM     28  O   UNL     1       0.365   2.651  10.261  0.00  0.00    -0.253 OA
ATOM     29  N   UNL     1       0.242   3.060  12.440  0.00  0.00    -0.296 N 
ATOM     30  H   UNL     1       0.578   0.554  12.517  0.00  0.00    +0.156 HD
ATOM     31  H   UNL     1       0.247   2.714  13.347  0.00  0.00    +0.151 HD
BRANCH  29  32
ATOM     32  C   UNL     1       0.097   4.499  12.207  0.00  0.00    +0.075 C 
ATOM     33  C   UNL     1       0.906   5.444  13.097  0.00  0.00    +0.024 C 
ATOM     34  C   UNL     1      -0.607   5.322  13.287  0.00  0.00    +0.024 C 
ENDBRANCH  29  32
ENDBRANCH  23  26
ENDBRANCH  18  20
ENDBRANCH   1  18
TORSDOF 7
