REMARK  Name = ZINC10731650
REMARK  11 active torsions:
REMARK  status: ('A' for Active; 'I' for Inactive)
REMARK    1  A    between atoms: C_1  and  C_2
REMARK    2  A    between atoms: C_5  and  N_8
REMARK    3  A    between atoms: C_9  and  C_29
REMARK    4  A    between atoms: C_12  and  S_13
REMARK    5  A    between atoms: S_13  and  C_14
REMARK    6  A    between atoms: C_14  and  C_16
REMARK    7  A    between atoms: C_14  and  C_17
REMARK    8  A    between atoms: N_19  and  C_20
REMARK    9  A    between atoms: C_22  and  C_28
REMARK   10  A    between atoms: C_25  and  O_26
REMARK   11  A    between atoms: O_26  and  C_27
REMARK                            x       y       z     vdW  Elec       q    Type
REMARK                         _______ _______ _______ _____ _____    ______ ____
ROOT
ATOM      1  N   UNL     1      -8.869  -0.218   0.627  0.00  0.00    -0.270 N 
ATOM      2  C   UNL     1      -9.551   0.975   0.528  0.00  0.00    +0.169 A 
ATOM      3  N   UNL     1      -8.675   1.893   0.190  0.00  0.00    -0.128 NA
ATOM      4  N   UNL     1      -7.509   1.367   0.077  0.00  0.00    -0.122 NA
ATOM      5  C   UNL     1      -7.568   0.077   0.327  0.00  0.00    +0.197 A 
ENDROOT
BRANCH   1  10
ATOM      6  C   UNL     1     -11.009  -5.294   1.994  0.00  0.00    +0.044 C 
ATOM      7  C   UNL     1     -10.441  -3.946   1.631  0.00  0.00    -0.050 A 
ATOM      8  C   UNL     1      -9.601  -3.291   2.513  0.00  0.00    +0.005 A 
ATOM      9  C   UNL     1      -9.079  -2.055   2.183  0.00  0.00    +0.026 A 
ATOM     10  C   UNL     1      -9.397  -1.471   0.965  0.00  0.00    +0.051 A 
ATOM     11  C   UNL     1     -10.245  -2.129   0.084  0.00  0.00    +0.026 A 
ATOM     12  C   UNL     1     -10.760  -3.367   0.417  0.00  0.00    +0.005 A 
ENDBRANCH   1  10
BRANCH   2  13
ATOM     13  C   UNL     1     -10.996   1.183   0.760  0.00  0.00    +0.022 A 
ATOM     14  C   UNL     1     -11.639   2.340   0.305  0.00  0.00    +0.031 A 
ATOM     15  C   UNL     1     -12.990   2.490   0.539  0.00  0.00    +0.111 A 
ATOM     16  N   UNL     1     -13.671   1.567   1.190  0.00  0.00    -0.263 NA
ATOM     17  C   UNL     1     -13.103   0.464   1.641  0.00  0.00    +0.111 A 
ATOM     18  C   UNL     1     -11.758   0.230   1.447  0.00  0.00    +0.031 A 
ENDBRANCH   2  13
BRANCH   5  19
ATOM     19  S   UNL     1      -6.221  -1.058   0.290  0.00  0.00    -0.073 S 
BRANCH  19  20
ATOM     20  C   UNL     1      -4.878   0.063  -0.175  0.00  0.00    +0.137 C 
ATOM     21  C   UNL     1      -5.130   0.604  -1.584  0.00  0.00    +0.029 C 
BRANCH  20  22
ATOM     22  C   UNL     1      -3.569  -0.684  -0.151  0.00  0.00    +0.230 C 
ATOM     23  O   UNL     1      -3.554  -1.887  -0.303  0.00  0.00    -0.274 OA
ATOM     24  N   UNL     1      -2.415  -0.014   0.039  0.00  0.00    -0.282 N 
ATOM     25  H   UNL     1      -2.432   0.935   0.239  0.00  0.00    +0.155 HD
BRANCH  24  26
ATOM     26  C   UNL     1      -1.190  -0.689  -0.051  0.00  0.00    +0.076 A 
ATOM     27  C   UNL     1      -1.091  -1.853  -0.799  0.00  0.00    +0.030 A 
ATOM     28  C   UNL     1       0.117  -2.520  -0.882  0.00  0.00    -0.048 A 
ATOM     29  C   UNL     1       1.229  -2.028  -0.224  0.00  0.00    +0.007 A 
ATOM     30  C   UNL     1       1.139  -0.866   0.520  0.00  0.00    +0.048 A 
ATOM     31  C   UNL     1      -0.068  -0.191   0.608  0.00  0.00    +0.141 A 
ATOM     32  C   UNL     1       0.221  -3.787  -1.692  0.00  0.00    +0.044 C 
BRANCH  31  33
ATOM     33  O   UNL     1      -0.159   0.951   1.339  0.00  0.00    -0.493 OA
ATOM     34  C   UNL     1       1.031   1.400   1.992  0.00  0.00    +0.277 C 
ENDBRANCH  31  33
ENDBRANCH  24  26
ENDBRANCH  20  22
ENDBRANCH  19  20
ENDBRANCH   5  19
TORSDOF 7
