REMARK  Name = ZINC21319348
REMARK  7 active torsions:
REMARK  status: ('A' for Active; 'I' for Inactive)
REMARK    1  A    between atoms: C_1  and  N_2
REMARK    2  A    between atoms: N_2  and  C_3
REMARK    3  A    between atoms: N_2  and  C_15
REMARK    4  A    between atoms: C_3  and  C_4
REMARK    5  A    between atoms: N_7  and  C_9
REMARK    6  A    between atoms: C_15  and  C_16
REMARK    7  A    between atoms: C_29  and  C_31
REMARK                            x       y       z     vdW  Elec       q    Type
REMARK                         _______ _______ _______ _____ _____    ______ ____
ROOT
ATOM      1  C   UNL     1       4.882   1.224  -2.894  0.00  0.00    +0.204 C 
ATOM      2  O   UNL     1       4.079   1.444  -3.776  0.00  0.00    -0.277 OA
ATOM      3  N   UNL     1       6.188   1.077  -3.194  0.00  0.00    -0.259 N 
ATOM      4  C   UNL     1       7.129   0.828  -2.186  0.00  0.00    +0.058 A 
ATOM      5  C   UNL     1       7.187  -0.418  -1.572  0.00  0.00    +0.025 A 
ATOM      6  C   UNL     1       8.143  -0.663  -0.603  0.00  0.00    +0.002 A 
ATOM      7  C   UNL     1       9.042   0.325  -0.245  0.00  0.00    +0.002 A 
ATOM      8  C   UNL     1       8.982   1.570  -0.843  0.00  0.00    +0.025 A 
ATOM      9  C   UNL     1       8.019   1.827  -1.805  0.00  0.00    +0.055 A 
ATOM     10  N   UNL     1       7.916   3.088  -2.402  0.00  0.00    -0.284 N 
ATOM     11  C   UNL     1       7.835   3.207  -3.747  0.00  0.00    +0.219 C 
ATOM     12  O   UNL     1       7.669   4.301  -4.245  0.00  0.00    -0.275 OA
ATOM     13  C   UNL     1       7.949   1.993  -4.629  0.00  0.00    +0.128 C 
ATOM     14  C   UNL     1       6.654   1.180  -4.577  0.00  0.00    +0.194 C 
ATOM     15  H   UNL     1       7.901   3.994  -1.777  0.00  0.00    +0.155 HD
ENDROOT
BRANCH  14  16
ATOM     16  C   UNL     1       6.912  -0.222  -5.133  0.00  0.00    +0.409 C 
ATOM     17  F   UNL     1       5.727  -0.964  -5.093  0.00  0.00    -0.169 F 
ATOM     18  F   UNL     1       7.357  -0.124  -6.456  0.00  0.00    -0.169 F 
ATOM     19  F   UNL     1       7.888  -0.858  -4.358  0.00  0.00    -0.169 F 
ENDBRANCH  14  16
BRANCH   1  20
ATOM     20  C   UNL     1       4.420   1.114  -1.464  0.00  0.00    +0.019 C 
BRANCH  20  22
ATOM     21  C   UNL     1       2.257   0.218  -2.085  0.00  0.00    -0.095 C 
ATOM     22  N   UNL     1       2.965   1.311  -1.404  0.00  0.00    +0.386 N 
ATOM     23  H   UNL     1       2.728   2.247  -1.930  0.00  0.00    -0.081 HD
BRANCH  22  24
ATOM     24  C   UNL     1       2.510   1.447  -0.014  0.00  0.00    -0.040 C 
BRANCH  24  25
ATOM     25  C   UNL     1       1.069   1.889   0.002  0.00  0.00    -0.026 A 
ATOM     26  C   UNL     1       0.614   3.212   0.013  0.00  0.00    +0.136 A 
ATOM     27  N   UNL     1      -0.695   3.195   0.026  0.00  0.00    -0.175 NA
ATOM     28  N   UNL     1      -1.115   1.859   0.017  0.00  0.00    -0.240 N 
ATOM     29  C   UNL     1      -0.013   1.076   0.008  0.00  0.00    +0.116 A 
BRANCH  28  30
ATOM     30  C   UNL     1      -2.444   1.412   0.020  0.00  0.00    +0.065 A 
ATOM     31  C   UNL     1      -2.720   0.051   0.008  0.00  0.00    +0.028 A 
ATOM     32  C   UNL     1      -4.031  -0.386   0.017  0.00  0.00    +0.002 A 
ATOM     33  C   UNL     1      -5.067   0.530   0.026  0.00  0.00    +0.000 A 
ATOM     34  C   UNL     1      -4.794   1.886   0.032  0.00  0.00    +0.002 A 
ATOM     35  C   UNL     1      -3.486   2.329   0.029  0.00  0.00    +0.028 A 
ENDBRANCH  28  30
ENDBRANCH  24  25
ENDBRANCH  22  24
ENDBRANCH  20  22
ENDBRANCH   1  20
TORSDOF 6
