REMARK  Name = ZINC49632912
REMARK  6 active torsions:
REMARK  status: ('A' for Active; 'I' for Inactive)
REMARK    1  A    between atoms: C_4  and  C_7
REMARK    2  A    between atoms: C_7  and  N_8
REMARK    3  A    between atoms: N_16  and  C_17
REMARK    4  A    between atoms: C_17  and  C_19
REMARK    5  A    between atoms: N_27  and  C_30
REMARK    6  A    between atoms: C_30  and  C_31
REMARK                            x       y       z     vdW  Elec       q    Type
REMARK                         _______ _______ _______ _____ _____    ______ ____
ROOT
ATOM      1  N   UNL     1       4.153  -0.953   1.342  0.00  0.00    +0.386 N 
ATOM      2  C   UNL     1       5.489  -1.562   1.326  0.00  0.00    -0.072 C 
ATOM      3  C   UNL     1       6.093  -1.549   2.734  0.00  0.00    +0.035 C 
ATOM      4  C   UNL     1       5.081  -2.174   3.686  0.00  0.00    +0.024 A 
ATOM      5  C   UNL     1       3.797  -2.294   3.308  0.00  0.00    -0.004 A 
ATOM      6  S   UNL     1       3.022  -3.058   4.703  0.00  0.00    -0.059 S 
ATOM      7  C   UNL     1       4.376  -3.183   5.696  0.00  0.00    +0.164 A 
ATOM      8  N   UNL     1       5.368  -2.643   4.938  0.00  0.00    -0.339 N 
ATOM      9  N   UNL     1       4.456  -3.688   6.926  0.00  0.00    -0.152 NA
ATOM     10  C   UNL     1       3.204  -1.866   2.007  0.00  0.00    -0.033 C 
ATOM     11  H   UNL     1       6.273  -2.591   5.283  0.00  0.00    +0.167 HD
ATOM     12  H   UNL     1       4.188  -0.079   1.845  0.00  0.00    -0.081 HD
ENDROOT
BRANCH   9  13
ATOM     13  C   UNL     1       5.626  -3.703   7.566  0.00  0.00    +0.269 C 
ATOM     14  O   UNL     1       6.622  -3.254   7.025  0.00  0.00    -0.268 OA
BRANCH  13  15
ATOM     15  C   UNL     1       5.716  -4.264   8.935  0.00  0.00    +0.040 A 
ATOM     16  C   UNL     1       4.577  -4.783   9.549  0.00  0.00    +0.014 A 
ATOM     17  C   UNL     1       4.651  -5.309  10.827  0.00  0.00    +0.014 A 
ATOM     18  C   UNL     1       5.862  -5.322  11.500  0.00  0.00    +0.049 A 
ATOM     19  C   UNL     1       7.018  -4.800  10.883  0.00  0.00    +0.050 A 
ATOM     20  C   UNL     1       6.943  -4.279   9.604  0.00  0.00    +0.027 A 
ATOM     21  C   UNL     1       8.112  -4.970  11.864  0.00  0.00    +0.254 C 
ATOM     22  O   UNL     1       9.268  -4.639  11.699  0.00  0.00    -0.270 OA
ATOM     23  N   UNL     1       7.611  -5.552  12.968  0.00  0.00    -0.227 N 
ATOM     24  C   UNL     1       6.294  -5.792  12.835  0.00  0.00    +0.254 C 
ATOM     25  O   UNL     1       5.580  -6.308  13.670  0.00  0.00    -0.270 OA
BRANCH  23  26
ATOM     26  C   UNL     1       8.397  -5.881  14.160  0.00  0.00    +0.191 C 
BRANCH  26  27
ATOM     27  C   UNL     1       8.378  -4.713  15.113  0.00  0.00    +0.123 A 
ATOM     28  C   UNL     1       7.478  -4.511  16.091  0.00  0.00    +0.046 A 
ATOM     29  C   UNL     1       7.836  -3.304  16.734  0.00  0.00    +0.041 A 
ATOM     30  C   UNL     1       8.934  -2.841  16.110  0.00  0.00    +0.195 A 
ATOM     31  O   UNL     1       9.261  -3.702  15.132  0.00  0.00    -0.466 OA
ENDBRANCH  26  27
ENDBRANCH  23  26
ENDBRANCH  13  15
ENDBRANCH   9  13
BRANCH   1  32
ATOM     32  C   UNL     1       3.711  -0.707  -0.038  0.00  0.00    -0.043 C 
BRANCH  32  36
ATOM     33  C   UNL     1      -0.017   1.378   0.010  0.00  0.00    +0.000 A 
ATOM     34  C   UNL     1       1.171   2.086   0.002  0.00  0.00    +0.000 A 
ATOM     35  C   UNL     1       2.377   1.411  -0.013  0.00  0.00    +0.002 A 
ATOM     36  C   UNL     1       2.396   0.029  -0.020  0.00  0.00    -0.064 A 
ATOM     37  C   UNL     1       1.208  -0.679  -0.012  0.00  0.00    +0.002 A 
ATOM     38  C   UNL     1       0.002  -0.004   0.002  0.00  0.00    +0.000 A 
ENDBRANCH  32  36
ENDBRANCH   1  32
TORSDOF 6
