REMARK  Name = ZINC12478648
REMARK  7 active torsions:
REMARK  status: ('A' for Active; 'I' for Inactive)
REMARK    1  A    between atoms: C_1  and  C_2
REMARK    2  A    between atoms: C_5  and  C_8
REMARK    3  A    between atoms: C_8  and  N_63
REMARK    4  A    between atoms: C_14  and  C_16
REMARK    5  A    between atoms: C_16  and  C_17
REMARK    6  A    between atoms: C_26  and  O_32
REMARK    7  A    between atoms: O_32  and  C_33
REMARK                            x       y       z     vdW  Elec       q    Type
REMARK                         _______ _______ _______ _____ _____    ______ ____
ROOT
ATOM      1  C   UNL     1      -1.030  -6.517   1.563  0.00  0.00    +0.090 C 
ENDROOT
BRANCH   1   2
ATOM      2  C   UNL     1       0.360  -5.991   1.816  0.00  0.00    +0.215 C 
ATOM      3  O   UNL     1       0.936  -5.360   0.955  0.00  0.00    -0.276 OA
ATOM      4  N   UNL     1       0.963  -6.222   2.999  0.00  0.00    -0.297 N 
ATOM      5  C   UNL     1       0.282  -6.979   4.060  0.00  0.00    +0.114 C 
ATOM      6  C   UNL     1       1.058  -8.282   4.316  0.00  0.00    +0.072 C 
ATOM      7  C   UNL     1       2.533  -7.965   4.404  0.00  0.00    +0.023 A 
ATOM      8  C   UNL     1       3.093  -6.830   3.934  0.00  0.00    -0.002 A 
ATOM      9  C   UNL     1       4.514  -6.912   4.196  0.00  0.00    +0.008 A 
ATOM     10  C   UNL     1       5.579  -6.044   3.931  0.00  0.00    +0.056 A 
ATOM     11  C   UNL     1       6.839  -6.461   4.333  0.00  0.00    +0.121 A 
ATOM     12  C   UNL     1       7.039  -7.681   4.968  0.00  0.00    +0.047 A 
ATOM     13  C   UNL     1       5.998  -8.551   5.238  0.00  0.00    +0.030 A 
ATOM     14  C   UNL     1       4.721  -8.156   4.844  0.00  0.00    +0.047 A 
ATOM     15  N   UNL     1       3.502  -8.764   4.954  0.00  0.00    -0.358 N 
ATOM     16  H   UNL     1       3.346  -9.631   5.361  0.00  0.00    +0.166 HD
ATOM     17  C   UNL     1       2.321  -5.717   3.268  0.00  0.00    +0.145 C 
BRANCH  11  18
ATOM     18  O   UNL     1       7.909  -5.655   4.098  0.00  0.00    -0.495 OA
ATOM     19  C   UNL     1       9.186  -6.129   4.530  0.00  0.00    +0.277 C 
ENDBRANCH  11  18
ENDBRANCH   1   2
BRANCH   1  25
ATOM     20  C   UNL     1      -0.912  -5.917  -2.141  0.00  0.00    -0.058 C 
ATOM     21  C   UNL     1      -0.533  -4.437  -2.074  0.00  0.00    +0.085 C 
ATOM     22  N   UNL     1      -1.109  -3.826  -0.879  0.00  0.00    -0.318 N 
ATOM     23  C   UNL     1      -1.543  -4.541   0.165  0.00  0.00    +0.200 C 
ATOM     24  O   UNL     1      -1.980  -3.951   1.131  0.00  0.00    -0.278 OA
ATOM     25  C   UNL     1      -1.512  -6.043   0.191  0.00  0.00    +0.028 C 
ATOM     26  H   UNL     1      -1.180  -2.860  -0.841  0.00  0.00    +0.149 HD
ATOM     27  N   UNL     1      -0.581  -6.534  -0.842  0.00  0.00    +0.391 N 
ATOM     28  H   UNL     1       0.377  -6.273  -0.581  0.00  0.00    -0.080 HD
BRANCH  27  29
ATOM     29  C   UNL     1      -0.668  -8.009  -0.942  0.00  0.00    -0.042 C 
BRANCH  29  34
ATOM     30  C   UNL     1       4.067  -9.983  -3.603  0.00  0.00    +0.044 C 
ATOM     31  C   UNL     1       2.832  -9.469  -2.909  0.00  0.00    -0.050 A 
ATOM     32  C   UNL     1       1.713  -9.134  -3.648  0.00  0.00    +0.003 A 
ATOM     33  C   UNL     1       0.579  -8.666  -3.011  0.00  0.00    +0.002 A 
ATOM     34  C   UNL     1       0.567  -8.523  -1.636  0.00  0.00    -0.064 A 
ATOM     35  C   UNL     1       1.688  -8.853  -0.897  0.00  0.00    +0.002 A 
ATOM     36  C   UNL     1       2.821  -9.326  -1.534  0.00  0.00    +0.003 A 
ENDBRANCH  29  34
ENDBRANCH  27  29
ENDBRANCH   1  25
TORSDOF 5
