REMARK  Name = ZINC09662090
REMARK  8 active torsions:
REMARK  status: ('A' for Active; 'I' for Inactive)
REMARK    1  A    between atoms: C_4  and  O_7
REMARK    2  A    between atoms: O_7  and  C_8
REMARK    3  A    between atoms: C_13  and  N_14
REMARK    4  A    between atoms: C_15  and  C_17
REMARK    5  A    between atoms: C_17  and  O_18
REMARK    6  A    between atoms: O_18  and  C_19
REMARK    7  A    between atoms: C_19  and  C_21
REMARK    8  A    between atoms: C_27  and  C_29
REMARK                            x       y       z     vdW  Elec       q    Type
REMARK                         _______ _______ _______ _____ _____    ______ ____
ROOT
ATOM      1  N   UNL     1      -5.122  -3.127  -3.341  0.00  0.00    -0.280 N 
ATOM      2  C   UNL     1      -4.824  -2.364  -2.270  0.00  0.00    +0.255 C 
ATOM      3  O   UNL     1      -5.469  -2.475  -1.248  0.00  0.00    -0.272 OA
ATOM      4  H   UNL     1      -4.644  -2.999  -4.175  0.00  0.00    +0.155 HD
ENDROOT
BRANCH   1  10
ATOM      5  C   UNL     1      -5.995  -5.300  -3.953  0.00  0.00    +0.150 A 
ATOM      6  C   UNL     1      -6.986  -6.264  -3.858  0.00  0.00    +0.048 A 
ATOM      7  C   UNL     1      -8.095  -6.038  -3.064  0.00  0.00    +0.004 A 
ATOM      8  C   UNL     1      -8.220  -4.853  -2.364  0.00  0.00    +0.002 A 
ATOM      9  C   UNL     1      -7.234  -3.889  -2.449  0.00  0.00    +0.027 A 
ATOM     10  C   UNL     1      -6.120  -4.105  -3.248  0.00  0.00    +0.076 A 
BRANCH   5  11
ATOM     11  O   UNL     1      -4.904  -5.519  -4.734  0.00  0.00    -0.454 OA
BRANCH  11  15
ATOM     12  C   UNL     1      -1.550  -7.142  -2.963  0.00  0.00    +0.000 A 
ATOM     13  C   UNL     1      -1.578  -6.937  -4.330  0.00  0.00    +0.004 A 
ATOM     14  C   UNL     1      -2.700  -6.394  -4.926  0.00  0.00    +0.046 A 
ATOM     15  C   UNL     1      -3.799  -6.054  -4.151  0.00  0.00    +0.129 A 
ATOM     16  C   UNL     1      -3.767  -6.255  -2.778  0.00  0.00    +0.046 A 
ATOM     17  C   UNL     1      -2.645  -6.804  -2.188  0.00  0.00    +0.004 A 
ENDBRANCH  11  15
ENDBRANCH   5  11
ENDBRANCH   1  10
BRANCH   2  18
ATOM     18  C   UNL     1      -3.692  -1.372  -2.342  0.00  0.00    +0.328 C 
BRANCH  18  19
ATOM     19  O   UNL     1      -3.574  -0.679  -1.072  0.00  0.00    -0.454 OA
BRANCH  19  20
ATOM     20  C   UNL     1      -2.605   0.245  -0.970  0.00  0.00    +0.328 C 
ATOM     21  O   UNL     1      -1.880   0.467  -1.911  0.00  0.00    -0.249 OA
BRANCH  20  22
ATOM     22  C   UNL     1      -2.422   1.005   0.318  0.00  0.00    +0.185 C 
ATOM     23  C   UNL     1      -3.446   2.158   0.401  0.00  0.00    +0.035 C 
ATOM     24  C   UNL     1      -2.626   3.308   1.043  0.00  0.00    +0.021 C 
ATOM     25  C   UNL     1      -1.225   3.075   0.424  0.00  0.00    +0.109 C 
ATOM     26  N   UNL     1      -1.082   1.609   0.356  0.00  0.00    -0.284 N 
ATOM     27  C   UNL     1       0.085   0.934   0.329  0.00  0.00    +0.254 C 
ATOM     28  O   UNL     1       0.083  -0.282   0.272  0.00  0.00    -0.269 OA
BRANCH  27  29
ATOM     29  C   UNL     1       1.355   1.665   0.360  0.00  0.00    +0.074 A 
ATOM     30  C   UNL     1       2.649   1.169   0.335  0.00  0.00    +0.021 A 
ATOM     31  C   UNL     1       3.671   2.085   0.376  0.00  0.00    +0.008 A 
ATOM     32  C   UNL     1       3.372   3.409   0.439  0.00  0.00    +0.046 A 
ATOM     33  S   UNL     1       1.639   3.425   0.434  0.00  0.00    -0.092 S 
ENDBRANCH  27  29
ENDBRANCH  20  22
ENDBRANCH  19  20
ENDBRANCH  18  19
ENDBRANCH   2  18
TORSDOF 8
