REMARK  Name = ZINC51366960
REMARK  9 active torsions:
REMARK  status: ('A' for Active; 'I' for Inactive)
REMARK    1  A    between atoms: C_1  and  C_2
REMARK    2  A    between atoms: C_2  and  C_3
REMARK    3  A    between atoms: C_3  and  C_4
REMARK    4  A    between atoms: C_4  and  C_5
REMARK    5  A    between atoms: N_9  and  C_22
REMARK    6  A    between atoms: N_11  and  N_12
REMARK    7  A    between atoms: C_13  and  C_14
REMARK    8  A    between atoms: C_17  and  C_20
REMARK    9  A    between atoms: C_22  and  C_23
REMARK                            x       y       z     vdW  Elec       q    Type
REMARK                         _______ _______ _______ _____ _____    ______ ____
ROOT
ATOM      1  C   UNL     1      -2.848  -2.593   0.015  0.00  0.00    +0.140 C 
ATOM      2  C   UNL     1      -2.874  -4.113   0.036  0.00  0.00    +0.235 C 
ATOM      3  O   UNL     1      -2.405  -4.753   0.953  0.00  0.00    -0.274 OA
ATOM      4  N   UNL     1      -3.441  -4.693  -1.008  0.00  0.00    -0.244 N 
ATOM      5  C   UNL     1      -3.978  -3.974  -2.054  0.00  0.00    +0.186 C 
ATOM      6  N   UNL     1      -4.565  -4.432  -3.140  0.00  0.00    -0.127 NA
ATOM      7  S   UNL     1      -3.690  -2.271  -1.589  0.00  0.00    -0.076 S 
ENDROOT
BRANCH   6   8
ATOM      8  N   UNL     1      -5.014  -3.610  -4.026  0.00  0.00    -0.155 NA
ATOM      9  C   UNL     1      -5.596  -4.064  -5.103  0.00  0.00    +0.143 C 
BRANCH   9  10
ATOM     10  C   UNL     1      -6.109  -3.126  -6.114  0.00  0.00    -0.005 A 
ATOM     11  C   UNL     1      -5.969  -1.747  -5.929  0.00  0.00    +0.010 A 
ATOM     12  C   UNL     1      -6.452  -0.875  -6.881  0.00  0.00    +0.004 A 
ATOM     13  C   UNL     1      -7.074  -1.361  -8.018  0.00  0.00    -0.050 A 
ATOM     14  C   UNL     1      -7.216  -2.724  -8.209  0.00  0.00    +0.004 A 
ATOM     15  C   UNL     1      -6.733  -3.609  -7.269  0.00  0.00    +0.010 A 
ATOM     16  C   UNL     1      -7.599  -0.400  -9.053  0.00  0.00    +0.044 C 
ENDBRANCH   9  10
ENDBRANCH   6   8
BRANCH   1  17
ATOM     17  C   UNL     1      -1.413  -2.063   0.004  0.00  0.00    +0.024 C 
BRANCH  17  18
ATOM     18  C   UNL     1      -1.433  -0.534   0.013  0.00  0.00    +0.001 C 
BRANCH  18  20
ATOM     19  C   UNL     1      -0.019   1.526   0.010  0.00  0.00    +0.004 C 
ATOM     20  C   UNL     1       0.002  -0.004   0.002  0.00  0.00    -0.003 C 
ENDBRANCH  18  20
ENDBRANCH  17  18
ENDBRANCH   1  17
BRANCH   4  21
ATOM     21  C   UNL     1      -3.502  -6.156  -1.054  0.00  0.00    +0.150 C 
BRANCH  21  22
ATOM     22  C   UNL     1      -4.778  -6.627  -0.406  0.00  0.00    -0.030 A 
ATOM     23  C   UNL     1      -4.807  -6.894   0.950  0.00  0.00    +0.005 A 
ATOM     24  C   UNL     1      -5.978  -7.326   1.545  0.00  0.00    +0.000 A 
ATOM     25  C   UNL     1      -7.120  -7.490   0.784  0.00  0.00    +0.000 A 
ATOM     26  C   UNL     1      -7.092  -7.221  -0.572  0.00  0.00    +0.000 A 
ATOM     27  C   UNL     1      -5.922  -6.786  -1.166  0.00  0.00    +0.005 A 
ENDBRANCH  21  22
ENDBRANCH   4  21
TORSDOF 7
