REMARK  Name = ZINC39789976
REMARK  7 active torsions:
REMARK  status: ('A' for Active; 'I' for Inactive)
REMARK    1  A    between atoms: C_4  and  O_7
REMARK    2  A    between atoms: O_7  and  C_8
REMARK    3  A    between atoms: C_11  and  N_14
REMARK    4  A    between atoms: C_15  and  S_26
REMARK    5  A    between atoms: S_26  and  C_27
REMARK    6  A    between atoms: C_27  and  C_28
REMARK    7  A    between atoms: C_31  and  C_33
REMARK                            x       y       z     vdW  Elec       q    Type
REMARK                         _______ _______ _______ _____ _____    ______ ____
ROOT
ATOM      1  N   UNL     1       3.791  -6.148  -0.349  0.00  0.00    -0.239 N 
ATOM      2  C   UNL     1       5.080  -6.827  -0.220  0.00  0.00    +0.227 C 
ATOM      3  N   UNL     1       4.905  -8.132   0.429  0.00  0.00    -0.317 N 
ATOM      4  C   UNL     1       3.840  -8.936   0.038  0.00  0.00    +0.041 A 
ATOM      5  C   UNL     1       3.902 -10.317   0.117  0.00  0.00    +0.024 A 
ATOM      6  C   UNL     1       2.814 -11.074  -0.272  0.00  0.00    +0.002 A 
ATOM      7  C   UNL     1       1.661 -10.463  -0.739  0.00  0.00    +0.001 A 
ATOM      8  C   UNL     1       1.584  -9.088  -0.828  0.00  0.00    +0.015 A 
ATOM      9  C   UNL     1       2.676  -8.313  -0.444  0.00  0.00    +0.058 A 
ATOM     10  C   UNL     1       2.651  -6.843  -0.538  0.00  0.00    +0.255 C 
ATOM     11  O   UNL     1       1.612  -6.262  -0.787  0.00  0.00    -0.269 OA
ATOM     12  H   UNL     1       5.521  -8.428   1.117  0.00  0.00    +0.149 HD
ENDROOT
BRANCH   1  16
ATOM     13  C   UNL     1       3.637  -1.988  -0.114  0.00  0.00    +0.129 A 
ATOM     14  C   UNL     1       3.617  -2.749   1.046  0.00  0.00    +0.048 A 
ATOM     15  C   UNL     1       3.668  -4.127   0.968  0.00  0.00    +0.027 A 
ATOM     16  C   UNL     1       3.739  -4.750  -0.271  0.00  0.00    +0.039 A 
ATOM     17  C   UNL     1       3.759  -3.988  -1.431  0.00  0.00    +0.027 A 
ATOM     18  C   UNL     1       3.703  -2.611  -1.353  0.00  0.00    +0.048 A 
BRANCH  13  19
ATOM     19  O   UNL     1       3.586  -0.632  -0.038  0.00  0.00    -0.456 OA
BRANCH  19  23
ATOM     20  C   UNL     1       7.107   1.467  -0.505  0.00  0.00    +0.000 A 
ATOM     21  C   UNL     1       5.924   2.146  -0.280  0.00  0.00    +0.004 A 
ATOM     22  C   UNL     1       4.744   1.446  -0.123  0.00  0.00    +0.046 A 
ATOM     23  C   UNL     1       4.746   0.060  -0.192  0.00  0.00    +0.128 A 
ATOM     24  C   UNL     1       5.935  -0.619  -0.419  0.00  0.00    +0.046 A 
ATOM     25  C   UNL     1       7.112   0.086  -0.575  0.00  0.00    +0.004 A 
ENDBRANCH  19  23
ENDBRANCH  13  19
ENDBRANCH   1  16
BRANCH   2  26
ATOM     26  S   UNL     1       5.798  -7.072  -1.867  0.00  0.00    -0.110 S 
BRANCH  26  27
ATOM     27  C   UNL     1       4.572  -8.089  -2.734  0.00  0.00    +0.168 C 
BRANCH  27  28
ATOM     28  C   UNL     1       5.051  -8.369  -4.135  0.00  0.00    +0.229 C 
ATOM     29  O   UNL     1       6.116  -7.926  -4.512  0.00  0.00    -0.274 OA
ATOM     30  N   UNL     1       4.298  -9.112  -4.970  0.00  0.00    -0.251 N 
ATOM     31  C   UNL     1       4.726  -9.363  -6.223  0.00  0.00    +0.265 C 
ATOM     32  O   UNL     1       5.793  -8.919  -6.600  0.00  0.00    -0.268 OA
ATOM     33  H   UNL     1       3.446  -9.466  -4.669  0.00  0.00    +0.158 HD
BRANCH  31  34
ATOM     34  C   UNL     1       3.903 -10.173  -7.134  0.00  0.00    +0.107 C 
ATOM     35  N   UNL     1       2.745 -10.707  -6.875  0.00  0.00    -0.255 NA
ATOM     36  C   UNL     1       2.232 -11.393  -7.902  0.00  0.00    +0.107 C 
ATOM     37  C   UNL     1       3.027 -11.380  -8.976  0.00  0.00    -0.001 C 
ATOM     38  C   UNL     1       4.231 -10.551  -8.566  0.00  0.00    +0.089 C 
ENDBRANCH  31  34
ENDBRANCH  27  28
ENDBRANCH  26  27
ENDBRANCH   2  26
TORSDOF 7
