REMARK  Name = ZINC25448186
REMARK  10 active torsions:
REMARK  status: ('A' for Active; 'I' for Inactive)
REMARK    1  A    between atoms: C_1  and  C_2
REMARK    2  A    between atoms: C_2  and  O_3
REMARK    3  A    between atoms: O_3  and  C_4
REMARK    4  A    between atoms: C_7  and  C_10
REMARK    5  A    between atoms: C_13  and  S_16
REMARK    6  A    between atoms: N_14  and  N_15
REMARK    7  A    between atoms: S_16  and  C_17
REMARK    8  A    between atoms: C_17  and  C_18
REMARK    9  A    between atoms: N_23  and  C_26
REMARK   10  A    between atoms: C_26  and  C_27
REMARK                            x       y       z     vdW  Elec       q    Type
REMARK                         _______ _______ _______ _____ _____    ______ ____
ROOT
ATOM      1  C   UNL     1       4.042  -7.315  -8.098  0.00  0.00    +0.182 A 
ATOM      2  N   UNL     1       3.047  -6.593  -7.636  0.00  0.00    -0.127 NA
ATOM      3  N   UNL     1       3.501  -5.542  -7.053  0.00  0.00    -0.121 NA
ATOM      4  C   UNL     1       4.813  -5.523  -7.113  0.00  0.00    +0.209 A 
ATOM      5  N   UNL     1       5.204  -6.652  -7.777  0.00  0.00    -0.224 N 
ENDROOT
BRANCH   1   9
ATOM      6  C   UNL     1       3.731 -11.002 -10.186  0.00  0.00    +0.121 A 
ATOM      7  C   UNL     1       4.943 -10.625  -9.623  0.00  0.00    +0.046 A 
ATOM      8  C   UNL     1       5.048  -9.429  -8.945  0.00  0.00    +0.015 A 
ATOM      9  C   UNL     1       3.933  -8.597  -8.824  0.00  0.00    +0.021 A 
ATOM     10  C   UNL     1       2.715  -8.983  -9.386  0.00  0.00    +0.015 A 
ATOM     11  C   UNL     1       2.620 -10.177 -10.067  0.00  0.00    +0.046 A 
BRANCH   6  12
ATOM     12  O   UNL     1       3.631 -12.181 -10.853  0.00  0.00    -0.492 OA
BRANCH  12  14
ATOM     13  C   UNL     1       2.437 -13.862 -12.114  0.00  0.00    +0.048 C 
ATOM     14  C   UNL     1       2.355 -12.508 -11.406  0.00  0.00    +0.225 C 
ENDBRANCH  12  14
ENDBRANCH   6  12
ENDBRANCH   1   9
BRANCH   5  15
ATOM     15  N   UNL     1       6.482  -7.041  -8.063  0.00  0.00    -0.295 N 
ATOM     16  H   UNL     1       7.330  -6.415  -7.749  0.00  0.00    +0.163 HD
ATOM     17  H   UNL     1       6.662  -7.979  -8.608  0.00  0.00    +0.163 HD
ENDBRANCH   5  15
BRANCH   4  18
ATOM     18  S   UNL     1       5.872  -4.279  -6.455  0.00  0.00    -0.075 S 
BRANCH  18  19
ATOM     19  C   UNL     1       4.639  -3.155  -5.753  0.00  0.00    +0.173 C 
BRANCH  19  20
ATOM     20  C   UNL     1       5.335  -1.980  -5.116  0.00  0.00    +0.226 C 
ATOM     21  O   UNL     1       6.545  -1.909  -5.135  0.00  0.00    -0.275 OA
ATOM     22  N   UNL     1       4.612  -1.008  -4.525  0.00  0.00    -0.298 N 
ATOM     23  C   UNL     1       5.270   0.148  -3.898  0.00  0.00    +0.123 C 
ATOM     24  C   UNL     1       4.723   0.307  -2.475  0.00  0.00    +0.104 C 
ATOM     25  N   UNL     1       3.256   0.379  -2.524  0.00  0.00    -0.295 NA
ATOM     26  C   UNL     1       2.679  -0.867  -3.046  0.00  0.00    +0.104 C 
ATOM     27  C   UNL     1       3.143  -1.075  -4.492  0.00  0.00    +0.123 C 
BRANCH  25  28
ATOM     28  C   UNL     1       2.701   0.703  -1.203  0.00  0.00    +0.127 C 
BRANCH  28  29
ATOM     29  C   UNL     1       1.232   1.009  -1.337  0.00  0.00    +0.005 A 
ATOM     30  C   UNL     1       0.174   0.166  -1.258  0.00  0.00    +0.014 A 
ATOM     31  C   UNL     1      -1.102   0.674  -1.415  0.00  0.00    +0.028 A 
ATOM     32  C   UNL     1      -1.257   2.002  -1.643  0.00  0.00    +0.078 A 
ATOM     33  S   UNL     1       0.433   2.576  -1.642  0.00  0.00    -0.080 S 
ATOM     34 CL   UNL     1      -2.719   2.907  -1.883  0.00  0.00    -0.076 Cl
ENDBRANCH  28  29
ENDBRANCH  25  28
ENDBRANCH  19  20
ENDBRANCH  18  19
ENDBRANCH   4  18
TORSDOF 9
