REMARK  Name = ZINC13355256
REMARK  7 active torsions:
REMARK  status: ('A' for Active; 'I' for Inactive)
REMARK    1  A    between atoms: C_2  and  C_3
REMARK    2  A    between atoms: C_3  and  N_4
REMARK    3  A    between atoms: C_13  and  S_14
REMARK    4  A    between atoms: S_14  and  C_15
REMARK    5  A    between atoms: C_15  and  C_16
REMARK    6  A    between atoms: N_18  and  C_19
REMARK    7  A    between atoms: C_22  and  C_25
REMARK                            x       y       z     vdW  Elec       q    Type
REMARK                         _______ _______ _______ _____ _____    ______ ____
ROOT
ATOM      1  N   UNL     1       4.447   1.866  -0.554  0.00  0.00    -0.283 N 
ATOM      2  C   UNL     1       3.747   0.717  -0.521  0.00  0.00    +0.263 A 
ATOM      3  O   UNL     1       4.308  -0.355  -0.672  0.00  0.00    -0.267 OA
ATOM      4  C   UNL     1       2.334   0.773  -0.307  0.00  0.00    +0.076 A 
ATOM      5  C   UNL     1       1.383  -0.349  -0.237  0.00  0.00    -0.023 A 
ATOM      6  C   UNL     1       0.094  -0.040  -0.025  0.00  0.00    -0.004 A 
ATOM      7  S   UNL     1       0.058   1.734   0.092  0.00  0.00    -0.073 S 
ATOM      8  C   UNL     1       1.786   2.054  -0.145  0.00  0.00    +0.117 A 
ATOM      9  N   UNL     1       2.533   3.152  -0.189  0.00  0.00    -0.216 NA
ATOM     10  C   UNL     1       3.834   3.074  -0.387  0.00  0.00    +0.173 A 
ATOM     11  C   UNL     1      -0.781  -1.264   0.032  0.00  0.00    +0.043 C 
ATOM     12  C   UNL     1       0.202  -2.433   0.256  0.00  0.00    +0.010 C 
ATOM     13  C   UNL     1       1.501  -1.871  -0.353  0.00  0.00    +0.037 C 
ENDROOT
BRANCH   1  14
ATOM     14  C   UNL     1       5.895   1.819  -0.773  0.00  0.00    +0.154 C 
BRANCH  14  16
ATOM     15  C   UNL     1       6.983   2.817  -2.718  0.00  0.00    +0.005 C 
ATOM     16  C   UNL     1       6.183   1.891  -2.250  0.00  0.00    -0.013 C 
ENDBRANCH  14  16
ENDBRANCH   1  14
BRANCH  10  17
ATOM     17  S   UNL     1       4.794   4.550  -0.440  0.00  0.00    -0.078 S 
BRANCH  17  18
ATOM     18  C   UNL     1       3.494   5.780  -0.169  0.00  0.00    +0.173 C 
BRANCH  18  19
ATOM     19  C   UNL     1       4.100   7.160  -0.174  0.00  0.00    +0.227 C 
ATOM     20  O   UNL     1       5.293   7.298  -0.344  0.00  0.00    -0.275 OA
ATOM     21  N   UNL     1       3.316   8.241   0.010  0.00  0.00    -0.285 N 
ATOM     22  H   UNL     1       2.353   8.137   0.069  0.00  0.00    +0.155 HD
BRANCH  21  23
ATOM     23  C   UNL     1       3.888   9.508   0.115  0.00  0.00    +0.033 A 
ATOM     24  C   UNL     1       5.134   9.659   0.716  0.00  0.00    +0.024 A 
ATOM     25  C   UNL     1       5.704  10.907   0.818  0.00  0.00    +0.017 A 
ATOM     26  C   UNL     1       5.025  12.026   0.326  0.00  0.00    +0.063 A 
ATOM     27  C   UNL     1       3.771  11.871  -0.273  0.00  0.00    +0.017 A 
ATOM     28  C   UNL     1       3.209  10.619  -0.376  0.00  0.00    +0.024 A 
BRANCH  26  29
ATOM     29  C   UNL     1       5.631  13.366   0.437  0.00  0.00    +0.387 C 
ATOM     30  O   UNL     1       5.040  14.337   0.008  0.00  0.00    -0.241 OA
ATOM     31  O   UNL     1       6.840  13.513   1.014  0.00  0.00    -0.241 OA
ENDBRANCH  26  29
ENDBRANCH  21  23
ENDBRANCH  18  19
ENDBRANCH  17  18
ENDBRANCH  10  17
TORSDOF 7
