REMARK  Name = ZINC40921229
REMARK  7 active torsions:
REMARK  status: ('A' for Active; 'I' for Inactive)
REMARK    1  A    between atoms: C_1  and  C_2
REMARK    2  A    between atoms: C_2  and  C_3
REMARK    3  A    between atoms: C_2  and  C_4
REMARK    4  A    between atoms: C_7  and  C_10
REMARK    5  A    between atoms: C_19  and  C_22
REMARK    6  A    between atoms: C_27  and  C_30
REMARK    7  A    between atoms: C_27  and  N_33
REMARK                            x       y       z     vdW  Elec       q    Type
REMARK                         _______ _______ _______ _____ _____    ______ ____
ROOT
ATOM      1  C   UNL     1      -7.317   1.447   1.238  0.00  0.00    +0.093 A 
ATOM      2  C   UNL     1      -7.418   0.753   0.027  0.00  0.00    +0.033 A 
ATOM      3  C   UNL     1      -8.494  -0.098  -0.145  0.00  0.00    +0.047 A 
ATOM      4  C   UNL     1      -9.413  -0.213   0.900  0.00  0.00    +0.144 A 
ATOM      5  N   UNL     1      -9.237   0.484   2.014  0.00  0.00    -0.134 NA
ATOM      6  N   UNL     1      -8.237   1.271   2.177  0.00  0.00    -0.147 NA
ATOM      7  N   UNL     1     -10.510  -1.056   0.772  0.00  0.00    -0.314 N 
ATOM      8  C   UNL     1     -11.528  -1.125   1.829  0.00  0.00    +0.107 C 
ATOM      9  C   UNL     1     -11.709  -2.589   2.245  0.00  0.00    +0.032 C 
ATOM     10  C   UNL     1     -12.029  -3.430   1.007  0.00  0.00    +0.078 C 
ATOM     11  C   UNL     1     -10.865  -3.349   0.018  0.00  0.00    +0.032 C 
ATOM     12  C   UNL     1     -10.678  -1.890  -0.426  0.00  0.00    +0.107 C 
ENDROOT
BRANCH  10  13
ATOM     13  C   UNL     1     -12.241  -4.865   1.417  0.00  0.00    +0.219 C 
ATOM     14  O   UNL     1     -11.330  -5.661   1.331  0.00  0.00    -0.275 OA
ATOM     15  N   UNL     1     -13.443  -5.263   1.879  0.00  0.00    -0.301 N 
ATOM     16  C   UNL     1     -14.585  -4.338   1.892  0.00  0.00    +0.107 C 
ATOM     17  C   UNL     1     -15.168  -4.294   3.308  0.00  0.00    +0.016 C 
ATOM     18  C   UNL     1     -15.506  -5.716   3.760  0.00  0.00    +0.015 C 
ATOM     19  C   UNL     1     -14.230  -6.561   3.790  0.00  0.00    +0.016 C 
ATOM     20  C   UNL     1     -13.638  -6.633   2.374  0.00  0.00    +0.107 C 
BRANCH  18  21
ATOM     21  N   UNL     1     -16.096  -5.674   5.105  0.00  0.00    +0.389 N 
ATOM     22  C   UNL     1     -17.331  -4.882   5.071  0.00  0.00    -0.077 C 
ATOM     23  C   UNL     1     -17.907  -4.766   6.484  0.00  0.00    -0.019 C 
ATOM     24  C   UNL     1     -18.212  -6.168   7.021  0.00  0.00    -0.004 C 
ATOM     25  C   UNL     1     -16.933  -7.009   6.982  0.00  0.00    -0.019 C 
ATOM     26  C   UNL     1     -16.393  -7.040   5.551  0.00  0.00    -0.077 C 
ATOM     27  H   UNL     1     -15.443  -5.247   5.745  0.00  0.00    -0.080 HD
ENDBRANCH  18  21
BRANCH  18  28
ATOM     28  C   UNL     1     -16.492  -6.328   2.799  0.00  0.00    +0.200 C 
ATOM     29  O   UNL     1     -17.111  -5.620   2.033  0.00  0.00    -0.278 OA
ATOM     30  N   UNL     1     -16.685  -7.662   2.790  0.00  0.00    -0.330 N 
ATOM     31  H   UNL     1     -16.235  -8.222   3.442  0.00  0.00    +0.145 HD
ATOM     32  H   UNL     1     -17.273  -8.062   2.131  0.00  0.00    +0.145 HD
ENDBRANCH  18  28
ENDBRANCH  10  13
BRANCH   1  36
ATOM     33  C   UNL     1      -4.062   4.097   1.913  0.00  0.00    -0.045 A 
ATOM     34  C   UNL     1      -5.019   3.918   2.895  0.00  0.00    +0.004 A 
ATOM     35  C   UNL     1      -6.078   3.059   2.682  0.00  0.00    +0.010 A 
ATOM     36  C   UNL     1      -6.182   2.372   1.474  0.00  0.00    +0.002 A 
ATOM     37  C   UNL     1      -5.215   2.557   0.487  0.00  0.00    +0.010 A 
ATOM     38  C   UNL     1      -4.163   3.423   0.710  0.00  0.00    +0.004 A 
BRANCH  33  40
ATOM     39  C   UNL     1      -3.443   6.445   2.418  0.00  0.00    +0.012 C 
ATOM     40  C   UNL     1      -2.908   5.037   2.152  0.00  0.00    +0.013 C 
ATOM     41  C   UNL     1      -2.104   4.559   3.364  0.00  0.00    +0.012 C 
ENDBRANCH  33  40
ENDBRANCH   1  36
TORSDOF 5
