REMARK  Name = ZINC06804339
REMARK  8 active torsions:
REMARK  status: ('A' for Active; 'I' for Inactive)
REMARK    1  A    between atoms: C_1  and  N_2
REMARK    2  A    between atoms: N_2  and  C_3
REMARK    3  A    between atoms: N_2  and  C_4
REMARK    4  A    between atoms: C_7  and  C_10
REMARK    5  A    between atoms: C_10  and  N_11
REMARK    6  A    between atoms: N_11  and  C_12
REMARK    7  A    between atoms: C_12  and  C_13
REMARK    8  A    between atoms: C_18  and  C_20
REMARK                            x       y       z     vdW  Elec       q    Type
REMARK                         _______ _______ _______ _____ _____    ______ ____
ROOT
ATOM      1  N   UNL     1       1.248  -1.906  -1.539  0.00  0.00    -0.286 N 
ATOM      2  C   UNL     1       0.062  -2.293  -2.046  0.00  0.00    +0.254 C 
ATOM      3  O   UNL     1      -0.778  -2.788  -1.319  0.00  0.00    -0.270 OA
ENDROOT
BRANCH   2   4
ATOM      4  C   UNL     1      -0.218  -2.118  -3.481  0.00  0.00    +0.122 A 
ATOM      5  C   UNL     1       0.767  -2.351  -4.425  0.00  0.00    +0.031 A 
ATOM      6  C   UNL     1       0.454  -2.170  -5.796  0.00  0.00    +0.018 A 
ATOM      7  C   UNL     1       1.430  -2.396  -6.779  0.00  0.00    +0.011 A 
ATOM      8  C   UNL     1       1.121  -2.220  -8.096  0.00  0.00    +0.001 A 
ATOM      9  C   UNL     1      -0.152  -1.817  -8.473  0.00  0.00    +0.004 A 
ATOM     10  C   UNL     1      -1.126  -1.588  -7.525  0.00  0.00    +0.047 A 
ATOM     11  C   UNL     1      -0.837  -1.761  -6.175  0.00  0.00    +0.139 A 
ATOM     12  O   UNL     1      -1.792  -1.536  -5.248  0.00  0.00    -0.422 OA
ATOM     13  C   UNL     1      -1.549  -1.700  -3.937  0.00  0.00    +0.350 A 
ATOM     14  O   UNL     1      -2.432  -1.495  -3.126  0.00  0.00    -0.244 OA
ENDBRANCH   2   4
BRANCH   1  15
ATOM     15  C   UNL     1       1.559  -2.156  -0.129  0.00  0.00    +0.143 C 
BRANCH  15  19
ATOM     16  C   UNL     1       0.274   1.172   2.225  0.00  0.00    +0.029 A 
ATOM     17  C   UNL     1      -0.592   0.112   1.987  0.00  0.00    +0.023 A 
ATOM     18  C   UNL     1      -0.173  -0.962   1.226  0.00  0.00    +0.007 A 
ATOM     19  C   UNL     1       1.106  -0.983   0.701  0.00  0.00    -0.030 A 
ATOM     20  C   UNL     1       1.971   0.071   0.937  0.00  0.00    +0.007 A 
ATOM     21  C   UNL     1       1.559   1.147   1.697  0.00  0.00    +0.023 A 
BRANCH  16  23
ATOM     22  C   UNL     1      -1.501   2.283   3.551  0.00  0.00    +0.129 C 
ATOM     23  N   UNL     1      -0.146   2.259   2.995  0.00  0.00    -0.336 N 
ATOM     24  C   UNL     1       0.769   3.376   3.245  0.00  0.00    +0.129 C 
ENDBRANCH  16  23
ENDBRANCH  15  19
ENDBRANCH   1  15
BRANCH   1  25
ATOM     25  C   UNL     1       2.228  -1.234  -2.397  0.00  0.00    +0.182 C 
BRANCH  25  26
ATOM     26  C   UNL     1       3.552  -1.947  -2.301  0.00  0.00    +0.122 A 
ATOM     27  C   UNL     1       3.996  -2.899  -3.141  0.00  0.00    +0.046 A 
ATOM     28  C   UNL     1       5.275  -3.287  -2.682  0.00  0.00    +0.041 A 
ATOM     29  C   UNL     1       5.537  -2.549  -1.588  0.00  0.00    +0.195 A 
ATOM     30  O   UNL     1       4.492  -1.735  -1.365  0.00  0.00    -0.466 OA
ENDBRANCH  25  26
ENDBRANCH   1  25
TORSDOF 6
