REMARK  Name = ZINC16461573
REMARK  10 active torsions:
REMARK  status: ('A' for Active; 'I' for Inactive)
REMARK    1  A    between atoms: C_1  and  C_2
REMARK    2  A    between atoms: C_6  and  N_8
REMARK    3  A    between atoms: C_9  and  C_29
REMARK    4  A    between atoms: C_12  and  S_13
REMARK    5  A    between atoms: S_13  and  C_14
REMARK    6  A    between atoms: C_14  and  C_15
REMARK    7  A    between atoms: C_17  and  C_20
REMARK    8  A    between atoms: N_22  and  C_23
REMARK    9  A    between atoms: C_23  and  C_24
REMARK   10  A    between atoms: C_24  and  N_60
REMARK                            x       y       z     vdW  Elec       q    Type
REMARK                         _______ _______ _______ _____ _____    ______ ____
ROOT
ATOM      1  S   UNL     1       1.076   5.604  -2.499  0.00  0.00    -0.079 S 
ENDROOT
BRANCH   1   6
ATOM      2  N   UNL     1      -0.069   5.244   0.031  0.00  0.00    -0.270 N 
ATOM      3  C   UNL     1      -0.540   6.066   1.033  0.00  0.00    +0.176 A 
ATOM      4  N   UNL     1      -0.364   7.305   0.628  0.00  0.00    -0.127 NA
ATOM      5  N   UNL     1       0.168   7.313  -0.542  0.00  0.00    -0.122 NA
ATOM      6  C   UNL     1       0.371   6.084  -0.957  0.00  0.00    +0.197 A 
BRANCH   2  12
ATOM      7  C   UNL     1       2.490   1.044  -0.016  0.00  0.00    +0.044 C 
ATOM      8  C   UNL     1       1.176   1.782   0.000  0.00  0.00    -0.048 A 
ATOM      9  C   UNL     1      -0.013   1.076   0.008  0.00  0.00    +0.003 A 
ATOM     10  C   UNL     1      -1.220   1.749   0.017  0.00  0.00    +0.002 A 
ATOM     11  C   UNL     1      -1.242   3.131   0.031  0.00  0.00    +0.026 A 
ATOM     12  C   UNL     1      -0.050   3.842   0.024  0.00  0.00    +0.051 A 
ATOM     13  C   UNL     1       1.161   3.163   0.008  0.00  0.00    +0.029 A 
ENDBRANCH   2  12
BRANCH   3  14
ATOM     14  C   UNL     1      -1.125   5.639   2.314  0.00  0.00    +0.057 A 
ATOM     15  C   UNL     1      -1.353   6.376   3.449  0.00  0.00    +0.019 A 
ATOM     16  C   UNL     1      -1.919   5.753   4.539  0.00  0.00    +0.008 A 
ATOM     17  C   UNL     1      -2.233   4.434   4.458  0.00  0.00    +0.046 A 
ATOM     18  S   UNL     1      -1.731   4.029   2.793  0.00  0.00    -0.094 S 
ENDBRANCH   3  14
ENDBRANCH   1   6
BRANCH   1  19
ATOM     19  C   UNL     1       1.387   7.234  -3.222  0.00  0.00    +0.140 C 
BRANCH  19  20
ATOM     20  C   UNL     1       2.008   7.068  -4.585  0.00  0.00    +0.089 A 
ATOM     21  N   UNL     1       1.414   6.963  -5.746  0.00  0.00    -0.239 NA
ATOM     22  C   UNL     1       2.141   6.826  -6.856  0.00  0.00    +0.133 A 
ATOM     23  C   UNL     1       3.505   6.789  -6.721  0.00  0.00    +0.080 A 
ATOM     24  S   UNL     1       3.688   6.962  -5.004  0.00  0.00    -0.079 S 
BRANCH  22  25
ATOM     25  C   UNL     1       1.501   6.711  -8.178  0.00  0.00    +0.263 C 
ATOM     26  O   UNL     1       2.185   6.582  -9.175  0.00  0.00    -0.269 OA
ATOM     27  N   UNL     1       0.158   6.750  -8.282  0.00  0.00    -0.312 N 
ATOM     28  H   UNL     1      -0.387   6.853  -7.487  0.00  0.00    +0.149 HD
BRANCH  27  29
ATOM     29  C   UNL     1      -0.478   6.636  -9.597  0.00  0.00    +0.086 C 
BRANCH  29  30
ATOM     30  C   UNL     1      -1.998   6.709  -9.436  0.00  0.00    -0.060 C 
BRANCH  30  35
ATOM     31  C   UNL     1      -2.149   5.393 -11.479  0.00  0.00    -0.079 C 
ATOM     32  C   UNL     1      -3.255   5.145 -12.536  0.00  0.00    -0.020 C 
ATOM     33  C   UNL     1      -4.550   5.502 -11.772  0.00  0.00    -0.020 C 
ATOM     34  C   UNL     1      -4.099   6.422 -10.622  0.00  0.00    -0.079 C 
ATOM     35  N   UNL     1      -2.652   6.582 -10.773  0.00  0.00    +0.381 N 
ATOM     36  H   UNL     1      -2.452   7.424 -11.326  0.00  0.00    -0.082 HD
ENDBRANCH  30  35
ENDBRANCH  29  30
ENDBRANCH  27  29
ENDBRANCH  22  25
ENDBRANCH  19  20
ENDBRANCH   1  19
TORSDOF 9
