REMARK  Name = ZINC33777294
REMARK  6 active torsions:
REMARK  status: ('A' for Active; 'I' for Inactive)
REMARK    1  A    between atoms: C_4  and  C_7
REMARK    2  A    between atoms: C_7  and  C_8
REMARK    3  A    between atoms: C_8  and  C_10
REMARK    4  A    between atoms: C_8  and  N_28
REMARK    5  A    between atoms: C_12  and  C_15
REMARK    6  A    between atoms: N_17  and  C_18
REMARK                            x       y       z     vdW  Elec       q    Type
REMARK                         _______ _______ _______ _____ _____    ______ ____
ROOT
ATOM      1  C   UNL     1       4.103   5.080  -1.455  0.00  0.00    +0.182 A 
ATOM      2  N   UNL     1       4.123   6.344  -1.753  0.00  0.00    -0.210 NA
ATOM      3  C   UNL     1       5.404   6.791  -1.651  0.00  0.00    +0.163 A 
ATOM      4  C   UNL     1       6.168   5.731  -1.272  0.00  0.00    +0.230 A 
ATOM      5  O   UNL     1       5.345   4.678  -1.150  0.00  0.00    -0.449 OA
ENDROOT
BRANCH   3   6
ATOM      6  C   UNL     1       5.875   8.165  -1.902  0.00  0.00    +0.266 C 
ATOM      7  O   UNL     1       7.053   8.437  -1.774  0.00  0.00    -0.268 OA
ATOM      8  N   UNL     1       4.999   9.120  -2.273  0.00  0.00    -0.307 N 
ATOM      9  H   UNL     1       3.933   8.874  -2.389  0.00  0.00    +0.149 HD
BRANCH   8  10
ATOM     10  C   UNL     1       5.467  10.486  -2.523  0.00  0.00    +0.079 C 
ATOM     11  C   UNL     1       5.522  11.256  -1.202  0.00  0.00    +0.010 C 
ATOM     12  C   UNL     1       6.011  12.682  -1.463  0.00  0.00    +0.009 C 
ATOM     13  C   UNL     1       5.048  13.384  -2.423  0.00  0.00    -0.010 C 
ATOM     14  C   UNL     1       3.651  13.429  -1.801  0.00  0.00    +0.007 C 
ATOM     15  C   UNL     1       3.162  12.003  -1.540  0.00  0.00    -0.010 C 
ATOM     16  C   UNL     1       4.125  11.302  -0.580  0.00  0.00    +0.009 C 
ATOM     17  C   UNL     1       3.107  11.233  -2.861  0.00  0.00    +0.009 C 
ATOM     18  C   UNL     1       4.504  11.188  -3.483  0.00  0.00    +0.010 C 
ATOM     19  C   UNL     1       4.993  12.614  -3.744  0.00  0.00    +0.009 C 
ENDBRANCH   8  10
ENDBRANCH   3   6
BRANCH   1  20
ATOM     20  C   UNL     1       2.876   4.205  -1.446  0.00  0.00    +0.017 C 
BRANCH  20  21
ATOM     21  N   UNL     1       3.178   2.931  -2.112  0.00  0.00    +0.386 N 
ATOM     22  H   UNL     1       3.483   3.124  -3.151  0.00  0.00    -0.089 HD
ATOM     23  H   UNL     1       2.282   2.292  -2.105  0.00  0.00    -0.089 HD
ATOM     24  H   UNL     1       3.994   2.423  -1.578  0.00  0.00    -0.089 HD
ENDBRANCH  20  21
BRANCH  20  25
ATOM     25  C   UNL     1       2.451   3.937  -0.001  0.00  0.00    +0.028 C 
BRANCH  25  29
ATOM     26  C   UNL     1      -1.219   1.751   0.017  0.00  0.00    +0.000 A 
ATOM     27  C   UNL     1      -0.013   1.076   0.008  0.00  0.00    +0.000 A 
ATOM     28  C   UNL     1       1.175   1.783   0.000  0.00  0.00    +0.003 A 
ATOM     29  C   UNL     1       1.156   3.165   0.008  0.00  0.00    -0.048 A 
ATOM     30  C   UNL     1      -0.050   3.840   0.023  0.00  0.00    +0.003 A 
ATOM     31  C   UNL     1      -1.238   3.133   0.030  0.00  0.00    +0.000 A 
ENDBRANCH  25  29
ENDBRANCH  20  25
ENDBRANCH   1  20
TORSDOF 6
