REMARK  Name = ZINC49211730
REMARK  4 active torsions:
REMARK  status: ('A' for Active; 'I' for Inactive)
REMARK    1  A    between atoms: C_1  and  C_2
REMARK    2  A    between atoms: N_7  and  C_8
REMARK    3  A    between atoms: N_10  and  C_11
REMARK    4  A    between atoms: C_11  and  C_14
REMARK                            x       y       z     vdW  Elec       q    Type
REMARK                         _______ _______ _______ _____ _____    ______ ____
ROOT
ATOM      1  C   UNL     1       1.698  -6.095  -1.127  0.00  0.00    +0.326 C 
ATOM      2  O   UNL     1       1.717  -6.976  -1.969  0.00  0.00    -0.251 OA
ATOM      3  N   UNL     1       0.808  -6.148  -0.117  0.00  0.00    -0.288 N 
ATOM      4  H   UNL     1       0.842  -5.489   0.595  0.00  0.00    +0.151 HD
ENDROOT
BRANCH   1  11
ATOM      5  C   UNL     1       6.436  -4.027  -4.843  0.00  0.00    +0.053 C 
ATOM      6  C   UNL     1       5.310  -4.552  -3.991  0.00  0.00    +0.006 A 
ATOM      7  C   UNL     1       4.579  -5.659  -4.151  0.00  0.00    +0.095 A 
ATOM      8  N   UNL     1       3.609  -5.907  -3.228  0.00  0.00    -0.342 N 
ATOM      9  H   UNL     1       3.051  -6.697  -3.298  0.00  0.00    +0.167 HD
ATOM     10  C   UNL     1       3.438  -5.025  -2.205  0.00  0.00    +0.165 A 
ATOM     11  N   UNL     1       2.559  -5.077  -1.206  0.00  0.00    -0.139 NA
ATOM     12  S   UNL     1       4.613  -3.859  -2.503  0.00  0.00    -0.058 S 
ENDBRANCH   1  11
BRANCH   3  13
ATOM     13  C   UNL     1      -0.211  -7.200  -0.092  0.00  0.00    +0.061 C 
ATOM     14  C   UNL     1      -0.395  -7.976   1.214  0.00  0.00    +0.033 C 
ATOM     15  C   UNL     1       0.271  -8.648   0.012  0.00  0.00    +0.033 C 
BRANCH  13  16
ATOM     16  C   UNL     1      -1.440  -6.933  -0.922  0.00  0.00    -0.024 A 
ATOM     17  C   UNL     1      -2.428  -7.896  -1.024  0.00  0.00    +0.007 A 
ATOM     18  C   UNL     1      -3.556  -7.651  -1.784  0.00  0.00    +0.015 A 
ATOM     19  C   UNL     1      -3.696  -6.444  -2.445  0.00  0.00    +0.018 A 
ATOM     20  C   UNL     1      -2.708  -5.481  -2.343  0.00  0.00    +0.015 A 
ATOM     21  C   UNL     1      -1.583  -5.724  -1.577  0.00  0.00    +0.007 A 
ATOM     22 BR   UNL     1      -5.239  -6.109  -3.486  0.00  0.00    -0.050 Br
ENDBRANCH  13  16
ENDBRANCH   3  13
TORSDOF 3
