REMARK  Name = ZINC40302918
REMARK  4 active torsions:
REMARK  status: ('A' for Active; 'I' for Inactive)
REMARK    1  A    between atoms: C_1  and  N_2
REMARK    2  A    between atoms: N_2  and  C_3
REMARK    3  A    between atoms: C_9  and  C_11
REMARK    4  A    between atoms: C_12  and  N_16
REMARK                            x       y       z     vdW  Elec       q    Type
REMARK                         _______ _______ _______ _____ _____    ______ ____
ROOT
ATOM      1  C   UNL     1      -0.095   1.461   0.013  0.00  0.00    +0.132 C 
ATOM      2  N   UNL     1      -0.027  -0.003   0.003  0.00  0.00    -0.296 N 
ATOM      3  C   UNL     1      -0.102  -0.673  -1.163  0.00  0.00    +0.255 C 
ATOM      4  O   UNL     1      -0.151  -1.890  -1.164  0.00  0.00    -0.269 OA
ENDROOT
BRANCH   2   5
ATOM      5  C   UNL     1       0.123  -0.737   1.262  0.00  0.00    +0.087 C 
ATOM      6  C   UNL     1      -1.102  -0.468   2.135  0.00  0.00    +0.034 C 
ATOM      7  C   UNL     1      -0.729  -0.588   3.639  0.00  0.00    +0.071 C 
ATOM      8  S   UNL     1       0.935   0.212   3.608  0.00  0.00    -0.159 S 
ATOM      9  C   UNL     1       1.449  -0.317   1.924  0.00  0.00    +0.091 C 
ENDBRANCH   2   5
BRANCH   3  10
ATOM     10  C   UNL     1      -0.123   0.037  -2.387  0.00  0.00    +0.095 A 
ATOM     11  C   UNL     1      -0.322  -0.446  -3.681  0.00  0.00    +0.044 A 
ATOM     12  C   UNL     1      -0.287   0.507  -4.681  0.00  0.00    +0.031 A 
ATOM     13  C   UNL     1      -0.068   1.800  -4.349  0.00  0.00    +0.048 A 
ATOM     14  S   UNL     1       0.090   1.783  -2.678  0.00  0.00    -0.090 S 
BRANCH  11  15
ATOM     15  N   UNL     1      -0.542  -1.795  -3.946  0.00  0.00    -0.357 N 
ATOM     16  H   UNL     1      -0.560  -2.436  -3.217  0.00  0.00    +0.142 HD
ATOM     17  H   UNL     1      -0.677  -2.094  -4.858  0.00  0.00    +0.142 HD
ENDBRANCH  11  15
ENDBRANCH   3  10
TORSDOF 3
