REMARK  Name = ZINC09468608
REMARK  8 active torsions:
REMARK  status: ('A' for Active; 'I' for Inactive)
REMARK    1  A    between atoms: C_4  and  C_7
REMARK    2  A    between atoms: C_10  and  N_13
REMARK    3  A    between atoms: C_14  and  C_16
REMARK    4  A    between atoms: C_16  and  N_17
REMARK    5  A    between atoms: N_17  and  C_18
REMARK    6  A    between atoms: C_23  and  C_24
REMARK    7  A    between atoms: N_26  and  C_27
REMARK    8  A    between atoms: C_27  and  C_28
REMARK                            x       y       z     vdW  Elec       q    Type
REMARK                         _______ _______ _______ _____ _____    ______ ____
ROOT
ATOM      1  N   UNL     1      -2.371   5.708  -4.402  0.00  0.00    -0.335 N 
ATOM      2  H   UNL     1      -2.442   4.740  -4.385  0.00  0.00    +0.147 HD
ENDROOT
BRANCH   1   3
ATOM      3  C   UNL     1      -1.864   6.386  -3.301  0.00  0.00    +0.040 A 
ATOM      4  C   UNL     1      -1.862   7.776  -3.277  0.00  0.00    +0.024 A 
ATOM      5  C   UNL     1      -1.352   8.447  -2.185  0.00  0.00    +0.002 A 
ATOM      6  C   UNL     1      -0.844   7.745  -1.104  0.00  0.00    +0.001 A 
ATOM      7  C   UNL     1      -0.842   6.367  -1.107  0.00  0.00    +0.015 A 
ATOM      8  C   UNL     1      -1.354   5.672  -2.206  0.00  0.00    +0.057 A 
BRANCH   8   9
ATOM      9  C   UNL     1      -1.355   4.198  -2.216  0.00  0.00    +0.246 C 
ATOM     10  O   UNL     1      -1.892   3.596  -3.126  0.00  0.00    -0.270 OA
ATOM     11  N   UNL     1      -0.759   3.517  -1.217  0.00  0.00    -0.309 N 
ATOM     12  H   UNL     1      -0.331   3.996  -0.491  0.00  0.00    +0.149 HD
BRANCH  11  13
ATOM     13  C   UNL     1      -0.760   2.052  -1.228  0.00  0.00    +0.136 C 
BRANCH  13  14
ATOM     14  C   UNL     1      -0.024   1.533   0.009  0.00  0.00    +0.135 C 
ATOM     15  C   UNL     1      -0.019  -0.008   0.008  0.00  0.00    +0.035 C 
ATOM     16  C   UNL     1       1.483  -0.383   0.028  0.00  0.00    +0.031 C 
ATOM     17  C   UNL     1       2.133   0.912   0.579  0.00  0.00    +0.160 C 
ATOM     18  O   UNL     1       1.346   1.965  -0.020  0.00  0.00    -0.375 OA
ENDBRANCH  13  14
ENDBRANCH  11  13
ENDBRANCH   8   9
ENDBRANCH   1   3
BRANCH   1  19
ATOM     19  C   UNL     1      -2.799   6.453  -5.588  0.00  0.00    +0.198 C 
BRANCH  19  21
ATOM     20  N   UNL     1      -3.755   5.953  -7.814  0.00  0.00    -0.284 N 
ATOM     21  C   UNL     1      -3.305   5.490  -6.631  0.00  0.00    +0.234 C 
ATOM     22  O   UNL     1      -3.308   4.298  -6.405  0.00  0.00    -0.274 OA
ATOM     23  H   UNL     1      -3.694   6.899  -8.020  0.00  0.00    +0.155 HD
BRANCH  20  27
ATOM     24  C   UNL     1      -5.408   3.319 -10.591  0.00  0.00    -0.018 A 
ATOM     25  C   UNL     1      -5.913   4.612 -10.468  0.00  0.00    +0.010 A 
ATOM     26  C   UNL     1      -5.365   5.481  -9.549  0.00  0.00    +0.024 A 
ATOM     27  C   UNL     1      -4.309   5.069  -8.745  0.00  0.00    +0.033 A 
ATOM     28  C   UNL     1      -3.800   3.782  -8.870  0.00  0.00    +0.024 A 
ATOM     29  C   UNL     1      -4.349   2.908  -9.783  0.00  0.00    +0.010 A 
BRANCH  24  33
ATOM     30  C   UNL     1      -7.093   0.633 -13.424  0.00  0.00    +0.000 A 
ATOM     31  C   UNL     1      -6.042   0.221 -12.624  0.00  0.00    +0.001 A 
ATOM     32  C   UNL     1      -5.491   1.089 -11.703  0.00  0.00    +0.008 A 
ATOM     33  C   UNL     1      -5.995   2.382 -11.579  0.00  0.00    -0.018 A 
ATOM     34  C   UNL     1      -7.058   2.790 -12.384  0.00  0.00    +0.008 A 
ATOM     35  C   UNL     1      -7.597   1.915 -13.306  0.00  0.00    +0.001 A 
ENDBRANCH  24  33
ENDBRANCH  20  27
ENDBRANCH  19  21
ENDBRANCH   1  19
TORSDOF 8
