REMARK  Name = ZINC02555379
REMARK  2 active torsions:
REMARK  status: ('A' for Active; 'I' for Inactive)
REMARK    1  A    between atoms: C_9  and  C_12
REMARK    2  A    between atoms: C_15  and  O_23
REMARK                            x       y       z     vdW  Elec       q    Type
REMARK                         _______ _______ _______ _____ _____    ______ ____
ROOT
ATOM      1  C   UNL     1       4.892   3.922  -0.212  0.00  0.00    +0.041 A 
ATOM      2  C   UNL     1       5.220   4.352   1.035  0.00  0.00    +0.026 A 
ATOM      3  C   UNL     1       6.466   5.101   1.202  0.00  0.00    +0.059 A 
ATOM      4  C   UNL     1       6.863   5.573   2.463  0.00  0.00    +0.128 A 
ATOM      5  C   UNL     1       8.048   6.277   2.584  0.00  0.00    +0.046 A 
ATOM      6  C   UNL     1       8.836   6.514   1.470  0.00  0.00    +0.007 A 
ATOM      7  C   UNL     1       8.456   6.054   0.225  0.00  0.00    +0.047 A 
ATOM      8  C   UNL     1       7.272   5.346   0.076  0.00  0.00    +0.143 A 
ATOM      9  O   UNL     1       6.889   4.890  -1.136  0.00  0.00    -0.422 OA
ATOM     10  C   UNL     1       5.750   4.198  -1.296  0.00  0.00    +0.341 A 
ATOM     11  O   UNL     1       5.448   3.802  -2.408  0.00  0.00    -0.245 OA
ENDROOT
BRANCH   1  20
ATOM     12  C   UNL     1      -1.220   1.743   0.017  0.00  0.00    +0.000 A 
ATOM     13  C   UNL     1      -1.239   3.126   0.027  0.00  0.00    +0.000 A 
ATOM     14  C   UNL     1      -0.052   3.828   0.020  0.00  0.00    +0.004 A 
ATOM     15  C   UNL     1       1.165   3.157   0.009  0.00  0.00    -0.044 A 
ATOM     16  C   UNL     1       1.184   1.781   0.000  0.00  0.00    -0.044 A 
ATOM     17  C   UNL     1      -0.013   1.076   0.008  0.00  0.00    +0.004 A 
ATOM     18  C   UNL     1       2.465   0.989  -0.022  0.00  0.00    +0.036 C 
ATOM     19  C   UNL     1       3.644   1.862   0.401  0.00  0.00    +0.013 C 
ATOM     20  C   UNL     1       3.619   3.147  -0.434  0.00  0.00    +0.031 C 
ATOM     21  C   UNL     1       2.422   3.986   0.010  0.00  0.00    +0.043 C 
ENDBRANCH   1  20
BRANCH   4  22
ATOM     22  O   UNL     1       6.091   5.340   3.555  0.00  0.00    -0.506 OA
ATOM     23  H   UNL     1       6.407   5.712   4.541  0.00  0.00    +0.292 HD
ENDBRANCH   4  22
TORSDOF 2
