REMARK  Name = ZINC35514101
REMARK  9 active torsions:
REMARK  status: ('A' for Active; 'I' for Inactive)
REMARK    1  A    between atoms: C_1  and  C_2
REMARK    2  A    between atoms: C_3  and  C_36
REMARK    3  A    between atoms: C_8  and  C_24
REMARK    4  A    between atoms: C_28  and  O_30
REMARK    5  A    between atoms: O_30  and  C_31
REMARK    6  A    between atoms: C_31  and  C_32
REMARK    7  A    between atoms: C_32  and  C_33
REMARK    8  A    between atoms: C_33  and  C_34
REMARK    9  A    between atoms: C_33  and  C_35
REMARK                            x       y       z     vdW  Elec       q    Type
REMARK                         _______ _______ _______ _____ _____    ______ ____
ROOT
ATOM      1  C   UNL     1      -0.018   1.503   0.010  0.00  0.00    +0.066 C 
ATOM      2  C   UNL     1       0.002  -0.004   0.002  0.00  0.00    +0.050 A 
ATOM      3  C   UNL     1       0.006  -0.706  -1.158  0.00  0.00    +0.011 A 
ATOM      4  S   UNL     1       0.032  -2.379  -0.535  0.00  0.00    -0.057 S 
ATOM      5  C   UNL     1       0.036  -2.015   1.108  0.00  0.00    +0.169 A 
ATOM      6  N   UNL     1       0.023  -0.699   1.124  0.00  0.00    -0.229 NA
ATOM      7  N   UNL     1       0.053  -2.890   2.185  0.00  0.00    -0.232 N 
ATOM      8  C   UNL     1       0.050  -2.511   3.608  0.00  0.00    +0.152 C 
ATOM      9  C   UNL     1       0.077  -3.795   4.371  0.00  0.00    +0.072 A 
ATOM     10  C   UNL     1       0.095  -4.061   5.812  0.00  0.00    +0.199 A 
ATOM     11  O   UNL     1      -0.087  -3.199   6.653  0.00  0.00    -0.287 OA
ATOM     12  C   UNL     1       0.356  -5.484   6.150  0.00  0.00    +0.066 A 
ATOM     13  C   UNL     1       0.601  -5.862   7.470  0.00  0.00    +0.035 A 
ATOM     14  C   UNL     1       0.846  -7.185   7.765  0.00  0.00    +0.042 A 
ATOM     15  C   UNL     1       0.849  -8.135   6.751  0.00  0.00    +0.023 A 
ATOM     16  C   UNL     1       0.606  -7.773   5.446  0.00  0.00    +0.048 A 
ATOM     17  C   UNL     1       0.353  -6.440   5.122  0.00  0.00    +0.140 A 
ATOM     18  O   UNL     1       0.107  -6.114   3.832  0.00  0.00    -0.450 OA
ATOM     19  C   UNL     1       0.089  -4.818   3.465  0.00  0.00    +0.199 A 
ATOM     20  C   UNL     1       0.071  -4.237   2.112  0.00  0.00    +0.289 C 
ATOM     21  O   UNL     1       0.075  -4.877   1.079  0.00  0.00    -0.266 OA
ATOM     22 CL   UNL     1       1.153  -7.666   9.405  0.00  0.00    -0.084 Cl
ATOM     23  C   UNL     1      -0.009  -0.211  -2.582  0.00  0.00    +0.053 C 
ENDROOT
BRANCH   8  24
ATOM     24  C   UNL     1      -1.200  -1.736   3.936  0.00  0.00    -0.019 A 
ATOM     25  C   UNL     1      -2.408  -2.100   3.370  0.00  0.00    +0.006 A 
ATOM     26  C   UNL     1      -3.556  -1.391   3.668  0.00  0.00    +0.004 A 
ATOM     27  C   UNL     1      -3.500  -0.315   4.534  0.00  0.00    +0.045 A 
ATOM     28  C   UNL     1      -2.289   0.053   5.103  0.00  0.00    +0.121 A 
ATOM     29  C   UNL     1      -1.139  -0.665   4.806  0.00  0.00    +0.051 A 
BRANCH  28  30
ATOM     30  O   UNL     1      -2.231   1.110   5.954  0.00  0.00    -0.492 OA
BRANCH  30  31
ATOM     31  C   UNL     1      -3.455   1.799   6.218  0.00  0.00    +0.229 C 
BRANCH  31  32
ATOM     32  C   UNL     1      -3.193   2.950   7.191  0.00  0.00    +0.044 C 
BRANCH  32  33
ATOM     33  C   UNL     1      -4.504   3.687   7.474  0.00  0.00    -0.014 C 
ATOM     34  C   UNL     1      -4.266   4.759   8.540  0.00  0.00    +0.007 C 
ATOM     35  C   UNL     1      -5.005   4.349   6.188  0.00  0.00    +0.007 C 
ENDBRANCH  32  33
ENDBRANCH  31  32
ENDBRANCH  30  31
ENDBRANCH  28  30
ENDBRANCH   8  24
TORSDOF 5
