REMARK  Name = ZINC57862358
REMARK  8 active torsions:
REMARK  status: ('A' for Active; 'I' for Inactive)
REMARK    1  A    between atoms: C_1  and  C_2
REMARK    2  A    between atoms: C_5  and  S_8
REMARK    3  A    between atoms: S_8  and  N_11
REMARK    4  A    between atoms: N_11  and  C_12
REMARK    5  A    between atoms: C_12  and  C_13
REMARK    6  A    between atoms: C_13  and  N_14
REMARK    7  A    between atoms: N_17  and  C_18
REMARK    8  A    between atoms: C_18  and  C_19
REMARK                            x       y       z     vdW  Elec       q    Type
REMARK                         _______ _______ _______ _____ _____    ______ ____
ROOT
ATOM      1  N   UNL     1       4.930  -4.824   1.888  0.00  0.00    -0.298 N 
ATOM      2  C   UNL     1       5.982  -5.625   2.151  0.00  0.00    +0.300 C 
ATOM      3  O   UNL     1       6.232  -6.560   1.416  0.00  0.00    -0.253 OA
ATOM      4  N   UNL     1       6.755  -5.389   3.229  0.00  0.00    -0.295 N 
ATOM      5  H   UNL     1       4.730  -4.078   2.475  0.00  0.00    +0.150 HD
ATOM      6  H   UNL     1       6.555  -4.643   3.816  0.00  0.00    +0.151 HD
ENDROOT
BRANCH   1   7
ATOM      7  C   UNL     1       4.089  -5.080   0.716  0.00  0.00    +0.122 C 
BRANCH   7   8
ATOM      8  C   UNL     1       2.975  -4.034   0.649  0.00  0.00    +0.124 C 
BRANCH   8   9
ATOM      9  N   UNL     1       2.134  -4.290  -0.522  0.00  0.00    -0.188 NA
ATOM     10  H   UNL     1       2.446  -4.885  -1.222  0.00  0.00    +0.148 HD
BRANCH   9  11
ATOM     11  S   UNL     1       0.652  -3.563  -0.653  0.00  0.00    +0.058 S 
ATOM     12  O   UNL     1      -0.013  -3.772   0.586  0.00  0.00    -0.153 OA
ATOM     13  O   UNL     1       0.101  -3.984  -1.893  0.00  0.00    -0.153 OA
BRANCH  11  18
ATOM     14  C   UNL     1       1.606   2.376  -1.116  0.00  0.00    +0.044 C 
ATOM     15  C   UNL     1       1.368   0.893  -1.000  0.00  0.00    -0.050 A 
ATOM     16  C   UNL     1       1.314   0.110  -2.139  0.00  0.00    +0.005 A 
ATOM     17  C   UNL     1       1.096  -1.250  -2.033  0.00  0.00    +0.029 A 
ATOM     18  C   UNL     1       0.931  -1.829  -0.788  0.00  0.00    +0.105 A 
ATOM     19  C   UNL     1       0.986  -1.047   0.350  0.00  0.00    +0.029 A 
ATOM     20  C   UNL     1       1.209   0.313   0.244  0.00  0.00    +0.005 A 
ENDBRANCH  11  18
ENDBRANCH   9  11
ENDBRANCH   8   9
ENDBRANCH   7   8
ENDBRANCH   1   7
BRANCH   4  21
ATOM     21  C   UNL     1       7.898  -6.260   3.515  0.00  0.00    +0.142 C 
BRANCH  21  22
ATOM     22  C   UNL     1       8.592  -5.784   4.766  0.00  0.00    -0.014 A 
ATOM     23  C   UNL     1       9.616  -4.849   4.687  0.00  0.00    +0.010 A 
ATOM     24  C   UNL     1      10.227  -4.439   5.858  0.00  0.00    +0.042 A 
ATOM     25  C   UNL     1       9.796  -4.974   7.069  0.00  0.00    +0.099 A 
ATOM     26  N   UNL     1       8.816  -5.863   7.102  0.00  0.00    -0.349 N 
ATOM     27  C   UNL     1       8.212  -6.268   6.001  0.00  0.00    +0.089 A 
ATOM     28  N   UNL     1      10.401  -4.571   8.254  0.00  0.00    -0.317 N 
ATOM     29  C   UNL     1      11.366  -3.494   8.208  0.00  0.00    +0.106 C 
ATOM     30  C   UNL     1      12.780  -4.074   7.956  0.00  0.00    +0.019 C 
ATOM     31  C   UNL     1      13.261  -4.785   9.151  0.00  0.00    +0.002 C 
ATOM     32  C   UNL     1      12.420  -5.996   9.542  0.00  0.00    +0.002 C 
ATOM     33  C   UNL     1      11.258  -5.545  10.393  0.00  0.00    +0.019 C 
ATOM     34  C   UNL     1      10.028  -5.255   9.507  0.00  0.00    +0.106 C 
ATOM     35  H   UNL     1       8.533  -6.222   7.957  0.00  0.00    +0.167 HD
ENDBRANCH  21  22
ENDBRANCH   4  21
TORSDOF 7
