REMARK  Name = ZINC49211652
REMARK  5 active torsions:
REMARK  status: ('A' for Active; 'I' for Inactive)
REMARK    1  A    between atoms: C_1  and  C_2
REMARK    2  A    between atoms: C_2  and  N_3
REMARK    3  A    between atoms: C_5  and  N_10
REMARK    4  A    between atoms: N_13  and  C_14
REMARK    5  A    between atoms: C_14  and  C_15
REMARK                            x       y       z     vdW  Elec       q    Type
REMARK                         _______ _______ _______ _____ _____    ______ ____
ROOT
ATOM      1  N   UNL     1       4.120  -1.343   2.154  0.00  0.00    -0.268 N 
ATOM      2  C   UNL     1       4.805  -1.691   3.261  0.00  0.00    +0.304 C 
ATOM      3  O   UNL     1       4.211  -1.919   4.297  0.00  0.00    -0.253 OA
ATOM      4  N   UNL     1       6.149  -1.788   3.219  0.00  0.00    -0.297 N 
ATOM      5  H   UNL     1       4.585  -1.229   1.311  0.00  0.00    +0.156 HD
ATOM      6  H   UNL     1       6.622  -1.607   2.392  0.00  0.00    +0.150 HD
ENDROOT
BRANCH   1   9
ATOM      7  N   UNL     1       0.852   0.252   1.908  0.00  0.00    -0.314 N 
ATOM      8  C   UNL     1       2.195   0.048   1.847  0.00  0.00    +0.112 A 
ATOM      9  C   UNL     1       2.731  -1.143   2.222  0.00  0.00    +0.051 A 
ATOM     10  C   UNL     1       1.892  -2.175   2.677  0.00  0.00    +0.030 A 
ATOM     11  C   UNL     1       0.546  -1.963   2.736  0.00  0.00    +0.072 A 
ATOM     12  C   UNL     1       0.027  -0.717   2.346  0.00  0.00    +0.251 A 
ATOM     13  O   UNL     1      -1.176  -0.515   2.399  0.00  0.00    -0.268 OA
BRANCH   7  15
ATOM     14  C   UNL     1       0.246   2.483   2.707  0.00  0.00    +0.027 C 
ATOM     15  C   UNL     1       0.297   1.545   1.499  0.00  0.00    +0.121 C 
ENDBRANCH   7  15
ENDBRANCH   1   9
BRANCH   4  16
ATOM     16  C   UNL     1       6.894  -2.167   4.422  0.00  0.00    +0.137 C 
BRANCH  16  17
ATOM     17  C   UNL     1       8.390  -2.204   4.104  0.00  0.00    +0.135 C 
ATOM     18  C   UNL     1       9.169  -2.600   5.361  0.00  0.00    +0.033 C 
ATOM     19  C   UNL     1      10.660  -2.693   5.021  0.00  0.00    +0.005 C 
ATOM     20  C   UNL     1      10.850  -3.696   3.878  0.00  0.00    +0.028 C 
ATOM     21  C   UNL     1      10.006  -3.257   2.679  0.00  0.00    +0.160 C 
ATOM     22  O   UNL     1       8.635  -3.160   3.072  0.00  0.00    -0.375 OA
ENDBRANCH  16  17
ENDBRANCH   4  16
TORSDOF 4
