REMARK  Name = ZINC66141132
REMARK  11 active torsions:
REMARK  status: ('A' for Active; 'I' for Inactive)
REMARK    1  A    between atoms: C_1  and  C_2
REMARK    2  A    between atoms: C_2  and  C_3
REMARK    3  A    between atoms: C_2  and  C_4
REMARK    4  A    between atoms: C_4  and  C_5
REMARK    5  A    between atoms: C_5  and  O_6
REMARK    6  A    between atoms: O_6  and  C_7
REMARK    7  A    between atoms: C_8  and  N_18
REMARK    8  A    between atoms: C_10  and  C_14
REMARK    9  A    between atoms: C_14  and  C_15
REMARK   10  A    between atoms: C_14  and  C_16
REMARK   11  A    between atoms: C_14  and  C_17
REMARK                            x       y       z     vdW  Elec       q    Type
REMARK                         _______ _______ _______ _____ _____    ______ ____
ROOT
ATOM      1  C   UNL     1      -2.919  -3.898  -0.222  0.00  0.00    +0.155 A 
ATOM      2  C   UNL     1      -3.044  -4.485  -1.480  0.00  0.00    +0.068 A 
ATOM      3  C   UNL     1      -3.210  -5.858  -1.587  0.00  0.00    +0.030 A 
ATOM      4  C   UNL     1      -3.250  -6.640  -0.448  0.00  0.00    -0.039 A 
ATOM      5  C   UNL     1      -3.125  -6.058   0.799  0.00  0.00    +0.023 A 
ATOM      6  C   UNL     1      -2.954  -4.690   0.914  0.00  0.00    +0.062 A 
ATOM      7 BR   UNL     1      -2.776  -3.899   2.623  0.00  0.00    -0.046 Br
ENDROOT
BRANCH   4   8
ATOM      8  C   UNL     1      -3.430  -8.132  -0.567  0.00  0.00    -0.013 C 
ATOM      9  C   UNL     1      -2.278  -8.722  -1.382  0.00  0.00    +0.015 C 
ATOM     10  C   UNL     1      -3.440  -8.757   0.829  0.00  0.00    +0.015 C 
ATOM     11  C   UNL     1      -4.756  -8.431  -1.269  0.00  0.00    +0.015 C 
ENDBRANCH   4   8
BRANCH   2  12
ATOM     12  N   UNL     1      -3.004  -3.691  -2.632  0.00  0.00    -0.355 N 
ATOM     13  H   UNL     1      -2.889  -2.731  -2.555  0.00  0.00    +0.142 HD
ATOM     14  H   UNL     1      -3.091  -4.101  -3.506  0.00  0.00    +0.142 HD
ENDBRANCH   2  12
BRANCH   1  15
ATOM     15  O   UNL     1      -2.756  -2.552  -0.111  0.00  0.00    -0.489 OA
BRANCH  15  16
ATOM     16  C   UNL     1      -1.416  -2.058  -0.121  0.00  0.00    +0.229 C 
BRANCH  16  17
ATOM     17  C   UNL     1      -1.433  -0.534   0.013  0.00  0.00    +0.044 C 
BRANCH  17  19
ATOM     18  C   UNL     1      -0.019   1.526   0.010  0.00  0.00    +0.007 C 
ATOM     19  C   UNL     1       0.002  -0.004   0.002  0.00  0.00    -0.014 C 
ATOM     20  C   UNL     1       0.742  -0.511   1.242  0.00  0.00    +0.007 C 
ENDBRANCH  17  19
ENDBRANCH  16  17
ENDBRANCH  15  16
ENDBRANCH   1  15
TORSDOF 6
