REMARK  Name = ZINC17022194
REMARK  7 active torsions:
REMARK  status: ('A' for Active; 'I' for Inactive)
REMARK    1  A    between atoms: C_4  and  C_7
REMARK    2  A    between atoms: N_8  and  C_9
REMARK    3  A    between atoms: C_10  and  C_25
REMARK    4  A    between atoms: C_11  and  C_23
REMARK    5  A    between atoms: C_12  and  N_22
REMARK    6  A    between atoms: N_13  and  N_14
REMARK    7  A    between atoms: C_15  and  C_16
REMARK                            x       y       z     vdW  Elec       q    Type
REMARK                         _______ _______ _______ _____ _____    ______ ____
ROOT
ATOM      1  C   UNL     1      -0.754   2.388   0.277  0.00  0.00    +0.175 A 
ATOM      2  C   UNL     1       0.459   1.708   0.186  0.00  0.00    +0.116 A 
ATOM      3  C   UNL     1       1.473   2.727  -0.145  0.00  0.00    +0.112 A 
ATOM      4  C   UNL     1       0.797   3.937  -0.222  0.00  0.00    +0.139 A 
ATOM      5  N   UNL     1      -0.524   3.721   0.033  0.00  0.00    -0.198 N 
ENDROOT
BRANCH   4   6
ATOM      6  N   UNL     1       1.369   5.159  -0.510  0.00  0.00    -0.342 N 
ATOM      7  H   UNL     1       2.322   5.221  -0.679  0.00  0.00    +0.144 HD
ATOM      8  H   UNL     1       0.818   5.957  -0.543  0.00  0.00    +0.144 HD
ENDBRANCH   4   6
BRANCH   1  10
ATOM      9  C   UNL     1      -2.710   1.390  -0.410  0.00  0.00    +0.121 C 
ATOM     10  N   UNL     1      -1.950   1.833   0.558  0.00  0.00    -0.234 NA
BRANCH   9  14
ATOM     11  C   UNL     1      -6.471  -0.356   0.476  0.00  0.00    +0.000 A 
ATOM     12  C   UNL     1      -6.051  -0.257  -0.839  0.00  0.00    +0.001 A 
ATOM     13  C   UNL     1      -4.830   0.309  -1.135  0.00  0.00    +0.009 A 
ATOM     14  C   UNL     1      -4.014   0.785  -0.103  0.00  0.00    -0.007 A 
ATOM     15  C   UNL     1      -4.444   0.675   1.224  0.00  0.00    +0.009 A 
ATOM     16  C   UNL     1      -5.670   0.112   1.504  0.00  0.00    +0.001 A 
ENDBRANCH   9  14
ENDBRANCH   1  10
BRANCH   5  17
ATOM     17  N   UNL     1      -1.510   4.716   0.042  0.00  0.00    -0.171 NA
ATOM     18  C   UNL     1      -1.900   5.253  -1.074  0.00  0.00    +0.141 C 
BRANCH  18  19
ATOM     19  C   UNL     1      -1.465   4.677  -2.360  0.00  0.00    -0.005 A 
ATOM     20  C   UNL     1      -1.730   5.351  -3.555  0.00  0.00    +0.009 A 
ATOM     21  C   UNL     1      -1.316   4.809  -4.754  0.00  0.00    +0.001 A 
ATOM     22  C   UNL     1      -0.650   3.596  -4.776  0.00  0.00    +0.000 A 
ATOM     23  C   UNL     1      -0.389   2.921  -3.597  0.00  0.00    +0.001 A 
ATOM     24  C   UNL     1      -0.792   3.454  -2.390  0.00  0.00    +0.009 A 
ENDBRANCH  18  19
ENDBRANCH   5  17
BRANCH   3  25
ATOM     25  C   UNL     1       2.875   2.512  -0.346  0.00  0.00    +0.104 C 
ATOM     26  N   UNL     1       3.986   2.341  -0.506  0.00  0.00    -0.191 NA
ENDBRANCH   3  25
BRANCH   2  27
ATOM     27  C   UNL     1       0.676   0.304   0.370  0.00  0.00    +0.104 C 
ATOM     28  N   UNL     1       0.848  -0.809   0.516  0.00  0.00    -0.191 NA
ENDBRANCH   2  27
TORSDOF 7
