REMARK  Name = ZINC36157035
REMARK  10 active torsions:
REMARK  status: ('A' for Active; 'I' for Inactive)
REMARK    1  A    between atoms: C_3  and  C_6
REMARK    2  A    between atoms: C_6  and  O_7
REMARK    3  A    between atoms: O_7  and  C_8
REMARK    4  A    between atoms: C_8  and  C_9
REMARK    5  A    between atoms: C_9  and  C_11
REMARK    6  A    between atoms: C_9  and  O_35
REMARK    7  A    between atoms: C_11  and  N_12
REMARK    8  A    between atoms: N_12  and  C_13
REMARK    9  A    between atoms: N_12  and  C_29
REMARK   10  A    between atoms: C_13  and  C_14
REMARK                            x       y       z     vdW  Elec       q    Type
REMARK                         _______ _______ _______ _____ _____    ______ ____
ROOT
ATOM      1  N   UNL     1       7.876   0.090   4.439  0.00  0.00    +0.388 N 
ATOM      2  H   UNL     1       7.376   0.538   5.193  0.00  0.00    -0.081 HD
ENDROOT
BRANCH   1   3
ATOM      3  C   UNL     1       7.659  -1.361   4.502  0.00  0.00    -0.068 C 
ATOM      4  C   UNL     1       8.246  -1.909   5.805  0.00  0.00    -0.015 C 
ATOM      5  C   UNL     1       8.020  -3.420   5.870  0.00  0.00    -0.002 C 
ATOM      6  C   UNL     1       8.708  -4.091   4.680  0.00  0.00    -0.000 C 
ATOM      7  C   UNL     1       8.121  -3.544   3.377  0.00  0.00    -0.002 C 
ATOM      8  C   UNL     1       8.347  -2.032   3.311  0.00  0.00    -0.015 C 
ENDBRANCH   1   3
BRANCH   1   9
ATOM      9  C   UNL     1       7.384   0.603   3.153  0.00  0.00    -0.044 C 
BRANCH   9  10
ATOM     10  C   UNL     1       5.867   0.419   3.077  0.00  0.00    +0.124 C 
BRANCH  10  11
ATOM     11  O   UNL     1       5.245   1.141   4.142  0.00  0.00    -0.391 OA
ATOM     12  H   UNL     1       5.418   2.093   4.125  0.00  0.00    +0.210 HD
ENDBRANCH  10  11
BRANCH  10  13
ATOM     13  C   UNL     1       5.356   0.948   1.735  0.00  0.00    +0.189 C 
BRANCH  13  14
ATOM     14  O   UNL     1       3.959   0.671   1.615  0.00  0.00    -0.370 OA
BRANCH  14  15
ATOM     15  C   UNL     1       3.380   1.126   0.391  0.00  0.00    +0.234 C 
BRANCH  15  18
ATOM     16  C   UNL     1      -0.289   0.856   0.614  0.00  0.00    +0.041 A 
ATOM     17  C   UNL     1       0.916   1.564   0.827  0.00  0.00    +0.047 A 
ATOM     18  C   UNL     1       1.912   0.783   0.371  0.00  0.00    +0.130 A 
ATOM     19  O   UNL     1       1.378  -0.353  -0.104  0.00  0.00    -0.465 OA
ATOM     20  C   UNL     1       0.043  -0.315   0.040  0.00  0.00    +0.195 A 
ENDBRANCH  15  18
ENDBRANCH  14  15
ENDBRANCH  13  14
ENDBRANCH  10  13
ENDBRANCH   9  10
ENDBRANCH   1   9
BRANCH   1  21
ATOM     21  C   UNL     1       9.311   0.377   4.564  0.00  0.00    -0.003 C 
BRANCH  21  22
ATOM     22  C   UNL     1       9.685   0.443   6.022  0.00  0.00    +0.094 A 
ATOM     23  N   UNL     1      10.992   0.558   6.371  0.00  0.00    -0.312 N 
ATOM     24  H   UNL     1      11.668   0.597   5.676  0.00  0.00    +0.170 HD
ATOM     25  C   UNL     1      11.370   0.621   7.662  0.00  0.00    +0.260 A 
ATOM     26  O   UNL     1      12.547   0.725   7.958  0.00  0.00    -0.267 OA
ATOM     27  C   UNL     1      10.364   0.563   8.681  0.00  0.00    +0.075 A 
ATOM     28  C   UNL     1      10.537   0.612  10.133  0.00  0.00    -0.023 A 
ATOM     29  C   UNL     1       9.419   0.539  10.885  0.00  0.00    -0.004 A 
ATOM     30  S   UNL     1       8.089   0.404   9.721  0.00  0.00    -0.073 S 
ATOM     31  C   UNL     1       9.042   0.444   8.224  0.00  0.00    +0.116 A 
ATOM     32  N   UNL     1       8.745   0.393   6.928  0.00  0.00    -0.229 NA
ATOM     33  C   UNL     1       9.329   0.566  12.381  0.00  0.00    +0.043 C 
ATOM     34  C   UNL     1      10.730   0.315  12.955  0.00  0.00    +0.005 C 
ATOM     35  C   UNL     1      11.729   1.219  12.227  0.00  0.00    +0.005 C 
ATOM     36  C   UNL     1      11.910   0.738  10.787  0.00  0.00    +0.037 C 
ENDBRANCH  21  22
ENDBRANCH   1  21
TORSDOF 10
