REMARK  Name = ZINC67029339
REMARK  6 active torsions:
REMARK  status: ('A' for Active; 'I' for Inactive)
REMARK    1  A    between atoms: C_1  and  C_2
REMARK    2  A    between atoms: C_3  and  C_21
REMARK    3  A    between atoms: C_4  and  C_10
REMARK    4  A    between atoms: C_13  and  C_15
REMARK    5  A    between atoms: C_21  and  O_23
REMARK    6  A    between atoms: O_23  and  C_24
REMARK                            x       y       z     vdW  Elec       q    Type
REMARK                         _______ _______ _______ _____ _____    ______ ____
ROOT
ATOM      1  C   UNL     1      -0.018   1.503   0.010  0.00  0.00    +0.061 C 
ATOM      2  C   UNL     1       0.002  -0.004   0.002  0.00  0.00    +0.021 C 
ATOM      3  C   UNL     1      -1.165  -0.684   0.004  0.00  0.00    +0.078 C 
ATOM      4  C   UNL     1      -1.098  -2.198  -0.005  0.00  0.00    +0.152 C 
ATOM      5  N   UNL     1       0.242  -2.807  -0.014  0.00  0.00    -0.287 N 
ATOM      6  C   UNL     1       1.317  -1.993  -0.015  0.00  0.00    +0.304 C 
ATOM      7  O   UNL     1       2.428  -2.486  -0.023  0.00  0.00    -0.252 OA
ATOM      8  N   UNL     1       1.200  -0.659  -0.013  0.00  0.00    -0.273 N 
ATOM      9  H   UNL     1       0.350  -3.771  -0.020  0.00  0.00    +0.151 HD
ATOM     10  H   UNL     1       2.012  -0.129  -0.018  0.00  0.00    +0.156 HD
ENDROOT
BRANCH   4  11
ATOM     11  C   UNL     1      -1.840  -2.689  -1.222  0.00  0.00    +0.035 A 
ATOM     12  C   UNL     1      -3.103  -3.179  -1.329  0.00  0.00    +0.125 A 
ATOM     13  N   UNL     1      -3.561  -3.555  -2.500  0.00  0.00    -0.247 NA
ATOM     14  C   UNL     1      -2.814  -3.468  -3.592  0.00  0.00    +0.109 A 
ATOM     15  S   UNL     1      -1.304  -2.780  -2.925  0.00  0.00    -0.070 S 
BRANCH  14  16
ATOM     16  C   UNL     1      -3.142  -3.835  -4.986  0.00  0.00    +0.007 A 
ATOM     17  C   UNL     1      -2.196  -3.666  -5.997  0.00  0.00    +0.010 A 
ATOM     18  C   UNL     1      -2.509  -4.011  -7.296  0.00  0.00    +0.001 A 
ATOM     19  C   UNL     1      -3.758  -4.523  -7.597  0.00  0.00    +0.000 A 
ATOM     20  C   UNL     1      -4.701  -4.693  -6.599  0.00  0.00    +0.001 A 
ATOM     21  C   UNL     1      -4.399  -4.358  -5.295  0.00  0.00    +0.010 A 
ENDBRANCH  14  16
ENDBRANCH   4  11
BRANCH   3  22
ATOM     22  C   UNL     1      -2.406  -0.006   0.014  0.00  0.00    +0.339 C 
ATOM     23  O   UNL     1      -2.435   1.210   0.021  0.00  0.00    -0.245 OA
BRANCH  22  24
ATOM     24  O   UNL     1      -3.558  -0.709   0.016  0.00  0.00    -0.465 OA
ATOM     25  C   UNL     1      -4.775   0.040   0.026  0.00  0.00    +0.280 C 
ENDBRANCH  22  24
ENDBRANCH   3  22
TORSDOF 4
