REMARK  Name = ZINC01128733
REMARK  10 active torsions:
REMARK  status: ('A' for Active; 'I' for Inactive)
REMARK    1  A    between atoms: C_1  and  C_2
REMARK    2  A    between atoms: C_2  and  C_3
REMARK    3  A    between atoms: C_2  and  C_4
REMARK    4  A    between atoms: C_2  and  C_5
REMARK    5  A    between atoms: C_12  and  N_18
REMARK    6  A    between atoms: C_13  and  C_14
REMARK    7  A    between atoms: C_14  and  O_16
REMARK    8  A    between atoms: O_16  and  C_17
REMARK    9  A    between atoms: C_19  and  C_21
REMARK   10  A    between atoms: C_21  and  C_22
REMARK                            x       y       z     vdW  Elec       q    Type
REMARK                         _______ _______ _______ _____ _____    ______ ____
ROOT
ATOM      1  N   UNL     1      -3.759  -0.175   0.036  0.00  0.00    -0.279 N 
ATOM      2  C   UNL     1      -4.713   0.777   0.050  0.00  0.00    +0.220 C 
ATOM      3  O   UNL     1      -4.400   1.949   0.054  0.00  0.00    -0.275 OA
ATOM      4  H   UNL     1      -4.009  -1.112   0.033  0.00  0.00    +0.155 HD
ENDROOT
BRANCH   1  11
ATOM      5  C   UNL     1       2.408   1.454  -0.393  0.00  0.00    -0.000 C 
ATOM      6  C   UNL     1       2.440   0.167   0.436  0.00  0.00    +0.009 C 
ATOM      7  C   UNL     1       1.319  -0.771  -0.014  0.00  0.00    +0.037 C 
ATOM      8  C   UNL     1       0.002  -0.004   0.002  0.00  0.00    -0.021 A 
ATOM      9  C   UNL     1      -0.016   1.346   0.009  0.00  0.00    -0.004 A 
ATOM     10  S   UNL     1      -1.734   1.776   0.020  0.00  0.00    -0.077 S 
ATOM     11  C   UNL     1      -2.420   0.185   0.025  0.00  0.00    +0.086 A 
ATOM     12  C   UNL     1      -1.304  -0.641   0.010  0.00  0.00    +0.091 A 
ATOM     13  C   UNL     1       1.166   2.266   0.003  0.00  0.00    +0.046 C 
BRANCH   5  15
ATOM     14  C   UNL     1       4.904   1.457  -0.493  0.00  0.00    +0.011 C 
ATOM     15  C   UNL     1       3.668   2.275  -0.114  0.00  0.00    -0.035 C 
ATOM     16  C   UNL     1       3.633   3.560  -0.944  0.00  0.00    +0.011 C 
ATOM     17  C   UNL     1       3.727   2.630   1.373  0.00  0.00    +0.011 C 
ENDBRANCH   5  15
BRANCH  12  18
ATOM     18  C   UNL     1      -1.439  -2.099   0.004  0.00  0.00    +0.342 C 
ATOM     19  O   UNL     1      -1.485  -2.711   1.054  0.00  0.00    -0.245 OA
BRANCH  18  20
ATOM     20  O   UNL     1      -1.511  -2.764  -1.168  0.00  0.00    -0.464 OA
ATOM     21  C   UNL     1      -1.643  -4.209  -1.098  0.00  0.00    +0.280 C 
ENDBRANCH  18  20
ENDBRANCH  12  18
ENDBRANCH   1  11
BRANCH   2  22
ATOM     22  C   UNL     1      -6.168   0.385   0.061  0.00  0.00    +0.127 C 
BRANCH  22  23
ATOM     23  C   UNL     1      -7.035   1.645   0.076  0.00  0.00    +0.166 C 
ATOM     24  C   UNL     1      -8.489   1.259  -0.031  0.00  0.00    +0.238 C 
ATOM     25  O   UNL     1      -9.008   1.178  -1.124  0.00  0.00    -0.273 OA
ATOM     26  N   UNL     1      -9.216   1.004   1.072  0.00  0.00    -0.282 N 
ATOM     27  C   UNL     1      -8.684   1.218   2.349  0.00  0.00    +0.055 A 
ATOM     28  C   UNL     1      -9.356   0.778   3.477  0.00  0.00    +0.025 A 
ATOM     29  C   UNL     1      -8.813   0.994   4.731  0.00  0.00    +0.002 A 
ATOM     30  C   UNL     1      -7.605   1.653   4.865  0.00  0.00    +0.002 A 
ATOM     31  C   UNL     1      -6.933   2.107   3.744  0.00  0.00    +0.025 A 
ATOM     32  C   UNL     1      -7.472   1.898   2.487  0.00  0.00    +0.049 A 
ATOM     33  N   UNL     1      -6.824   2.373   1.336  0.00  0.00    -0.331 N 
ATOM     34  H   UNL     1     -10.121   0.667   0.981  0.00  0.00    +0.155 HD
ATOM     35  H   UNL     1      -6.254   3.157   1.370  0.00  0.00    +0.147 HD
ENDBRANCH  22  23
ENDBRANCH   2  22
TORSDOF 6
