REMARK  Name = ZINC51113276
REMARK  3 active torsions:
REMARK  status: ('A' for Active; 'I' for Inactive)
REMARK    1  A    between atoms: C_3  and  N_19
REMARK    2  A    between atoms: C_6  and  C_7
REMARK    3  A    between atoms: N_19  and  N_20
REMARK                            x       y       z     vdW  Elec       q    Type
REMARK                         _______ _______ _______ _____ _____    ______ ____
ROOT
ATOM      1  C   UNL     1      -1.259  -0.769   0.010  0.00  0.00    +0.251 C 
ATOM      2  O   UNL     1      -2.325  -0.185   0.024  0.00  0.00    -0.270 OA
ATOM      3  N   UNL     1      -1.229  -2.117   0.003  0.00  0.00    -0.261 N 
ATOM      4  C   UNL     1      -2.417  -2.838   0.011  0.00  0.00    +0.165 A 
ATOM      5  N   UNL     1      -3.650  -2.381   0.020  0.00  0.00    -0.229 NA
ATOM      6  C   UNL     1      -4.701  -3.196   0.026  0.00  0.00    +0.054 A 
ATOM      7  C   UNL     1      -4.398  -4.519   0.023  0.00  0.00    +0.014 A 
ATOM      8  S   UNL     1      -2.627  -4.510   0.004  0.00  0.00    -0.057 S 
ATOM      9  C   UNL     1      -5.345  -5.671   0.031  0.00  0.00    +0.044 C 
ATOM     10  C   UNL     1      -6.737  -5.145   0.413  0.00  0.00    +0.006 C 
ATOM     11  C   UNL     1      -7.038  -3.895  -0.419  0.00  0.00    +0.006 C 
ATOM     12  C   UNL     1      -6.152  -2.734   0.034  0.00  0.00    +0.056 C 
ATOM     13  H   UNL     1      -0.379  -2.583  -0.008  0.00  0.00    +0.157 HD
ENDROOT
BRANCH   1  19
ATOM     14  C   UNL     1      -0.017   1.399   0.010  0.00  0.00    +0.018 A 
ATOM     15  C   UNL     1       1.177   2.068   0.002  0.00  0.00    +0.045 A 
ATOM     16  C   UNL     1       2.367   1.343  -0.013  0.00  0.00    +0.132 A 
ATOM     17  N   UNL     1       2.357   0.017  -0.021  0.00  0.00    -0.239 NA
ATOM     18  C   UNL     1       1.232  -0.665  -0.014  0.00  0.00    +0.126 A 
ATOM     19  C   UNL     1       0.002  -0.004   0.002  0.00  0.00    +0.055 A 
BRANCH  16  20
ATOM     20  N   UNL     1       3.577   2.017  -0.021  0.00  0.00    -0.268 N 
ATOM     21  H   UNL     1       3.592   2.987  -0.016  0.00  0.00    +0.167 HD
BRANCH  20  22
ATOM     22  N   UNL     1       4.749   1.316  -0.036  0.00  0.00    -0.255 NA
ATOM     23  H   UNL     1       5.543   1.939  -0.041  0.00  0.00    +0.140 HD
ATOM     24  H   UNL     1       4.797   0.675   0.741  0.00  0.00    +0.140 HD
ENDBRANCH  20  22
ENDBRANCH  16  20
ENDBRANCH   1  19
TORSDOF 3
