REMARK  Name = ZINC25586107
REMARK  13 active torsions:
REMARK  status: ('A' for Active; 'I' for Inactive)
REMARK    1  A    between atoms: C_1  and  C_2
REMARK    2  A    between atoms: C_2  and  C_3
REMARK    3  A    between atoms: C_8  and  N_9
REMARK    4  A    between atoms: C_10  and  C_12
REMARK    5  A    between atoms: C_12  and  C_19
REMARK    6  A    between atoms: N_13  and  N_14
REMARK    7  A    between atoms: N_14  and  C_15
REMARK    8  A    between atoms: C_15  and  N_17
REMARK    9  A    between atoms: N_17  and  N_18
REMARK   10  A    between atoms: C_19  and  C_20
REMARK   11  A    between atoms: C_20  and  C_22
REMARK   12  A    between atoms: C_23  and  C_24
REMARK   13  A    between atoms: C_28  and  N_30
REMARK                            x       y       z     vdW  Elec       q    Type
REMARK                         _______ _______ _______ _____ _____    ______ ____
ROOT
ATOM      1  C   UNL     1      -2.699   9.385   0.860  0.00  0.00    +0.128 C 
ATOM      2  N   UNL     1      -1.722  10.120   1.307  0.00  0.00    -0.180 NA
ENDROOT
BRANCH   1   4
ATOM      3  N   UNL     1      -5.039   9.220   0.199  0.00  0.00    -0.280 N 
ATOM      4  C   UNL     1      -3.995   9.996   0.552  0.00  0.00    +0.264 C 
ATOM      5  O   UNL     1      -4.128  11.204   0.615  0.00  0.00    -0.268 OA
ATOM      6  H   UNL     1      -4.945   8.124   0.231  0.00  0.00    +0.155 HD
BRANCH   3  12
ATOM      7  C   UNL     1      -7.447   9.162   0.033  0.00  0.00    -0.026 A 
ATOM      8  C   UNL     1      -8.632   9.746  -0.370  0.00  0.00    +0.005 A 
ATOM      9  C   UNL     1      -8.619  10.971  -1.011  0.00  0.00    +0.000 A 
ATOM     10  C   UNL     1      -7.420  11.616  -1.251  0.00  0.00    +0.002 A 
ATOM     11  C   UNL     1      -6.231  11.041  -0.846  0.00  0.00    +0.023 A 
ATOM     12  C   UNL     1      -6.241   9.808  -0.207  0.00  0.00    +0.037 A 
BRANCH   7  14
ATOM     13  C   UNL     1      -7.446   8.045   2.246  0.00  0.00    +0.009 C 
ATOM     14  C   UNL     1      -7.462   7.827   0.732  0.00  0.00    +0.033 C 
ENDBRANCH   7  14
ENDBRANCH   3  12
ENDBRANCH   1   4
BRANCH   2  15
ATOM     15  N   UNL     1      -1.961  11.449   1.683  0.00  0.00    -0.217 N 
ATOM     16  H   UNL     1      -2.989  11.841   1.695  0.00  0.00    +0.176 HD
BRANCH  15  17
ATOM     17  C   UNL     1      -0.931  12.247   2.029  0.00  0.00    +0.164 C 
ATOM     18  S   UNL     1      -1.233  13.821   2.629  0.00  0.00    -0.016 S 
BRANCH  17  19
ATOM     19  N   UNL     1       0.336  11.805   1.902  0.00  0.00    -0.264 N 
ATOM     20  H   UNL     1       1.171  12.417   2.271  0.00  0.00    +0.168 HD
BRANCH  19  21
ATOM     21  N   UNL     1       0.582  10.596   1.314  0.00  0.00    -0.255 NA
ATOM     22  H   UNL     1       1.666  10.409   1.302  0.00  0.00    +0.140 HD
ATOM     23  H   UNL     1       0.080   9.802   1.885  0.00  0.00    +0.140 HD
ENDBRANCH  19  21
ENDBRANCH  17  19
ENDBRANCH  15  17
ENDBRANCH   2  15
BRANCH   1  24
ATOM     24  C   UNL     1      -2.497   7.905   0.659  0.00  0.00    +0.141 C 
BRANCH  24  25
ATOM     25  C   UNL     1      -1.153   7.502   1.211  0.00  0.00    +0.162 C 
ATOM     26  O   UNL     1      -0.425   8.338   1.706  0.00  0.00    -0.292 OA
BRANCH  25  27
ATOM     27  C   UNL     1      -0.743   6.154   1.152  0.00  0.00    +0.047 C 
ATOM     28  C   UNL     1       0.463   5.792   1.648  0.00  0.00    +0.011 C 
BRANCH  28  29
ATOM     29  C   UNL     1       0.891   4.387   1.587  0.00  0.00    -0.023 A 
ATOM     30  C   UNL     1       0.054   3.420   1.018  0.00  0.00    +0.008 A 
ATOM     31  C   UNL     1       0.465   2.106   0.961  0.00  0.00    +0.003 A 
ATOM     32  C   UNL     1       1.697   1.739   1.474  0.00  0.00    +0.033 A 
ATOM     33  C   UNL     1       2.531   2.688   2.038  0.00  0.00    +0.127 A 
ATOM     34  C   UNL     1       2.138   4.008   2.099  0.00  0.00    +0.040 A 
BRANCH  33  35
ATOM     35  N   UNL     1       3.849   2.286   2.578  0.00  0.00    +0.056 N 
ATOM     36  O   UNL     1       4.199   1.120   2.526  0.00  0.00    -0.126 OA
ATOM     37  O   UNL     1       4.585   3.120   3.075  0.00  0.00    -0.126 OA
ENDBRANCH  33  35
ENDBRANCH  28  29
ENDBRANCH  25  27
ENDBRANCH  24  25
ENDBRANCH   1  24
TORSDOF 12
