REMARK  Name = ZINC16805455
REMARK  8 active torsions:
REMARK  status: ('A' for Active; 'I' for Inactive)
REMARK    1  A    between atoms: C_3  and  C_13
REMARK    2  A    between atoms: C_4  and  N_10
REMARK    3  A    between atoms: C_6  and  C_7
REMARK    4  A    between atoms: C_13  and  O_14
REMARK    5  A    between atoms: O_14  and  C_15
REMARK    6  A    between atoms: C_15  and  C_17
REMARK    7  A    between atoms: C_17  and  C_18
REMARK    8  A    between atoms: C_25  and  C_30
REMARK                            x       y       z     vdW  Elec       q    Type
REMARK                         _______ _______ _______ _____ _____    ______ ____
ROOT
ATOM      1  C   UNL     1       3.490   4.947   2.900  0.00  0.00    +0.309 C 
ATOM      2  O   UNL     1       4.435   4.911   2.148  0.00  0.00    -0.251 OA
ENDROOT
BRANCH   1   3
ATOM      3  O   UNL     1       3.655   4.653   4.199  0.00  0.00    -0.460 OA
BRANCH   3   4
ATOM      4  C   UNL     1       4.995   4.301   4.631  0.00  0.00    +0.269 C 
BRANCH   4   7
ATOM      5  C   UNL     1       3.789   3.826   8.175  0.00  0.00    +0.013 A 
ATOM      6  C   UNL     1       3.805   4.101   6.823  0.00  0.00    +0.010 A 
ATOM      7  C   UNL     1       4.986   4.005   6.109  0.00  0.00    +0.020 A 
ATOM      8  C   UNL     1       6.160   3.645   6.746  0.00  0.00    +0.133 A 
ATOM      9  C   UNL     1       6.159   3.373   8.098  0.00  0.00    +0.046 A 
ATOM     10  C   UNL     1       4.970   3.462   8.824  0.00  0.00    +0.039 A 
BRANCH  10  11
ATOM     11  C   UNL     1       4.961   3.172  10.274  0.00  0.00    +0.242 C 
ATOM     12  O   UNL     1       5.990   2.855  10.836  0.00  0.00    -0.270 OA
ATOM     13  N   UNL     1       3.811   3.259  10.971  0.00  0.00    -0.325 N 
ATOM     14  H   UNL     1       2.989   3.511  10.522  0.00  0.00    +0.145 HD
ATOM     15  H   UNL     1       3.805   3.068  11.922  0.00  0.00    +0.145 HD
ENDBRANCH  10  11
BRANCH   8  16
ATOM     16  N   UNL     1       7.421   3.551   5.975  0.00  0.00    +0.057 N 
ATOM     17  O   UNL     1       8.455   3.234   6.535  0.00  0.00    -0.126 OA
ATOM     18  O   UNL     1       7.423   3.791   4.781  0.00  0.00    -0.126 OA
ENDBRANCH   8  16
ENDBRANCH   4   7
ENDBRANCH   3   4
ENDBRANCH   1   3
BRANCH   1  19
ATOM     19  C   UNL     1       2.126   5.321   2.379  0.00  0.00    +0.144 C 
BRANCH  19  20
ATOM     20  C   UNL     1       2.214   5.606   0.878  0.00  0.00    +0.148 C 
ATOM     21  C   UNL     1       0.877   6.077   0.369  0.00  0.00    +0.231 C 
ATOM     22  O   UNL     1       0.697   7.269   0.237  0.00  0.00    -0.274 OA
ATOM     23  N   UNL     1      -0.116   5.250   0.057  0.00  0.00    -0.284 N 
ATOM     24  C   UNL     1      -0.060   3.859   0.031  0.00  0.00    +0.047 A 
ATOM     25  C   UNL     1      -1.247   3.133   0.034  0.00  0.00    +0.036 A 
ATOM     26  C   UNL     1      -1.219   1.752   0.017  0.00  0.00    +0.057 A 
ATOM     27  C   UNL     1      -0.013   1.076   0.008  0.00  0.00    +0.013 A 
ATOM     28  C   UNL     1       1.175   1.785   0.000  0.00  0.00    +0.017 A 
ATOM     29  C   UNL     1       1.152   3.170   0.011  0.00  0.00    +0.030 A 
ATOM     30  S   UNL     1       2.663   4.082  -0.008  0.00  0.00    -0.110 S 
ATOM     31  H   UNL     1      -0.965   5.656  -0.177  0.00  0.00    +0.155 HD
BRANCH  26  32
ATOM     32  C   UNL     1      -2.511   0.977   0.015  0.00  0.00    +0.417 C 
ATOM     33  F   UNL     1      -2.233  -0.394   0.003  0.00  0.00    -0.166 F 
ATOM     34  F   UNL     1      -3.247   1.294   1.163  0.00  0.00    -0.166 F 
ATOM     35  F   UNL     1      -3.254   1.312  -1.122  0.00  0.00    -0.166 F 
ENDBRANCH  26  32
ENDBRANCH  19  20
ENDBRANCH   1  19
TORSDOF 8
