REMARK  Name = ZINC36998531
REMARK  7 active torsions:
REMARK  status: ('A' for Active; 'I' for Inactive)
REMARK    1  A    between atoms: C_1  and  C_2
REMARK    2  A    between atoms: C_5  and  N_12
REMARK    3  A    between atoms: C_8  and  C_10
REMARK    4  A    between atoms: C_8  and  C_11
REMARK    5  A    between atoms: N_12  and  C_13
REMARK    6  A    between atoms: N_16  and  C_18
REMARK    7  A    between atoms: C_18  and  C_19
REMARK                            x       y       z     vdW  Elec       q    Type
REMARK                         _______ _______ _______ _____ _____    ______ ____
ROOT
ATOM      1  N   UNL     1      -0.436  -1.843  -1.307  0.00  0.00    -0.339 N 
ATOM      2  H   UNL     1       0.345  -1.372  -1.637  0.00  0.00    +0.146 HD
ENDROOT
BRANCH   1   6
ATOM      3  C   UNL     1       1.349   1.434   0.824  0.00  0.00    +0.007 C 
ATOM      4  C   UNL     1       0.868   0.021   0.485  0.00  0.00    -0.012 C 
ATOM      5  C   UNL     1      -0.641   0.042   0.238  0.00  0.00    +0.025 C 
ATOM      6  C   UNL     1      -1.122  -1.371  -0.102  0.00  0.00    +0.071 C 
ATOM      7  C   UNL     1      -0.808  -2.310   1.065  0.00  0.00    +0.028 C 
ATOM      8  C   UNL     1       0.701  -2.330   1.312  0.00  0.00    -0.033 C 
ATOM      9  C   UNL     1       1.182  -0.918   1.651  0.00  0.00    +0.009 C 
ATOM     10  C   UNL     1       1.417  -2.824   0.053  0.00  0.00    +0.011 C 
ATOM     11  C   UNL     1       1.015  -3.270   2.478  0.00  0.00    +0.011 C 
ENDBRANCH   1   6
BRANCH   1  12
ATOM     12  C   UNL     1      -0.911  -2.981  -1.987  0.00  0.00    +0.065 A 
ATOM     13  C   UNL     1      -2.026  -3.751  -1.628  0.00  0.00    +0.157 A 
ATOM     14  N   UNL     1      -2.154  -4.722  -2.496  0.00  0.00    -0.177 NA
ATOM     15  N   UNL     1      -1.125  -4.607  -3.440  0.00  0.00    -0.261 N 
ATOM     16  C   UNL     1      -0.374  -3.523  -3.109  0.00  0.00    +0.131 A 
BRANCH  15  17
ATOM     17  C   UNL     1      -0.901  -5.495  -4.584  0.00  0.00    +0.238 C 
BRANCH  17  18
ATOM     18  C   UNL     1      -0.794  -6.919  -4.102  0.00  0.00    +0.232 C 
ATOM     19  O   UNL     1      -0.895  -7.168  -2.919  0.00  0.00    -0.274 OA
ATOM     20  N   UNL     1      -0.587  -7.915  -4.985  0.00  0.00    -0.328 N 
ATOM     21  H   UNL     1      -0.506  -7.716  -5.931  0.00  0.00    +0.145 HD
ATOM     22  H   UNL     1      -0.518  -8.832  -4.675  0.00  0.00    +0.145 HD
ENDBRANCH  17  18
ENDBRANCH  15  17
ENDBRANCH   1  12
TORSDOF 4
