REMARK  Name = ZINC22289856
REMARK  9 active torsions:
REMARK  status: ('A' for Active; 'I' for Inactive)
REMARK    1  A    between atoms: C_1  and  C_2
REMARK    2  A    between atoms: C_2  and  C_3
REMARK    3  A    between atoms: C_2  and  C_4
REMARK    4  A    between atoms: C_6  and  C_16
REMARK    5  A    between atoms: N_10  and  C_13
REMARK    6  A    between atoms: C_13  and  C_14
REMARK    7  A    between atoms: C_13  and  C_15
REMARK    8  A    between atoms: C_21  and  C_24
REMARK    9  A    between atoms: C_24  and  N_25
REMARK                            x       y       z     vdW  Elec       q    Type
REMARK                         _______ _______ _______ _____ _____    ______ ____
ROOT
ATOM      1  C   UNL     1      -2.541   4.297   0.047  0.00  0.00    +0.250 C 
ATOM      2  O   UNL     1      -2.538   5.512   0.053  0.00  0.00    -0.270 OA
ATOM      3  N   UNL     1      -3.709   3.625   0.054  0.00  0.00    -0.261 N 
ATOM      4  C   UNL     1      -4.910   4.322   0.069  0.00  0.00    +0.165 A 
ATOM      5  N   UNL     1      -6.142   3.850   0.072  0.00  0.00    -0.231 NA
ATOM      6  C   UNL     1      -7.183   4.659   0.091  0.00  0.00    +0.034 A 
ATOM      7  C   UNL     1      -6.962   5.997   0.095  0.00  0.00    +0.070 A 
ATOM      8  S   UNL     1      -5.176   6.038   0.079  0.00  0.00    -0.060 S 
ATOM      9  H   UNL     1      -3.711   2.525   0.049  0.00  0.00    +0.157 HD
ENDROOT
BRANCH   1  12
ATOM     10  C   UNL     1      -0.018   1.503   0.010  0.00  0.00    +0.047 A 
ATOM     11  C   UNL     1      -1.238   2.162   0.020  0.00  0.00    +0.037 A 
ATOM     12  C   UNL     1      -1.262   3.555   0.032  0.00  0.00    +0.051 A 
ATOM     13  C   UNL     1      -0.024   4.236   0.024  0.00  0.00    +0.051 A 
ATOM     14  C   UNL     1       0.344   5.598   0.028  0.00  0.00    +0.145 A 
ATOM     15  N   UNL     1       1.644   5.677   0.016  0.00  0.00    -0.177 NA
ATOM     16  N   UNL     1       2.196   4.390   0.004  0.00  0.00    -0.244 N 
ATOM     17  C   UNL     1       1.168   3.484   0.009  0.00  0.00    +0.159 A 
ATOM     18  N   UNL     1       1.121   2.159   0.003  0.00  0.00    -0.232 NA
BRANCH  10  20
ATOM     19  C   UNL     1      -0.103  -0.523   1.437  0.00  0.00    +0.014 C 
ATOM     20  C   UNL     1       0.002  -0.004   0.002  0.00  0.00    +0.032 C 
ATOM     21  C   UNL     1      -1.180  -0.526  -0.817  0.00  0.00    +0.014 C 
ENDBRANCH  10  20
BRANCH  16  22
ATOM     22  C   UNL     1       3.625   4.068  -0.011  0.00  0.00    +0.103 C 
ATOM     23  C   UNL     1       4.269   4.666  -1.263  0.00  0.00    +0.032 C 
ATOM     24  C   UNL     1       4.293   4.654   1.235  0.00  0.00    +0.032 C 
ENDBRANCH  16  22
ENDBRANCH   1  12
BRANCH   6  25
ATOM     25  C   UNL     1      -8.586   4.109   0.101  0.00  0.00    -0.022 C 
BRANCH  25  26
ATOM     26  N   UNL     1      -9.011   3.825  -1.276  0.00  0.00    +0.383 N 
ATOM     27  C   UNL     1      -9.121   5.062  -2.059  0.00  0.00    -0.078 C 
ATOM     28  C   UNL     1      -9.421   4.718  -3.519  0.00  0.00    -0.019 C 
ATOM     29  C   UNL     1     -10.731   3.927  -3.593  0.00  0.00    -0.004 C 
ATOM     30  C   UNL     1     -10.607   2.668  -2.730  0.00  0.00    -0.019 C 
ATOM     31  C   UNL     1     -10.272   3.072  -1.293  0.00  0.00    -0.078 C 
ATOM     32  H   UNL     1      -8.240   3.197  -1.746  0.00  0.00    -0.081 HD
ENDBRANCH  25  26
ENDBRANCH   6  25
TORSDOF 5
