REMARK  Name = ZINC17149249
REMARK  6 active torsions:
REMARK  status: ('A' for Active; 'I' for Inactive)
REMARK    1  A    between atoms: C_1  and  N_2
REMARK    2  A    between atoms: N_11  and  C_12
REMARK    3  A    between atoms: C_12  and  C_14
REMARK    4  A    between atoms: C_17  and  N_20
REMARK    5  A    between atoms: N_20  and  C_21
REMARK    6  A    between atoms: N_20  and  C_22
REMARK                            x       y       z     vdW  Elec       q    Type
REMARK                         _______ _______ _______ _____ _____    ______ ____
ROOT
ATOM      1  C   UNL     1      -3.736   3.324   0.056  0.00  0.00    +0.151 C 
ATOM      2  N   UNL     1      -2.407   3.941   0.046  0.00  0.00    -0.322 N 
ATOM      3  C   UNL     1      -1.276   3.141   0.031  0.00  0.00    +0.093 A 
ATOM      4  C   UNL     1      -1.220   1.735   0.017  0.00  0.00    +0.151 A 
ATOM      5  C   UNL     1      -0.013   1.076   0.008  0.00  0.00    +0.078 A 
ATOM      6  C   UNL     1       1.186   1.773   0.000  0.00  0.00    +0.127 A 
ATOM      7  C   UNL     1       1.161   3.158   0.008  0.00  0.00    +0.055 A 
ATOM      8  C   UNL     1      -0.047   3.816   0.023  0.00  0.00    +0.044 A 
ATOM      9  S   UNL     1      -0.519   5.529   0.037  0.00  0.00    -0.052 S 
ATOM     10  C   UNL     1      -2.289   5.297   0.052  0.00  0.00    +0.167 A 
ATOM     11  N   UNL     1      -3.248   6.216   0.067  0.00  0.00    -0.152 NA
ATOM     12  F   UNL     1       2.364   1.110  -0.014  0.00  0.00    -0.205 F 
ATOM     13  F   UNL     1      -2.368   1.022   0.018  0.00  0.00    -0.203 F 
ENDROOT
BRANCH  11  14
ATOM     14  C   UNL     1      -2.930   7.516   0.070  0.00  0.00    +0.269 C 
ATOM     15  O   UNL     1      -1.760   7.856   0.061  0.00  0.00    -0.268 OA
BRANCH  14  16
ATOM     16  C   UNL     1      -3.998   8.538   0.086  0.00  0.00    +0.039 A 
ATOM     17  C   UNL     1      -5.339   8.149   0.091  0.00  0.00    +0.015 A 
ATOM     18  C   UNL     1      -6.332   9.103   0.111  0.00  0.00    +0.024 A 
ATOM     19  C   UNL     1      -5.999  10.455   0.115  0.00  0.00    +0.029 A 
ATOM     20  C   UNL     1      -4.663  10.845   0.105  0.00  0.00    +0.024 A 
ATOM     21  C   UNL     1      -3.667   9.895   0.090  0.00  0.00    +0.015 A 
BRANCH  19  22
ATOM     22  N   UNL     1      -7.004  11.417   0.129  0.00  0.00    -0.336 N 
ATOM     23  C   UNL     1      -6.655  12.840   0.133  0.00  0.00    +0.129 C 
ATOM     24  C   UNL     1      -8.410  11.007   0.140  0.00  0.00    +0.129 C 
ENDBRANCH  19  22
ENDBRANCH  14  16
ENDBRANCH  11  14
TORSDOF 3
