REMARK  Name = ZINC13527452
REMARK  12 active torsions:
REMARK  status: ('A' for Active; 'I' for Inactive)
REMARK    1  A    between atoms: C_1  and  C_2
REMARK    2  A    between atoms: C_5  and  N_9
REMARK    3  A    between atoms: C_6  and  C_8
REMARK    4  A    between atoms: N_9  and  S_10
REMARK    5  A    between atoms: S_10  and  C_13
REMARK    6  A    between atoms: C_16  and  N_22
REMARK    7  A    between atoms: C_17  and  N_19
REMARK    8  A    between atoms: N_22  and  N_23
REMARK    9  A    between atoms: C_24  and  C_26
REMARK   10  A    between atoms: C_26  and  S_27
REMARK   11  A    between atoms: S_27  and  C_28
REMARK   12  A    between atoms: C_33  and  C_34
REMARK                            x       y       z     vdW  Elec       q    Type
REMARK                         _______ _______ _______ _____ _____    ______ ____
ROOT
ATOM      1  C   UNL     1       1.400   3.016   1.202  0.00  0.00    +0.111 A 
ATOM      2  C   UNL     1       0.930   4.314   1.287  0.00  0.00    +0.031 A 
ATOM      3  C   UNL     1       1.090   5.033   2.455  0.00  0.00    +0.028 A 
ATOM      4  C   UNL     1       1.734   4.455   3.542  0.00  0.00    +0.075 A 
ATOM      5  C   UNL     1       2.210   3.153   3.452  0.00  0.00    +0.150 A 
ATOM      6  C   UNL     1       2.042   2.438   2.282  0.00  0.00    +0.063 A 
ENDROOT
BRANCH   1   7
ATOM      7  S   UNL     1       1.187   2.100  -0.287  0.00  0.00    +0.072 S 
ATOM      8  O   UNL     1       2.201   1.104  -0.300  0.00  0.00    -0.150 OA
ATOM      9  O   UNL     1       1.041   3.052  -1.332  0.00  0.00    -0.150 OA
BRANCH   7  10
ATOM     10  N   UNL     1      -0.259   1.301  -0.169  0.00  0.00    -0.216 N 
ATOM     11  H   UNL     1      -0.282   0.332  -0.211  0.00  0.00    +0.174 HD
BRANCH  10  16
ATOM     12  C   UNL     1      -5.074   4.230   0.455  0.00  0.00    +0.044 C 
ATOM     13  C   UNL     1      -3.794   3.452   0.290  0.00  0.00    -0.050 A 
ATOM     14  C   UNL     1      -2.775   3.958  -0.497  0.00  0.00    +0.005 A 
ATOM     15  C   UNL     1      -1.602   3.248  -0.651  0.00  0.00    +0.025 A 
ATOM     16  C   UNL     1      -1.444   2.023  -0.015  0.00  0.00    +0.051 A 
ATOM     17  C   UNL     1      -2.471   1.515   0.771  0.00  0.00    -0.028 A 
ATOM     18  C   UNL     1      -3.641   2.233   0.925  0.00  0.00    +0.008 A 
ATOM     19  C   UNL     1      -2.307   0.184   1.458  0.00  0.00    +0.046 C 
ENDBRANCH  10  16
ENDBRANCH   7  10
ENDBRANCH   1   7
BRANCH   5  20
ATOM     20  N   UNL     1       2.897   2.533   4.607  0.00  0.00    +0.058 N 
ATOM     21  O   UNL     1       3.405   1.432   4.494  0.00  0.00    -0.126 OA
ATOM     22  O   UNL     1       2.953   3.124   5.671  0.00  0.00    -0.126 OA
ENDBRANCH   5  20
BRANCH   4  23
ATOM     23  N   UNL     1       1.903   5.181   4.723  0.00  0.00    -0.262 N 
ATOM     24  H   UNL     1       2.279   4.751   5.507  0.00  0.00    +0.170 HD
BRANCH  23  25
ATOM     25  N   UNL     1       1.528   6.530   4.776  0.00  0.00    -0.236 N 
ATOM     26  C   UNL     1       1.690   7.230   5.916  0.00  0.00    +0.239 C 
ATOM     27  O   UNL     1       2.161   6.693   6.896  0.00  0.00    -0.273 OA
ATOM     28  H   UNL     1       1.151   6.959   3.992  0.00  0.00    +0.173 HD
BRANCH  26  29
ATOM     29  C   UNL     1       1.287   8.681   5.972  0.00  0.00    +0.171 C 
BRANCH  29  30
ATOM     30  S   UNL     1       1.627   9.339   7.628  0.00  0.00    -0.116 S 
BRANCH  30  31
ATOM     31  C   UNL     1       1.108  11.021   7.534  0.00  0.00    +0.011 A 
ATOM     32  C   UNL     1       0.588  11.523   6.347  0.00  0.00    +0.015 A 
ATOM     33  C   UNL     1       0.177  12.840   6.278  0.00  0.00    +0.001 A 
ATOM     34  C   UNL     1       0.294  13.661   7.385  0.00  0.00    +0.000 A 
ATOM     35  C   UNL     1       0.816  13.166   8.566  0.00  0.00    +0.004 A 
ATOM     36  C   UNL     1       1.224  11.849   8.643  0.00  0.00    -0.037 A 
ATOM     37  C   UNL     1       1.794  11.310   9.930  0.00  0.00    +0.045 C 
ENDBRANCH  30  31
ENDBRANCH  29  30
ENDBRANCH  26  29
ENDBRANCH  23  25
ENDBRANCH   4  23
TORSDOF 9
