REMARK  Name = ZINC06193186
REMARK  18 active torsions:
REMARK  status: ('A' for Active; 'I' for Inactive)
REMARK    1  A    between atoms: C_1  and  C_2
REMARK    2  A    between atoms: C_2  and  N_73
REMARK    3  A    between atoms: C_3  and  C_4
REMARK    4  A    between atoms: C_3  and  N_73
REMARK    5  A    between atoms: C_5  and  C_6
REMARK    6  A    between atoms: C_5  and  N_73
REMARK    7  A    between atoms: C_6  and  C_7
REMARK    8  A    between atoms: C_7  and  N_8
REMARK    9  A    between atoms: N_8  and  C_9
REMARK   10  A    between atoms: C_9  and  N_11
REMARK   11  A    between atoms: N_11  and  C_12
REMARK   12  A    between atoms: N_11  and  C_21
REMARK   13  A    between atoms: C_12  and  C_13
REMARK   14  A    between atoms: C_16  and  O_19
REMARK   15  A    between atoms: O_19  and  C_20
REMARK   16  A    between atoms: C_21  and  C_22
REMARK   17  A    between atoms: C_26  and  C_35
REMARK   18  A    between atoms: C_27  and  C_34
REMARK                            x       y       z     vdW  Elec       q    Type
REMARK                         _______ _______ _______ _____ _____    ______ ____
ROOT
ATOM      1  N   UNL     1      -5.772   4.009  -1.318  0.00  0.00    -0.304 N 
ENDROOT
BRANCH   1   2
ATOM      2  C   UNL     1      -6.553   2.999  -1.751  0.00  0.00    +0.133 C 
ATOM      3  S   UNL     1      -7.072   1.789  -0.657  0.00  0.00    -0.019 S 
BRANCH   2   4
ATOM      4  N   UNL     1      -6.924   2.942  -3.045  0.00  0.00    -0.326 N 
ATOM      5  H   UNL     1      -6.630   3.627  -3.665  0.00  0.00    +0.148 HD
BRANCH   4   6
ATOM      6  C   UNL     1      -7.773   1.844  -3.516  0.00  0.00    +0.101 C 
BRANCH   6   7
ATOM      7  C   UNL     1      -8.045   2.015  -5.012  0.00  0.00    +0.000 C 
BRANCH   7   8
ATOM      8  C   UNL     1      -8.931   0.868  -5.503  0.00  0.00    -0.077 C 
BRANCH   8   9
ATOM      9  N   UNL     1      -9.202   1.059  -6.944  0.00  0.00    +0.379 N 
ATOM     10  H   UNL     1      -9.553   2.012  -7.093  0.00  0.00    -0.082 HD
BRANCH   9  12
ATOM     11  C   UNL     1      -7.447  -0.558  -7.591  0.00  0.00    -0.017 C 
ATOM     12  C   UNL     1      -7.957   0.879  -7.720  0.00  0.00    -0.082 C 
ENDBRANCH   9  12
BRANCH   9  13
ATOM     13  C   UNL     1     -10.224   0.093  -7.397  0.00  0.00    -0.082 C 
ATOM     14  C   UNL     1     -10.584   0.400  -8.852  0.00  0.00    -0.017 C 
ENDBRANCH   9  13
ENDBRANCH   8   9
ENDBRANCH   7   8
ENDBRANCH   6   7
ENDBRANCH   4   6
ENDBRANCH   2   4
ENDBRANCH   1   2
BRANCH   1  15
ATOM     15  C   UNL     1      -5.427   5.108  -2.223  0.00  0.00    +0.142 C 
BRANCH  15  16
ATOM     16  C   UNL     1      -4.096   4.827  -2.871  0.00  0.00    -0.030 A 
ATOM     17  C   UNL     1      -2.926   5.174  -2.221  0.00  0.00    +0.009 A 
ATOM     18  C   UNL     1      -1.704   4.912  -2.810  0.00  0.00    +0.046 A 
ATOM     19  C   UNL     1      -1.652   4.310  -4.059  0.00  0.00    +0.120 A 
ATOM     20  C   UNL     1      -2.828   3.968  -4.711  0.00  0.00    +0.046 A 
ATOM     21  C   UNL     1      -4.047   4.227  -4.116  0.00  0.00    +0.009 A 
BRANCH  19  22
ATOM     22  O   UNL     1      -0.451   4.056  -4.643  0.00  0.00    -0.495 OA
ATOM     23  C   UNL     1       0.718   4.435  -3.914  0.00  0.00    +0.277 C 
ENDBRANCH  19  22
ENDBRANCH  15  16
ENDBRANCH   1  15
BRANCH   1  24
ATOM     24  C   UNL     1      -5.269   4.008   0.058  0.00  0.00    +0.147 C 
BRANCH  24  25
ATOM     25  C   UNL     1      -6.272   4.677   0.961  0.00  0.00    +0.035 A 
ATOM     26  C   UNL     1      -7.162   3.927   1.656  0.00  0.00    +0.020 A 
ATOM     27  C   UNL     1      -8.127   4.608   2.521  0.00  0.00    -0.001 A 
ATOM     28  C   UNL     1      -9.080   3.889   3.250  0.00  0.00    +0.013 A 
ATOM     29  C   UNL     1      -9.967   4.554   4.047  0.00  0.00    -0.047 A 
ATOM     30  C   UNL     1      -9.932   5.939   4.140  0.00  0.00    -0.046 A 
ATOM     31  C   UNL     1      -9.003   6.668   3.430  0.00  0.00    +0.030 A 
ATOM     32  C   UNL     1      -8.092   6.013   2.608  0.00  0.00    +0.049 A 
ATOM     33  N   UNL     1      -7.155   6.717   1.883  0.00  0.00    -0.322 N 
ATOM     34  H   UNL     1      -7.130   7.715   1.949  0.00  0.00    +0.169 HD
ATOM     35  C   UNL     1      -6.276   6.083   1.087  0.00  0.00    +0.254 A 
ATOM     36  O   UNL     1      -5.462   6.738   0.461  0.00  0.00    -0.268 OA
ATOM     37  C   UNL     1     -10.921   6.652   5.026  0.00  0.00    +0.044 C 
ATOM     38  C   UNL     1     -10.993   3.779   4.833  0.00  0.00    +0.044 C 
ENDBRANCH  24  25
ENDBRANCH   1  24
TORSDOF 13
