REMARK  Name = ZINC59148872
REMARK  5 active torsions:
REMARK  status: ('A' for Active; 'I' for Inactive)
REMARK    1  A    between atoms: C_1  and  C_2
REMARK    2  A    between atoms: C_5  and  C_9
REMARK    3  A    between atoms: N_11  and  N_12
REMARK    4  A    between atoms: C_16  and  C_24
REMARK    5  A    between atoms: C_18  and  C_23
REMARK                            x       y       z     vdW  Elec       q    Type
REMARK                         _______ _______ _______ _____ _____    ______ ____
ROOT
ATOM      1  N   UNL     1       0.095  -6.333   1.131  0.00  0.00    -0.174 NA
ATOM      2  C   UNL     1       0.109  -6.996   2.263  0.00  0.00    +0.153 C 
ATOM      3  C   UNL     1       0.136  -8.465   2.447  0.00  0.00    +0.029 A 
ATOM      4  C   UNL     1       0.153  -9.536   1.561  0.00  0.00    +0.015 A 
ATOM      5  C   UNL     1       0.177 -10.828   2.047  0.00  0.00    -0.049 A 
ATOM      6  C   UNL     1       0.186 -11.054   3.414  0.00  0.00    +0.008 A 
ATOM      7  C   UNL     1       0.169  -9.998   4.302  0.00  0.00    -0.028 A 
ATOM      8  C   UNL     1       0.145  -8.690   3.830  0.00  0.00    +0.046 A 
ATOM      9  N   UNL     1       0.125  -7.469   4.495  0.00  0.00    -0.279 N 
ATOM     10  C   UNL     1       0.109  -6.439   3.631  0.00  0.00    +0.269 C 
ATOM     11  O   UNL     1       0.095  -5.258   3.924  0.00  0.00    -0.268 OA
ATOM     12  C   UNL     1       0.178 -10.263   5.785  0.00  0.00    +0.046 C 
ATOM     13  C   UNL     1       0.195 -11.992   1.091  0.00  0.00    +0.044 C 
ATOM     14  H   UNL     1       0.126  -7.372   5.460  0.00  0.00    +0.155 HD
ENDROOT
BRANCH   1  17
ATOM     15  C   UNL     1       0.061  -4.251  -0.023  0.00  0.00    +0.263 C 
ATOM     16  O   UNL     1       0.063  -4.852  -1.079  0.00  0.00    -0.268 OA
ATOM     17  N   UNL     1       0.076  -4.932   1.140  0.00  0.00    -0.202 N 
ATOM     18  H   UNL     1       0.073  -4.452   1.983  0.00  0.00    +0.178 HD
BRANCH  15  23
ATOM     19  C   UNL     1      -0.018   1.503   0.010  0.00  0.00    +0.045 C 
ATOM     20  C   UNL     1       0.002  -0.004   0.002  0.00  0.00    -0.032 A 
ATOM     21  C   UNL     1       0.006  -0.686  -1.202  0.00  0.00    +0.005 A 
ATOM     22  C   UNL     1       0.025  -2.065  -1.217  0.00  0.00    +0.013 A 
ATOM     23  C   UNL     1       0.041  -2.774  -0.014  0.00  0.00    +0.040 A 
ATOM     24  C   UNL     1       0.037  -2.080   1.198  0.00  0.00    +0.033 A 
ATOM     25  C   UNL     1       0.023  -0.700   1.199  0.00  0.00    +0.045 A 
ATOM     26 CL   UNL     1       0.025   0.166   2.704  0.00  0.00    -0.083 Cl
ENDBRANCH  15  23
ENDBRANCH   1  17
TORSDOF 2
