REMARK  Name = ZINC00890751
REMARK  10 active torsions:
REMARK  status: ('A' for Active; 'I' for Inactive)
REMARK    1  A    between atoms: C_1  and  C_2
REMARK    2  A    between atoms: C_7  and  C_8
REMARK    3  A    between atoms: C_8  and  N_9
REMARK    4  A    between atoms: C_15  and  C_17
REMARK    5  A    between atoms: C_17  and  S_18
REMARK    6  A    between atoms: S_18  and  C_19
REMARK    7  A    between atoms: C_21  and  C_29
REMARK    8  A    between atoms: C_23  and  C_25
REMARK    9  A    between atoms: C_32  and  O_35
REMARK   10  A    between atoms: O_35  and  C_36
REMARK                            x       y       z     vdW  Elec       q    Type
REMARK                         _______ _______ _______ _____ _____    ______ ____
ROOT
ATOM      1  S   UNL     1       3.667  -2.670  -0.043  0.00  0.00    -0.077 S 
ENDROOT
BRANCH   1   2
ATOM      2  C   UNL     1       3.668  -0.908  -0.035  0.00  0.00    +0.190 A 
ATOM      3  N   UNL     1       2.512  -0.262  -0.016  0.00  0.00    -0.222 NA
ATOM      4  C   UNL     1       2.480   1.069  -0.015  0.00  0.00    +0.076 A 
ATOM      5  C   UNL     1       3.686   1.776  -0.023  0.00  0.00    +0.060 A 
ATOM      6  C   UNL     1       4.870   1.060  -0.037  0.00  0.00    +0.148 A 
ATOM      7  N   UNL     1       4.826  -0.263  -0.043  0.00  0.00    -0.218 NA
BRANCH   4   8
ATOM      8  C   UNL     1       1.185   1.790   0.000  0.00  0.00    +0.001 A 
ATOM      9  C   UNL     1      -0.013   1.076   0.008  0.00  0.00    +0.013 A 
ATOM     10  C   UNL     1      -1.215   1.750   0.017  0.00  0.00    +0.046 A 
ATOM     11  C   UNL     1      -1.235   3.138   0.030  0.00  0.00    +0.120 A 
ATOM     12  C   UNL     1      -0.044   3.853   0.022  0.00  0.00    +0.046 A 
ATOM     13  C   UNL     1       1.162   3.185   0.008  0.00  0.00    +0.013 A 
BRANCH  11  14
ATOM     14  O   UNL     1      -2.421   3.799   0.045  0.00  0.00    -0.495 OA
ATOM     15  C   UNL     1      -3.607   3.002   0.052  0.00  0.00    +0.277 C 
ENDBRANCH  11  14
ENDBRANCH   4   8
BRANCH   6  16
ATOM     16  C   UNL     1       6.194   1.779  -0.046  0.00  0.00    +0.434 C 
ATOM     17  F   UNL     1       6.616   1.996   1.270  0.00  0.00    -0.164 F 
ATOM     18  F   UNL     1       7.142   1.000  -0.718  0.00  0.00    -0.164 F 
ATOM     19  F   UNL     1       6.053   3.008  -0.699  0.00  0.00    -0.164 F 
ENDBRANCH   6  16
ENDBRANCH   1   2
BRANCH   1  20
ATOM     20  C   UNL     1       5.449  -2.986  -0.060  0.00  0.00    +0.173 C 
BRANCH  20  27
ATOM     21  N   UNL     1       8.157  -8.300  -0.108  0.00  0.00    -0.265 N 
ATOM     22  C   UNL     1       6.826  -8.527  -0.097  0.00  0.00    +0.110 A 
ATOM     23  C   UNL     1       6.201  -7.328  -0.080  0.00  0.00    +0.065 A 
ATOM     24  C   UNL     1       7.187  -6.328  -0.090  0.00  0.00    +0.147 A 
ATOM     25  N   UNL     1       8.361  -6.915  -0.103  0.00  0.00    -0.156 NA
ATOM     26  N   UNL     1       6.957  -4.946  -0.082  0.00  0.00    -0.268 N 
ATOM     27  C   UNL     1       5.696  -4.472  -0.069  0.00  0.00    +0.229 C 
ATOM     28  O   UNL     1       4.759  -5.242  -0.064  0.00  0.00    -0.275 OA
ATOM     29  H   UNL     1       7.707  -4.330  -0.086  0.00  0.00    +0.156 HD
BRANCH  21  30
ATOM     30  C   UNL     1       9.204  -9.325  -0.120  0.00  0.00    +0.178 C 
BRANCH  30  37
ATOM     31  C   UNL     1      11.399  -7.461   0.120  0.00  0.00    +0.044 C 
ATOM     32  C   UNL     1      11.174  -8.197  -1.176  0.00  0.00    -0.046 A 
ATOM     33  C   UNL     1      12.019  -7.983  -2.249  0.00  0.00    +0.004 A 
ATOM     34  C   UNL     1      11.809  -8.654  -3.439  0.00  0.00    +0.000 A 
ATOM     35  C   UNL     1      10.756  -9.542  -3.555  0.00  0.00    +0.000 A 
ATOM     36  C   UNL     1       9.913  -9.759  -2.482  0.00  0.00    +0.006 A 
ATOM     37  C   UNL     1      10.123  -9.088  -1.291  0.00  0.00    -0.023 A 
ENDBRANCH  30  37
ENDBRANCH  21  30
ENDBRANCH  20  27
ENDBRANCH   1  20
TORSDOF 8
