REMARK  Name = ZINC64502345
REMARK  8 active torsions:
REMARK  status: ('A' for Active; 'I' for Inactive)
REMARK    1  A    between atoms: C_1  and  C_2
REMARK    2  A    between atoms: C_8  and  C_11
REMARK    3  A    between atoms: C_11  and  C_12
REMARK    4  A    between atoms: C_12  and  N_13
REMARK    5  A    between atoms: C_14  and  C_16
REMARK    6  A    between atoms: C_19  and  C_22
REMARK    7  A    between atoms: C_22  and  N_23
REMARK    8  A    between atoms: C_31  and  C_34
REMARK                            x       y       z     vdW  Elec       q    Type
REMARK                         _______ _______ _______ _____ _____    ______ ____
ROOT
ATOM      1  C   UNL     1      -2.534  -2.343   7.755  0.00  0.00    +0.037 A 
ATOM      2  C   UNL     1      -1.333  -2.097   8.422  0.00  0.00    +0.013 A 
ATOM      3  C   UNL     1      -1.338  -1.858   9.780  0.00  0.00    +0.006 A 
ATOM      4  C   UNL     1      -2.530  -1.863  10.483  0.00  0.00    -0.028 A 
ATOM      5  C   UNL     1      -3.724  -2.107   9.828  0.00  0.00    +0.006 A 
ATOM      6  C   UNL     1      -3.734  -2.341   8.469  0.00  0.00    +0.013 A 
ENDROOT
BRANCH   1   8
ATOM      7  N   UNL     1      -1.377  -2.600   5.613  0.00  0.00    -0.311 N 
ATOM      8  C   UNL     1      -2.537  -2.599   6.299  0.00  0.00    +0.244 C 
ATOM      9  O   UNL     1      -3.585  -2.808   5.721  0.00  0.00    -0.270 OA
ATOM     10  H   UNL     1      -0.540  -2.433   6.075  0.00  0.00    +0.149 HD
BRANCH   7  11
ATOM     11  C   UNL     1      -1.379  -2.854   4.170  0.00  0.00    +0.109 C 
BRANCH  11  12
ATOM     12  C   UNL     1       0.055  -2.799   3.641  0.00  0.00    +0.052 C 
BRANCH  12  20
ATOM     13  C   UNL     1      -0.018   1.503   0.010  0.00  0.00    +0.044 C 
ATOM     14  C   UNL     1       0.002  -0.004   0.002  0.00  0.00    -0.050 A 
ATOM     15  C   UNL     1       0.005  -0.680  -1.226  0.00  0.00    +0.005 A 
ATOM     16  C   UNL     1       0.023  -2.026  -1.317  0.00  0.00    +0.026 A 
ATOM     17  C   UNL     1       0.039  -2.826  -0.141  0.00  0.00    +0.043 A 
ATOM     18  N   UNL     1       0.057  -4.126   0.030  0.00  0.00    -0.380 N 
ATOM     19  C   UNL     1       0.067  -4.408   1.470  0.00  0.00    +0.144 C 
ATOM     20  C   UNL     1       0.052  -3.060   2.156  0.00  0.00    -0.040 C 
ATOM     21  C   UNL     1       0.036  -2.137   1.168  0.00  0.00    -0.001 A 
ATOM     22  C   UNL     1       0.022  -0.669   1.180  0.00  0.00    +0.013 A 
ATOM     23  H   UNL     1       0.062  -4.790  -0.677  0.00  0.00    +0.160 HD
ENDBRANCH  12  20
ENDBRANCH  11  12
ENDBRANCH   7  11
ENDBRANCH   1   8
BRANCH   4  24
ATOM     24  C   UNL     1      -2.527  -1.603  11.967  0.00  0.00    +0.160 C 
BRANCH  24  25
ATOM     25  N   UNL     1      -2.672  -0.165  12.210  0.00  0.00    -0.301 N 
ATOM     26  C   UNL     1      -1.560   0.647  12.298  0.00  0.00    +0.071 A 
ATOM     27  C   UNL     1      -0.284   0.109  12.155  0.00  0.00    +0.028 A 
ATOM     28  C   UNL     1       0.820   0.929  12.243  0.00  0.00    +0.002 A 
ATOM     29  C   UNL     1       0.670   2.290  12.475  0.00  0.00    +0.002 A 
ATOM     30  C   UNL     1      -0.571   2.839  12.619  0.00  0.00    +0.030 A 
ATOM     31  C   UNL     1      -1.712   2.026  12.532  0.00  0.00    +0.088 A 
ATOM     32  N   UNL     1      -2.937   2.566  12.674  0.00  0.00    -0.245 NA
ATOM     33  C   UNL     1      -4.008   1.829  12.597  0.00  0.00    +0.103 A 
ATOM     34  C   UNL     1      -3.898   0.388  12.348  0.00  0.00    +0.273 A 
ATOM     35  O   UNL     1      -4.897  -0.303  12.270  0.00  0.00    -0.266 OA
ATOM     36  C   UNL     1      -5.367   2.460  12.760  0.00  0.00    +0.071 C 
ENDBRANCH  24  25
ENDBRANCH   4  24
TORSDOF 6
