REMARK  Name = ZINC12717417
REMARK  9 active torsions:
REMARK  status: ('A' for Active; 'I' for Inactive)
REMARK    1  A    between atoms: C_1  and  C_2
REMARK    2  A    between atoms: C_2  and  C_3
REMARK    3  A    between atoms: C_10  and  C_15
REMARK    4  A    between atoms: C_15  and  N_66
REMARK    5  A    between atoms: C_16  and  C_17
REMARK    6  A    between atoms: C_16  and  N_66
REMARK    7  A    between atoms: C_23  and  C_24
REMARK    8  A    between atoms: C_23  and  N_66
REMARK    9  A    between atoms: N_28  and  C_29
REMARK                            x       y       z     vdW  Elec       q    Type
REMARK                         _______ _______ _______ _____ _____    ______ ____
ROOT
ATOM      1  N   UNL     1      -0.696  -2.998  -1.673  0.00  0.00    +0.390 N 
ATOM      2  H   UNL     1      -0.194  -2.995  -0.777  0.00  0.00    -0.080 HD
ENDROOT
BRANCH   1   3
ATOM      3  C   UNL     1       0.281  -3.148  -2.771  0.00  0.00    -0.036 C 
BRANCH   3  11
ATOM      4  C   UNL     1       5.878  -1.602  -0.633  0.00  0.00    -0.047 A 
ATOM      5  C   UNL     1       5.840  -0.276  -1.042  0.00  0.00    +0.005 A 
ATOM      6  C   UNL     1       4.740   0.225  -1.702  0.00  0.00    +0.026 A 
ATOM      7  C   UNL     1       3.653  -0.604  -1.961  0.00  0.00    +0.049 A 
ATOM      8  C   UNL     1       3.695  -1.948  -1.544  0.00  0.00    -0.001 A 
ATOM      9  C   UNL     1       4.824  -2.435  -0.876  0.00  0.00    +0.013 A 
ATOM     10  C   UNL     1       2.545  -2.812  -1.816  0.00  0.00    +0.017 A 
ATOM     11  C   UNL     1       1.480  -2.285  -2.471  0.00  0.00    +0.001 A 
ATOM     12  C   UNL     1       1.488  -0.931  -2.868  0.00  0.00    +0.251 A 
ATOM     13  O   UNL     1       0.520  -0.477  -3.451  0.00  0.00    -0.268 OA
ATOM     14  N   UNL     1       2.538  -0.129  -2.618  0.00  0.00    -0.322 N 
ATOM     15  H   UNL     1       2.511   0.797  -2.905  0.00  0.00    +0.169 HD
BRANCH   4  17
ATOM     16  C   UNL     1       8.092  -2.679  -0.933  0.00  0.00    +0.009 C 
ATOM     17  C   UNL     1       7.094  -2.127   0.087  0.00  0.00    +0.032 C 
ENDBRANCH   4  17
ENDBRANCH   3  11
ENDBRANCH   1   3
BRANCH   1  18
ATOM     18  C   UNL     1      -1.648  -4.129  -1.686  0.00  0.00    -0.042 C 
BRANCH  18  19
ATOM     19  C   UNL     1      -0.944  -5.361  -1.179  0.00  0.00    -0.064 A 
ATOM     20  C   UNL     1      -0.403  -6.265  -2.074  0.00  0.00    +0.002 A 
ATOM     21  C   UNL     1       0.248  -7.393  -1.608  0.00  0.00    +0.000 A 
ATOM     22  C   UNL     1       0.349  -7.621  -0.249  0.00  0.00    +0.000 A 
ATOM     23  C   UNL     1      -0.197  -6.719   0.646  0.00  0.00    +0.000 A 
ATOM     24  C   UNL     1      -0.843  -5.589   0.181  0.00  0.00    +0.002 A 
ENDBRANCH  18  19
ENDBRANCH   1  18
BRANCH   1  25
ATOM     25  C   UNL     1      -1.427  -1.721  -1.818  0.00  0.00    +0.001 C 
BRANCH  25  26
ATOM     26  C   UNL     1      -2.252  -1.490  -0.578  0.00  0.00    +0.135 A 
ATOM     27  N   UNL     1      -3.491  -1.868  -0.381  0.00  0.00    -0.115 NA
ATOM     28  N   UNL     1      -3.841  -1.486   0.799  0.00  0.00    -0.023 NA
ATOM     29  N   UNL     1      -2.855  -0.879   1.362  0.00  0.00    -0.044 NA
ATOM     30  N   UNL     1      -1.859  -0.856   0.542  0.00  0.00    -0.228 N 
BRANCH  30  31
ATOM     31  C   UNL     1      -0.544  -0.258   0.788  0.00  0.00    +0.111 C 
ATOM     32  C   UNL     1      -0.707   1.239   1.060  0.00  0.00    +0.027 C 
ATOM     33  C   UNL     1       0.666   1.863   1.316  0.00  0.00    +0.002 C 
ATOM     34  C   UNL     1       1.312   1.192   2.530  0.00  0.00    +0.000 C 
ATOM     35  C   UNL     1       1.476  -0.304   2.258  0.00  0.00    +0.002 C 
ATOM     36  C   UNL     1       0.103  -0.929   2.002  0.00  0.00    +0.027 C 
ENDBRANCH  30  31
ENDBRANCH  25  26
ENDBRANCH   1  25
TORSDOF 8
