REMARK  Name = ZINC48022167
REMARK  4 active torsions:
REMARK  status: ('A' for Active; 'I' for Inactive)
REMARK    1  A    between atoms: C_3  and  N_15
REMARK    2  A    between atoms: C_5  and  O_7
REMARK    3  A    between atoms: O_7  and  C_8
REMARK    4  A    between atoms: C_8  and  C_9
REMARK                            x       y       z     vdW  Elec       q    Type
REMARK                         _______ _______ _______ _____ _____    ______ ____
ROOT
ATOM      1  C   UNL     1      -0.017   1.377   0.010  0.00  0.00    +0.006 A 
ATOM      2  C   UNL     1       1.171   2.086   0.002  0.00  0.00    +0.033 A 
ATOM      3  C   UNL     1       2.379   1.415  -0.013  0.00  0.00    +0.130 A 
ATOM      4  C   UNL     1       2.403   0.033  -0.021  0.00  0.00    +0.078 A 
ATOM      5  C   UNL     1       1.214  -0.680  -0.014  0.00  0.00    +0.123 A 
ATOM      6  C   UNL     1       0.002  -0.004   0.002  0.00  0.00    +0.046 A 
ENDROOT
BRANCH   3   7
ATOM      7  N   UNL     1       3.648   2.176  -0.021  0.00  0.00    +0.057 N 
ATOM      8  O   UNL     1       3.628   3.385  -0.014  0.00  0.00    -0.126 OA
ATOM      9  O   UNL     1       4.705   1.590  -0.034  0.00  0.00    -0.126 OA
ENDBRANCH   3   7
BRANCH   5  10
ATOM     10  O   UNL     1       1.235  -2.039  -0.022  0.00  0.00    -0.487 OA
BRANCH  10  11
ATOM     11  C   UNL     1      -0.028  -2.708  -0.014  0.00  0.00    +0.271 C 
BRANCH  11  12
ATOM     12  C   UNL     1       0.192  -4.198  -0.025  0.00  0.00    +0.028 A 
ATOM     13  C   UNL     1       0.322  -5.050   1.022  0.00  0.00    +0.016 A 
ATOM     14  C   UNL     1       0.520  -6.395   0.771  0.00  0.00    +0.023 A 
ATOM     15  C   UNL     1       0.579  -6.822  -0.514  0.00  0.00    +0.055 A 
ATOM     16  S   UNL     1       0.343  -5.302  -1.420  0.00  0.00    -0.083 S 
ATOM     17 BR   UNL     1       0.836  -8.575  -1.176  0.00  0.00    -0.043 Br
ENDBRANCH  11  12
ENDBRANCH  10  11
ENDBRANCH   5  10
TORSDOF 4
