REMARK  Name = ZINC24145180
REMARK  12 active torsions:
REMARK  status: ('A' for Active; 'I' for Inactive)
REMARK    1  A    between atoms: C_1  and  O_2
REMARK    2  A    between atoms: O_2  and  C_3
REMARK    3  A    between atoms: C_3  and  C_4
REMARK    4  A    between atoms: C_4  and  N_5
REMARK    5  A    between atoms: C_6  and  C_8
REMARK    6  A    between atoms: C_12  and  N_13
REMARK    7  A    between atoms: C_14  and  C_16
REMARK    8  A    between atoms: C_16  and  O_17
REMARK    9  A    between atoms: O_17  and  C_18
REMARK   10  A    between atoms: C_18  and  C_20
REMARK   11  A    between atoms: C_23  and  C_26
REMARK   12  A    between atoms: C_26  and  N_27
REMARK                            x       y       z     vdW  Elec       q    Type
REMARK                         _______ _______ _______ _____ _____    ______ ____
ROOT
ATOM      1  N   UNL     1      -8.657  -4.765  -2.643  0.00  0.00    -0.277 N 
ATOM      2  C   UNL     1      -7.653  -3.884  -2.466  0.00  0.00    +0.255 C 
ATOM      3  O   UNL     1      -7.102  -3.391  -3.428  0.00  0.00    -0.272 OA
ATOM      4  H   UNL     1      -9.156  -5.212  -1.770  0.00  0.00    +0.155 HD
ENDROOT
BRANCH   1   9
ATOM      5  C   UNL     1     -10.062  -5.990  -4.305  0.00  0.00    +0.069 A 
ATOM      6  C   UNL     1     -10.293  -6.170  -5.729  0.00  0.00    -0.023 A 
ATOM      7  C   UNL     1      -9.483  -5.452  -6.537  0.00  0.00    -0.004 A 
ATOM      8  S   UNL     1      -8.436  -4.543  -5.438  0.00  0.00    -0.077 S 
ATOM      9  C   UNL     1      -9.062  -5.107  -3.924  0.00  0.00    +0.084 A 
ATOM     10  C   UNL     1      -9.484  -5.439  -8.035  0.00  0.00    +0.043 C 
ATOM     11  C   UNL     1     -10.293  -6.647  -8.529  0.00  0.00    +0.005 C 
ATOM     12  C   UNL     1     -11.616  -6.703  -7.760  0.00  0.00    +0.005 C 
ATOM     13  C   UNL     1     -11.356  -7.097  -6.305  0.00  0.00    +0.037 C 
BRANCH   5  15
ATOM     14  N   UNL     1     -10.451  -7.916  -2.862  0.00  0.00    -0.309 N 
ATOM     15  C   UNL     1     -10.860  -6.712  -3.309  0.00  0.00    +0.247 C 
ATOM     16  O   UNL     1     -11.891  -6.223  -2.885  0.00  0.00    -0.270 OA
ATOM     17  H   UNL     1      -9.520  -8.358  -3.245  0.00  0.00    +0.149 HD
BRANCH  14  18
ATOM     18  C   UNL     1     -11.248  -8.637  -1.867  0.00  0.00    +0.132 C 
BRANCH  18  19
ATOM     19  C   UNL     1     -10.568  -9.966  -1.534  0.00  0.00    +0.178 C 
BRANCH  19  21
ATOM     20  C   UNL     1      -8.591 -10.895  -0.548  0.00  0.00    +0.194 C 
ATOM     21  O   UNL     1      -9.312  -9.713  -0.902  0.00  0.00    -0.381 OA
ENDBRANCH  19  21
ENDBRANCH  18  19
ENDBRANCH  14  18
ENDBRANCH   5  15
ENDBRANCH   1   9
BRANCH   2  22
ATOM     22  C   UNL     1      -7.213  -3.512  -1.073  0.00  0.00    +0.328 C 
BRANCH  22  23
ATOM     23  O   UNL     1      -6.124  -2.554  -1.149  0.00  0.00    -0.452 OA
BRANCH  23  24
ATOM     24  C   UNL     1      -5.612  -2.116   0.017  0.00  0.00    +0.340 C 
ATOM     25  O   UNL     1      -6.063  -2.523   1.069  0.00  0.00    -0.245 OA
BRANCH  24  26
ATOM     26  C   UNL     1      -4.503  -1.141   0.017  0.00  0.00    +0.059 A 
ATOM     27  C   UNL     1      -3.970  -0.685   1.225  0.00  0.00    +0.015 A 
ATOM     28  C   UNL     1      -2.933   0.225   1.217  0.00  0.00    +0.006 A 
ATOM     29  C   UNL     1      -2.422   0.686   0.017  0.00  0.00    -0.030 A 
ATOM     30  C   UNL     1      -2.949   0.242  -1.183  0.00  0.00    +0.006 A 
ATOM     31  C   UNL     1      -3.982  -0.672  -1.190  0.00  0.00    +0.015 A 
BRANCH  29  32
ATOM     32  C   UNL     1      -1.290   1.681   0.017  0.00  0.00    +0.141 C 
BRANCH  32  33
ATOM     33  N   UNL     1      -0.011   0.966   0.007  0.00  0.00    -0.295 N 
ATOM     34  C   UNL     1       1.147   1.655   0.000  0.00  0.00    +0.297 C 
ATOM     35  O   UNL     1       1.130   2.871   0.007  0.00  0.00    -0.253 OA
ATOM     36  N   UNL     1       2.323   0.998  -0.015  0.00  0.00    -0.313 N 
ATOM     37  H   UNL     1       0.004  -0.134   0.006  0.00  0.00    +0.151 HD
ATOM     38  H   UNL     1       3.268   1.560  -0.021  0.00  0.00    +0.146 HD
ATOM     39  H   UNL     1       2.338  -0.102  -0.021  0.00  0.00    +0.146 HD
ENDBRANCH  32  33
ENDBRANCH  29  32
ENDBRANCH  24  26
ENDBRANCH  23  24
ENDBRANCH  22  23
ENDBRANCH   2  22
TORSDOF 11
