REMARK  Name = ZINC20683761
REMARK  6 active torsions:
REMARK  status: ('A' for Active; 'I' for Inactive)
REMARK    1  A    between atoms: C_1  and  C_2
REMARK    2  A    between atoms: C_2  and  C_4
REMARK    3  A    between atoms: C_2  and  N_20
REMARK    4  A    between atoms: N_9  and  C_10
REMARK    5  A    between atoms: N_23  and  C_26
REMARK    6  A    between atoms: C_29  and  N_32
REMARK                            x       y       z     vdW  Elec       q    Type
REMARK                         _______ _______ _______ _____ _____    ______ ____
ROOT
ATOM      1  C   UNL     1      -1.509   2.766   1.297  0.00  0.00    -0.004 C 
ATOM      2  C   UNL     1      -1.330   1.944   0.019  0.00  0.00    +0.017 C 
ENDROOT
BRANCH   2   3
ATOM      3  C   UNL     1      -0.018   1.204   0.078  0.00  0.00    +0.207 C 
ATOM      4  O   UNL     1      -0.004   0.011   0.296  0.00  0.00    -0.277 OA
ATOM      5  N   UNL     1       1.139   1.867  -0.117  0.00  0.00    -0.242 N 
ATOM      6  C   UNL     1       2.312   1.204  -0.070  0.00  0.00    +0.306 C 
ATOM      7  O   UNL     1       2.325   0.008   0.149  0.00  0.00    -0.252 OA
ATOM      8  N   UNL     1       3.469   1.867  -0.264  0.00  0.00    -0.294 N 
ATOM      9  H   UNL     1       1.127   2.949  -0.315  0.00  0.00    +0.159 HD
ATOM     10  H   UNL     1       3.456   2.949  -0.462  0.00  0.00    +0.151 HD
BRANCH   8  11
ATOM     11  C   UNL     1       4.743   1.146  -0.213  0.00  0.00    +0.037 C 
ATOM     12  C   UNL     1       4.912   0.506   1.166  0.00  0.00    +0.029 C 
ATOM     13  C   UNL     1       6.243  -0.247   1.220  0.00  0.00    -0.008 C 
ATOM     14  C   UNL     1       7.392   0.731   0.968  0.00  0.00    +0.007 C 
ATOM     15  C   UNL     1       7.224   1.371  -0.411  0.00  0.00    -0.008 C 
ATOM     16  C   UNL     1       5.893   2.124  -0.465  0.00  0.00    +0.029 C 
ATOM     17  C   UNL     1       7.237   0.281  -1.485  0.00  0.00    +0.007 C 
ATOM     18  C   UNL     1       6.088  -0.697  -1.233  0.00  0.00    -0.008 C 
ATOM     19  C   UNL     1       6.256  -1.337   0.146  0.00  0.00    +0.007 C 
ATOM     20  C   UNL     1       4.757   0.056  -1.286  0.00  0.00    +0.029 C 
ENDBRANCH   8  11
ENDBRANCH   2   3
BRANCH   2  21
ATOM     21  N   UNL     1      -2.431   0.979  -0.102  0.00  0.00    +0.389 N 
ATOM     22  C   UNL     1      -3.667   1.644  -0.538  0.00  0.00    -0.059 C 
ATOM     23  C   UNL     1      -4.766   0.596  -0.728  0.00  0.00    +0.086 C 
ATOM     24  N   UNL     1      -4.977  -0.124   0.535  0.00  0.00    -0.333 N 
ATOM     25  C   UNL     1      -3.741  -0.788   0.972  0.00  0.00    +0.086 C 
ATOM     26  C   UNL     1      -2.642   0.259   1.162  0.00  0.00    -0.059 C 
ATOM     27  H   UNL     1      -2.151   0.243  -0.870  0.00  0.00    -0.081 HD
BRANCH  24  28
ATOM     28  C   UNL     1      -6.024  -1.041   0.421  0.00  0.00    +0.030 A 
ATOM     29  C   UNL     1      -5.808  -2.384   0.703  0.00  0.00    +0.025 A 
ATOM     30  C   UNL     1      -6.847  -3.287   0.594  0.00  0.00    +0.034 A 
ATOM     31  C   UNL     1      -8.099  -2.858   0.193  0.00  0.00    +0.126 A 
ATOM     32  C   UNL     1      -8.316  -1.522  -0.094  0.00  0.00    +0.034 A 
ATOM     33  C   UNL     1      -7.283  -0.613   0.019  0.00  0.00    +0.025 A 
BRANCH  31  34
ATOM     34  N   UNL     1      -9.209  -3.829   0.072  0.00  0.00    +0.056 N 
ATOM     35  O   UNL     1     -10.312  -3.453  -0.280  0.00  0.00    -0.126 OA
ATOM     36  O   UNL     1      -9.019  -5.006   0.325  0.00  0.00    -0.126 OA
ENDBRANCH  31  34
ENDBRANCH  24  28
ENDBRANCH   2  21
TORSDOF 5
