REMARK  Name = ZINC15931451
REMARK  8 active torsions:
REMARK  status: ('A' for Active; 'I' for Inactive)
REMARK    1  A    between atoms: C_1  and  C_2
REMARK    2  A    between atoms: C_2  and  C_3
REMARK    3  A    between atoms: C_2  and  O_4
REMARK    4  A    between atoms: O_4  and  C_5
REMARK    5  A    between atoms: C_6  and  O_32
REMARK    6  A    between atoms: C_8  and  C_12
REMARK    7  A    between atoms: N_19  and  C_22
REMARK    8  A    between atoms: O_32  and  C_33
REMARK                            x       y       z     vdW  Elec       q    Type
REMARK                         _______ _______ _______ _____ _____    ______ ____
ROOT
ATOM      1  C   UNL     1       3.689  -0.666  -0.035  0.00  0.00    +0.026 C 
ATOM      2  C   UNL     1       4.870   0.043  -0.147  0.00  0.00    +0.100 C 
ATOM      3  C   UNL     1       4.886   1.519  -0.150  0.00  0.00    +0.257 C 
ATOM      4  O   UNL     1       3.853   2.155  -0.054  0.00  0.00    -0.270 OA
ATOM      5  N   UNL     1       6.077   2.143  -0.258  0.00  0.00    -0.235 N 
ATOM      6  C   UNL     1       7.221   1.454  -0.371  0.00  0.00    +0.320 C 
ATOM      7  O   UNL     1       8.260   2.077  -0.470  0.00  0.00    -0.251 OA
ATOM      8  N   UNL     1       7.282   0.115  -0.381  0.00  0.00    -0.189 N 
ATOM      9  C   UNL     1       6.171  -0.642  -0.275  0.00  0.00    +0.264 C 
ATOM     10  O   UNL     1       6.239  -1.857  -0.286  0.00  0.00    -0.269 OA
ATOM     11  H   UNL     1       6.106   3.112  -0.257  0.00  0.00    +0.159 HD
ENDROOT
BRANCH   8  12
ATOM     12  C   UNL     1       8.526  -0.511  -0.503  0.00  0.00    +0.053 A 
ATOM     13  C   UNL     1       9.030  -0.819  -1.747  0.00  0.00    +0.024 A 
ATOM     14  C   UNL     1      10.268  -1.443  -1.880  0.00  0.00    +0.002 A 
ATOM     15  C   UNL     1      11.013  -1.765  -0.787  0.00  0.00    +0.008 A 
ATOM     16  C   UNL     1      10.535  -1.468   0.501  0.00  0.00    -0.016 A 
ATOM     17  C   UNL     1       9.279  -0.828   0.647  0.00  0.00    +0.004 A 
ATOM     18  C   UNL     1       8.806  -0.526   1.934  0.00  0.00    +0.010 A 
ATOM     19  C   UNL     1       9.559  -0.846   3.022  0.00  0.00    +0.001 A 
ATOM     20  C   UNL     1      10.797  -1.469   2.878  0.00  0.00    +0.001 A 
ATOM     21  C   UNL     1      11.282  -1.789   1.647  0.00  0.00    +0.008 A 
ENDBRANCH   8  12
BRANCH   1  25
ATOM     22  C   UNL     1       0.099   1.348   0.977  0.00  0.00    +0.176 A 
ATOM     23  C   UNL     1       0.104   0.421  -0.067  0.00  0.00    +0.163 A 
ATOM     24  C   UNL     1       1.269  -0.237  -0.401  0.00  0.00    +0.057 A 
ATOM     25  C   UNL     1       2.449   0.028   0.312  0.00  0.00    -0.019 A 
ATOM     26  C   UNL     1       2.435   0.962   1.359  0.00  0.00    +0.027 A 
ATOM     27  C   UNL     1       1.266   1.613   1.684  0.00  0.00    +0.064 A 
ATOM     28 BR   UNL     1       1.248   2.870   3.096  0.00  0.00    -0.046 Br
BRANCH  23  29
ATOM     29  O   UNL     1      -1.041   0.166  -0.755  0.00  0.00    -0.491 OA
ATOM     30  C   UNL     1      -0.963  -0.794  -1.811  0.00  0.00    +0.277 C 
ENDBRANCH  23  29
BRANCH  22  31
ATOM     31  O   UNL     1      -1.049   1.997   1.298  0.00  0.00    -0.485 OA
BRANCH  31  33
ATOM     32  C   UNL     1      -1.498   1.869   3.669  0.00  0.00    +0.051 C 
ATOM     33  C   UNL     1      -1.892   1.380   2.274  0.00  0.00    +0.168 C 
ATOM     34  C   UNL     1      -3.350   1.752   1.996  0.00  0.00    +0.051 C 
ENDBRANCH  31  33
ENDBRANCH  22  31
ENDBRANCH   1  25
TORSDOF 5
