REMARK  Name = ZINC13423357
REMARK  7 active torsions:
REMARK  status: ('A' for Active; 'I' for Inactive)
REMARK    1  A    between atoms: C_1  and  C_2
REMARK    2  A    between atoms: C_2  and  C_4
REMARK    3  A    between atoms: C_2  and  O_14
REMARK    4  A    between atoms: N_6  and  C_7
REMARK    5  A    between atoms: C_7  and  C_8
REMARK    6  A    between atoms: O_14  and  C_15
REMARK    7  A    between atoms: C_18  and  C_22
REMARK                            x       y       z     vdW  Elec       q    Type
REMARK                         _______ _______ _______ _____ _____    ______ ____
ROOT
ATOM      1  C   UNL     1      -0.019   1.526   0.010  0.00  0.00    +0.062 C 
ATOM      2  C   UNL     1       0.002  -0.004   0.002  0.00  0.00    +0.256 C 
ENDROOT
BRANCH   2   3
ATOM      3  C   UNL     1       0.731  -0.503   1.223  0.00  0.00    +0.254 C 
ATOM      4  O   UNL     1       0.135  -1.137   2.068  0.00  0.00    -0.272 OA
ATOM      5  N   UNL     1       2.045  -0.246   1.375  0.00  0.00    -0.312 N 
ATOM      6  H   UNL     1       2.522   0.261   0.699  0.00  0.00    +0.149 HD
BRANCH   5   7
ATOM      7  C   UNL     1       2.754  -0.731   2.562  0.00  0.00    +0.107 C 
BRANCH   7   8
ATOM      8  C   UNL     1       4.222  -0.306   2.489  0.00  0.00    +0.006 C 
ATOM      9  C   UNL     1       4.895  -1.000   1.304  0.00  0.00    +0.005 C 
ATOM     10  C   UNL     1       6.363  -0.575   1.231  0.00  0.00    +0.000 C 
ATOM     11  C   UNL     1       7.074  -0.973   2.526  0.00  0.00    +0.000 C 
ATOM     12  C   UNL     1       6.401  -0.279   3.711  0.00  0.00    +0.000 C 
ATOM     13  C   UNL     1       4.933  -0.704   3.784  0.00  0.00    +0.005 C 
ENDBRANCH   7   8
ENDBRANCH   5   7
ENDBRANCH   2   3
BRANCH   2  14
ATOM     14  O   UNL     1      -1.339  -0.499   0.012  0.00  0.00    -0.477 OA
BRANCH  14  15
ATOM     15  C   UNL     1      -1.928  -0.706  -1.193  0.00  0.00    +0.158 A 
ATOM     16  C   UNL     1      -2.642   0.322  -1.801  0.00  0.00    +0.085 A 
ATOM     17  C   UNL     1      -3.242   0.116  -3.024  0.00  0.00    +0.039 A 
ATOM     18  C   UNL     1      -3.132  -1.128  -3.654  0.00  0.00    +0.066 A 
ATOM     19  C   UNL     1      -2.413  -2.158  -3.039  0.00  0.00    +0.039 A 
ATOM     20  C   UNL     1      -1.812  -1.942  -1.818  0.00  0.00    +0.085 A 
ATOM     21 CL   UNL     1      -0.914  -3.218  -1.057  0.00  0.00    -0.080 Cl
ATOM     22 CL   UNL     1      -2.777   1.865  -1.018  0.00  0.00    -0.080 Cl
BRANCH  18  23
ATOM     23  C   UNL     1      -3.772  -1.352  -4.961  0.00  0.00    +0.387 C 
ATOM     24  O   UNL     1      -4.401  -0.450  -5.497  0.00  0.00    -0.241 OA
ATOM     25  O   UNL     1      -3.675  -2.441  -5.511  0.00  0.00    -0.241 OA
ENDBRANCH  18  23
ENDBRANCH  14  15
ENDBRANCH   2  14
TORSDOF 6
