REMARK  Name = ZINC09305258
REMARK  13 active torsions:
REMARK  status: ('A' for Active; 'I' for Inactive)
REMARK    1  A    between atoms: C_1  and  C_2
REMARK    2  A    between atoms: C_4  and  N_34
REMARK    3  A    between atoms: C_7  and  N_8
REMARK    4  A    between atoms: C_9  and  C_11
REMARK    5  A    between atoms: C_11  and  S_12
REMARK    6  A    between atoms: S_12  and  C_13
REMARK    7  A    between atoms: C_16  and  C_19
REMARK    8  A    between atoms: N_17  and  C_18
REMARK    9  A    between atoms: C_19  and  C_21
REMARK   10  A    between atoms: C_19  and  N_24
REMARK   11  A    between atoms: C_21  and  C_22
REMARK   12  A    between atoms: C_21  and  C_23
REMARK   13  A    between atoms: C_25  and  C_27
REMARK                            x       y       z     vdW  Elec       q    Type
REMARK                         _______ _______ _______ _____ _____    ______ ____
ROOT
ATOM      1  C   UNL     1      -6.428   2.048  -0.410  0.00  0.00    +0.192 A 
ATOM      2  N   UNL     1      -6.372   3.360  -0.391  0.00  0.00    -0.122 NA
ATOM      3  N   UNL     1      -7.556   3.849  -0.490  0.00  0.00    -0.132 NA
ATOM      4  C   UNL     1      -8.432   2.887  -0.569  0.00  0.00    +0.155 A 
ATOM      5  N   UNL     1      -7.745   1.706  -0.521  0.00  0.00    -0.308 N 
ATOM      6  C   UNL     1      -8.305   0.353  -0.577  0.00  0.00    +0.152 C 
ENDROOT
BRANCH   1   7
ATOM      7  S   UNL     1      -5.062   0.940  -0.304  0.00  0.00    -0.077 S 
BRANCH   7   8
ATOM      8  C   UNL     1      -3.702   2.128  -0.184  0.00  0.00    +0.173 C 
BRANCH   8  10
ATOM      9  N   UNL     1      -1.237   2.069   0.019  0.00  0.00    -0.285 N 
ATOM     10  C   UNL     1      -2.394   1.385  -0.081  0.00  0.00    +0.227 C 
ATOM     11  O   UNL     1      -2.383   0.173  -0.088  0.00  0.00    -0.275 OA
ATOM     12  H   UNL     1      -1.250   3.037   0.090  0.00  0.00    +0.155 HD
BRANCH   9  19
ATOM     13  C   UNL     1       1.000   3.305  -1.232  0.00  0.00    +0.046 C 
ATOM     14  C   UNL     1       1.099   1.949  -0.581  0.00  0.00    -0.027 A 
ATOM     15  C   UNL     1       2.300   1.267  -0.584  0.00  0.00    +0.038 A 
ATOM     16  C   UNL     1       2.392   0.023   0.013  0.00  0.00    +0.127 A 
ATOM     17  C   UNL     1       1.282  -0.542   0.613  0.00  0.00    +0.034 A 
ATOM     18  C   UNL     1       0.078   0.134   0.619  0.00  0.00    +0.026 A 
ATOM     19  C   UNL     1      -0.017   1.384   0.021  0.00  0.00    +0.036 A 
BRANCH  16  20
ATOM     20  N   UNL     1       3.681  -0.705   0.008  0.00  0.00    +0.056 N 
ATOM     21  O   UNL     1       3.763  -1.801   0.532  0.00  0.00    -0.126 OA
ATOM     22  O   UNL     1       4.659  -0.208  -0.520  0.00  0.00    -0.126 OA
ENDBRANCH  16  20
ENDBRANCH   9  19
ENDBRANCH   8  10
ENDBRANCH   7   8
ENDBRANCH   1   7
BRANCH   4  23
ATOM     23  C   UNL     1      -9.925   3.047  -0.692  0.00  0.00    +0.144 C 
BRANCH  23  24
ATOM     24  N   UNL     1     -10.226   4.077  -1.689  0.00  0.00    -0.301 N 
ATOM     25  C   UNL     1     -11.408   4.062  -2.337  0.00  0.00    +0.245 C 
ATOM     26  O   UNL     1     -12.224   3.195  -2.094  0.00  0.00    -0.270 OA
ATOM     27  H   UNL     1      -9.575   4.769  -1.883  0.00  0.00    +0.150 HD
BRANCH  25  28
ATOM     28  C   UNL     1     -11.711   5.101  -3.344  0.00  0.00    +0.037 A 
ATOM     29  C   UNL     1     -10.779   6.102  -3.621  0.00  0.00    +0.014 A 
ATOM     30  C   UNL     1     -11.065   7.065  -4.566  0.00  0.00    +0.021 A 
ATOM     31  C   UNL     1     -12.280   7.047  -5.230  0.00  0.00    +0.041 A 
ATOM     32  C   UNL     1     -13.212   6.060  -4.955  0.00  0.00    +0.021 A 
ATOM     33  C   UNL     1     -12.935   5.088  -4.017  0.00  0.00    +0.014 A 
ATOM     34 CL   UNL     1     -12.636   8.267  -6.413  0.00  0.00    -0.084 Cl
ENDBRANCH  25  28
ENDBRANCH  23  24
BRANCH  23  35
ATOM     35  C   UNL     1     -10.506   3.463   0.662  0.00  0.00    +0.011 C 
ATOM     36  C   UNL     1     -12.022   3.625   0.538  0.00  0.00    +0.009 C 
ATOM     37  C   UNL     1     -10.192   2.387   1.704  0.00  0.00    +0.009 C 
ENDBRANCH  23  35
ENDBRANCH   4  23
TORSDOF 9
