REMARK  Name = ZINC67549859
REMARK  11 active torsions:
REMARK  status: ('A' for Active; 'I' for Inactive)
REMARK    1  A    between atoms: C_1  and  C_2
REMARK    2  A    between atoms: C_2  and  C_3
REMARK    3  A    between atoms: C_3  and  C_4
REMARK    4  A    between atoms: N_6  and  C_7
REMARK    5  A    between atoms: C_11  and  N_14
REMARK    6  A    between atoms: C_12  and  C_13
REMARK    7  A    between atoms: N_17  and  C_18
REMARK    8  A    between atoms: N_17  and  C_19
REMARK    9  A    between atoms: C_19  and  C_21
REMARK   10  A    between atoms: C_19  and  C_22
REMARK   11  A    between atoms: C_26  and  O_28
REMARK                            x       y       z     vdW  Elec       q    Type
REMARK                         _______ _______ _______ _____ _____    ______ ____
ROOT
ATOM      1  N   UNL     1       2.881  -6.736  -4.103  0.00  0.00    -0.269 N 
ATOM      2  C   UNL     1       2.913  -8.082  -4.151  0.00  0.00    +0.307 C 
ATOM      3  O   UNL     1       2.408  -8.735  -3.258  0.00  0.00    -0.252 OA
ATOM      4  N   UNL     1       3.505  -8.706  -5.189  0.00  0.00    -0.282 N 
ATOM      5  C   UNL     1       4.113  -7.920  -6.265  0.00  0.00    +0.134 C 
ATOM      6  H   UNL     1       3.343  -6.215  -4.778  0.00  0.00    +0.156 HD
ENDROOT
BRANCH   1  11
ATOM      7  C   UNL     1       0.830  -4.254  -2.317  0.00  0.00    +0.038 A 
ATOM      8  C   UNL     1       0.795  -4.813  -1.046  0.00  0.00    +0.024 A 
ATOM      9  C   UNL     1       1.449  -6.004  -0.794  0.00  0.00    +0.004 A 
ATOM     10  C   UNL     1       2.140  -6.642  -1.806  0.00  0.00    +0.024 A 
ATOM     11  C   UNL     1       2.180  -6.089  -3.079  0.00  0.00    +0.039 A 
ATOM     12  C   UNL     1       1.519  -4.896  -3.336  0.00  0.00    -0.008 A 
ATOM     13  C   UNL     1       1.554  -4.296  -4.718  0.00  0.00    +0.047 C 
BRANCH   7  16
ATOM     14  C   UNL     1      -0.878  -2.680  -1.804  0.00  0.00    +0.217 C 
ATOM     15  O   UNL     1      -1.310  -3.438  -0.962  0.00  0.00    -0.275 OA
ATOM     16  N   UNL     1       0.167  -3.048  -2.571  0.00  0.00    -0.285 N 
ATOM     17  H   UNL     1       0.461  -2.477  -3.298  0.00  0.00    +0.155 HD
BRANCH  14  18
ATOM     18  C   UNL     1      -1.512  -1.326  -1.994  0.00  0.00    +0.096 C 
BRANCH  18  20
ATOM     19  C   UNL     1      -3.311   0.214  -1.200  0.00  0.00    +0.004 C 
ATOM     20  C   UNL     1      -2.668  -1.161  -1.007  0.00  0.00    +0.006 C 
ENDBRANCH  18  20
ENDBRANCH  14  18
ENDBRANCH   7  16
ENDBRANCH   1  11
BRANCH   4  21
ATOM     21  C   UNL     1       3.540 -10.169  -5.241  0.00  0.00    +0.104 C 
ATOM     22  C   UNL     1       2.939 -10.647  -6.564  0.00  0.00    +0.033 C 
BRANCH  21  23
ATOM     23  C   UNL     1       4.967 -10.642  -5.137  0.00  0.00    -0.024 A 
ATOM     24  C   UNL     1       5.325 -11.552  -4.159  0.00  0.00    +0.006 A 
ATOM     25  C   UNL     1       6.633 -11.987  -4.062  0.00  0.00    +0.004 A 
ATOM     26  C   UNL     1       7.587 -11.513  -4.942  0.00  0.00    +0.045 A 
ATOM     27  C   UNL     1       7.231 -10.600  -5.924  0.00  0.00    +0.117 A 
ATOM     28  C   UNL     1       5.916 -10.170  -6.023  0.00  0.00    +0.050 A 
BRANCH  27  29
ATOM     29  O   UNL     1       8.168 -10.133  -6.790  0.00  0.00    -0.507 OA
ATOM     30  H   UNL     1       8.259 -10.663  -7.594  0.00  0.00    +0.292 HD
ENDBRANCH  27  29
ENDBRANCH  21  23
ENDBRANCH   4  21
TORSDOF 7
