REMARK  Name = ZINC46983833
REMARK  4 active torsions:
REMARK  status: ('A' for Active; 'I' for Inactive)
REMARK    1  A    between atoms: C_1  and  C_2
REMARK    2  A    between atoms: N_11  and  C_12
REMARK    3  A    between atoms: C_12  and  C_13
REMARK    4  A    between atoms: C_16  and  N_19
REMARK                            x       y       z     vdW  Elec       q    Type
REMARK                         _______ _______ _______ _____ _____    ______ ____
ROOT
ATOM      1  C   UNL     1       2.828  -4.891   1.762  0.00  0.00    +0.141 C 
ENDROOT
BRANCH   1  11
ATOM      2  C   UNL     1      -0.017   1.530   0.020  0.00  0.00    +0.009 C 
ATOM      3  C   UNL     1       0.005  -0.000   0.006  0.00  0.00    +0.003 C 
ATOM      4  C   UNL     1      -1.431  -0.531   0.013  0.00  0.00    +0.006 C 
ATOM      5  C   UNL     1      -1.411  -2.061  -0.033  0.00  0.00    +0.019 C 
ATOM      6  C   UNL     1      -0.691  -2.596   1.209  0.00  0.00    +0.109 C 
ATOM      7  N   UNL     1       0.639  -1.977   1.288  0.00  0.00    -0.285 N 
ATOM      8  C   UNL     1       0.741  -0.512   1.248  0.00  0.00    +0.112 C 
ATOM      9  C   UNL     1       1.746  -2.740   1.395  0.00  0.00    +0.302 C 
ATOM     10  O   UNL     1       2.845  -2.222   1.364  0.00  0.00    -0.253 OA
ATOM     11  N   UNL     1       1.633  -4.075   1.536  0.00  0.00    -0.295 N 
ATOM     12  H   UNL     1       0.760  -4.496   1.489  0.00  0.00    +0.151 HD
ENDBRANCH   1  11
BRANCH   1  13
ATOM     13  C   UNL     1       2.432  -6.340   1.885  0.00  0.00    -0.030 A 
ATOM     14  C   UNL     1       2.114  -6.865   3.124  0.00  0.00    +0.007 A 
ATOM     15  C   UNL     1       1.750  -8.192   3.241  0.00  0.00    +0.023 A 
ATOM     16  C   UNL     1       1.703  -9.000   2.111  0.00  0.00    +0.030 A 
ATOM     17  C   UNL     1       2.022  -8.469   0.868  0.00  0.00    +0.023 A 
ATOM     18  C   UNL     1       2.380  -7.139   0.758  0.00  0.00    +0.007 A 
BRANCH  16  19
ATOM     19  N   UNL     1       1.336 -10.342   2.225  0.00  0.00    -0.330 N 
ATOM     20  C   UNL     1       0.969 -11.027   3.474  0.00  0.00    +0.105 C 
ATOM     21  C   UNL     1       0.667 -12.498   3.118  0.00  0.00    +0.020 C 
ATOM     22  C   UNL     1       1.427 -12.695   1.780  0.00  0.00    +0.020 C 
ATOM     23  C   UNL     1       1.245 -11.306   1.113  0.00  0.00    +0.105 C 
ENDBRANCH  16  19
ENDBRANCH   1  13
TORSDOF 3
