REMARK  Name = ZINC08756758
REMARK  4 active torsions:
REMARK  status: ('A' for Active; 'I' for Inactive)
REMARK    1  A    between atoms: C_1  and  C_2
REMARK    2  A    between atoms: C_5  and  C_8
REMARK    3  A    between atoms: C_19  and  C_21
REMARK    4  A    between atoms: C_24  and  C_27
REMARK                            x       y       z     vdW  Elec       q    Type
REMARK                         _______ _______ _______ _____ _____    ______ ____
ROOT
ATOM      1  C   UNL     1       0.059  -4.247  -0.021  0.00  0.00    +0.013 C 
ATOM      2  C   UNL     1       0.175  -4.924   1.134  0.00  0.00    -0.026 C 
ATOM      3  C   UNL     1       0.168  -4.200   2.463  0.00  0.00    +0.037 C 
ATOM      4  C   UNL     1       1.243  -4.863   3.337  0.00  0.00    +0.009 C 
ATOM      5  C   UNL     1       0.862  -6.322   3.563  0.00  0.00    +0.035 C 
ATOM      6  C   UNL     1       0.635  -7.046   2.258  0.00  0.00    -0.024 C 
ATOM      7  C   UNL     1       0.307  -6.394   1.141  0.00  0.00    +0.037 C 
ATOM      8  N   UNL     1       0.083  -7.080  -0.058  0.00  0.00    -0.297 N 
ATOM      9  C   UNL     1       0.191  -8.415  -0.120  0.00  0.00    +0.135 C 
ATOM     10  S   UNL     1      -0.095  -9.212  -1.608  0.00  0.00    -0.019 S 
ATOM     11  N   UNL     1       0.518  -9.137   0.959  0.00  0.00    -0.316 N 
ATOM     12  C   UNL     1       0.787  -8.547   2.261  0.00  0.00    +0.130 C 
ATOM     13  H   UNL     1      -0.154  -6.582  -0.856  0.00  0.00    +0.154 HD
ATOM     14  H   UNL     1       0.587 -10.100   0.866  0.00  0.00    +0.149 HD
ENDROOT
BRANCH   1  19
ATOM     15  C   UNL     1      -1.115   1.382   0.049  0.00  0.00    +0.044 C 
ATOM     16  C   UNL     1      -0.807  -0.093   0.031  0.00  0.00    -0.050 A 
ATOM     17  C   UNL     1      -0.012  -0.618  -0.973  0.00  0.00    +0.004 A 
ATOM     18  C   UNL     1       0.274  -1.967  -0.996  0.00  0.00    +0.008 A 
ATOM     19  C   UNL     1      -0.241  -2.804  -0.003  0.00  0.00    -0.025 A 
ATOM     20  C   UNL     1      -1.044  -2.267   1.007  0.00  0.00    +0.008 A 
ATOM     21  C   UNL     1      -1.317  -0.915   1.021  0.00  0.00    +0.004 A 
ENDBRANCH   1  19
BRANCH  12  22
ATOM     22  C   UNL     1       2.189  -8.895   2.690  0.00  0.00    -0.023 A 
ATOM     23  C   UNL     1       3.229  -8.813   1.784  0.00  0.00    +0.006 A 
ATOM     24  C   UNL     1       4.516  -9.131   2.177  0.00  0.00    +0.004 A 
ATOM     25  C   UNL     1       4.762  -9.531   3.477  0.00  0.00    -0.050 A 
ATOM     26  C   UNL     1       3.721  -9.612   4.384  0.00  0.00    +0.004 A 
ATOM     27  C   UNL     1       2.436  -9.290   3.991  0.00  0.00    +0.006 A 
ATOM     28  C   UNL     1       6.164  -9.880   3.906  0.00  0.00    +0.044 C 
ENDBRANCH  12  22
TORSDOF 2
