REMARK  Name = ZINC36504751
REMARK  16 active torsions:
REMARK  status: ('A' for Active; 'I' for Inactive)
REMARK    1  A    between atoms: C_1  and  C_2
REMARK    2  A    between atoms: C_2  and  C_3
REMARK    3  A    between atoms: C_2  and  C_4
REMARK    4  A    between atoms: C_2  and  C_5
REMARK    5  A    between atoms: C_5  and  C_6
REMARK    6  A    between atoms: C_6  and  C_7
REMARK    7  A    between atoms: C_6  and  C_8
REMARK    8  A    between atoms: C_6  and  N_9
REMARK    9  A    between atoms: C_10  and  C_12
REMARK   10  A    between atoms: C_12  and  C_14
REMARK   11  A    between atoms: C_12  and  N_21
REMARK   12  A    between atoms: C_18  and  O_20
REMARK   13  A    between atoms: N_21  and  C_22
REMARK   14  A    between atoms: C_22  and  C_23
REMARK   15  A    between atoms: C_28  and  C_30
REMARK   16  A    between atoms: C_34  and  N_36
REMARK                            x       y       z     vdW  Elec       q    Type
REMARK                         _______ _______ _______ _____ _____    ______ ____
ROOT
ATOM      1  C   UNL     1       5.683  -1.224  -3.438  0.00  0.00    +0.193 C 
ENDROOT
BRANCH   1   2
ATOM      2  C   UNL     1       4.787  -0.706  -4.533  0.00  0.00    -0.015 A 
ATOM      3  C   UNL     1       4.601   0.656  -4.687  0.00  0.00    +0.006 A 
ATOM      4  C   UNL     1       3.779   1.135  -5.690  0.00  0.00    +0.004 A 
ATOM      5  C   UNL     1       3.140   0.254  -6.541  0.00  0.00    +0.045 A 
ATOM      6  C   UNL     1       3.325  -1.112  -6.389  0.00  0.00    +0.117 A 
ATOM      7  C   UNL     1       4.155  -1.591  -5.385  0.00  0.00    +0.051 A 
BRANCH   6   8
ATOM      8  O   UNL     1       2.697  -1.981  -7.224  0.00  0.00    -0.507 OA
ATOM      9  H   UNL     1       3.206  -2.201  -8.017  0.00  0.00    +0.292 HD
ENDBRANCH   6   8
ENDBRANCH   1   2
BRANCH   1  11
ATOM     10  N   UNL     1       3.833  -2.256  -2.161  0.00  0.00    -0.308 N 
ATOM     11  C   UNL     1       4.881  -1.408  -2.176  0.00  0.00    +0.239 C 
ATOM     12  O   UNL     1       5.178  -0.793  -1.174  0.00  0.00    -0.273 OA
ATOM     13  H   UNL     1       3.596  -2.748  -2.963  0.00  0.00    +0.149 HD
BRANCH  10  14
ATOM     14  C   UNL     1       3.053  -2.434  -0.934  0.00  0.00    +0.030 C 
ATOM     15  C   UNL     1       2.618  -1.067  -0.403  0.00  0.00    +0.031 C 
ATOM     16  C   UNL     1       3.911  -3.141   0.117  0.00  0.00    +0.031 C 
BRANCH  14  17
ATOM     17  C   UNL     1       1.815  -3.281  -1.236  0.00  0.00    +0.031 C 
BRANCH  17  19
ATOM     18  C   UNL     1       1.798  -3.010  -3.719  0.00  0.00    +0.010 C 
ATOM     19  C   UNL     1       1.060  -2.677  -2.421  0.00  0.00    -0.036 C 
ATOM     20  C   UNL     1       0.981  -1.158  -2.255  0.00  0.00    +0.010 C 
ATOM     21  C   UNL     1      -0.354  -3.259  -2.475  0.00  0.00    +0.010 C 
ENDBRANCH  17  19
ENDBRANCH  14  17
ENDBRANCH  10  14
ENDBRANCH   1  11
BRANCH   1  22
ATOM     22  N   UNL     1       6.763  -0.264  -3.196  0.00  0.00    -0.275 N 
ATOM     23  C   UNL     1       7.711  -0.065  -4.132  0.00  0.00    +0.248 C 
ATOM     24  O   UNL     1       8.618   0.716  -3.922  0.00  0.00    -0.270 OA
BRANCH  23  25
ATOM     25  C   UNL     1       7.647  -0.796  -5.416  0.00  0.00    +0.039 A 
ATOM     26  C   UNL     1       6.607  -1.694  -5.660  0.00  0.00    +0.013 A 
ATOM     27  C   UNL     1       6.553  -2.372  -6.860  0.00  0.00    +0.003 A 
ATOM     28  C   UNL     1       7.527  -2.164  -7.820  0.00  0.00    +0.033 A 
ATOM     29  C   UNL     1       8.562  -1.276  -7.584  0.00  0.00    +0.127 A 
ATOM     30  C   UNL     1       8.624  -0.587  -6.391  0.00  0.00    +0.045 A 
BRANCH  29  31
ATOM     31  N   UNL     1       9.600  -1.061  -8.617  0.00  0.00    +0.056 N 
ATOM     32  O   UNL     1       9.544  -1.661  -9.665  0.00  0.00    -0.126 OA
ATOM     33  O   UNL     1      10.504  -0.285  -8.412  0.00  0.00    -0.126 OA
ENDBRANCH  29  31
ENDBRANCH  23  25
BRANCH  22  34
ATOM     34  C   UNL     1       6.812   0.479  -1.934  0.00  0.00    +0.183 C 
BRANCH  34  35
ATOM     35  C   UNL     1       7.398  -0.397  -0.857  0.00  0.00    +0.122 A 
ATOM     36  C   UNL     1       8.689  -0.421  -0.479  0.00  0.00    +0.046 A 
ATOM     37  C   UNL     1       8.795  -1.381   0.554  0.00  0.00    +0.041 A 
ATOM     38  C   UNL     1       7.563  -1.886   0.745  0.00  0.00    +0.195 A 
ATOM     39  O   UNL     1       6.720  -1.282  -0.109  0.00  0.00    -0.466 OA
ENDBRANCH  34  35
ENDBRANCH  22  34
ENDBRANCH   1  22
TORSDOF 11
