REMARK  Name = ZINC09212132
REMARK  11 active torsions:
REMARK  status: ('A' for Active; 'I' for Inactive)
REMARK    1  A    between atoms: C_1  and  C_2
REMARK    2  A    between atoms: C_2  and  N_65
REMARK    3  A    between atoms: C_6  and  C_8
REMARK    4  A    between atoms: C_8  and  N_9
REMARK    5  A    between atoms: C_10  and  C_12
REMARK    6  A    between atoms: C_15  and  C_18
REMARK    7  A    between atoms: C_20  and  C_24
REMARK    8  A    between atoms: C_21  and  C_23
REMARK    9  A    between atoms: C_24  and  S_25
REMARK   10  A    between atoms: S_25  and  C_28
REMARK   11  A    between atoms: C_31  and  C_34
REMARK                            x       y       z     vdW  Elec       q    Type
REMARK                         _______ _______ _______ _____ _____    ______ ____
ROOT
ATOM      1  C   UNL     1      -3.439  -2.627   0.678  0.00  0.00    +0.037 A 
ATOM      2  C   UNL     1      -3.585  -1.239   0.746  0.00  0.00    +0.014 A 
ATOM      3  C   UNL     1      -2.491  -0.444   1.000  0.00  0.00    +0.014 A 
ATOM      4  C   UNL     1      -1.234  -1.024   1.190  0.00  0.00    +0.037 A 
ATOM      5  C   UNL     1      -1.087  -2.411   1.116  0.00  0.00    +0.014 A 
ATOM      6  C   UNL     1      -2.182  -3.207   0.868  0.00  0.00    +0.014 A 
ENDROOT
BRANCH   4   7
ATOM      7  C   UNL     1      -0.060  -0.170   1.462  0.00  0.00    +0.228 A 
ATOM      8  N   UNL     1       1.167  -0.594   1.657  0.00  0.00    -0.212 NA
ATOM      9  C   UNL     1       1.958   0.467   1.874  0.00  0.00    +0.104 A 
ATOM     10  C   UNL     1       1.191   1.573   1.810  0.00  0.00    +0.127 A 
ATOM     11  O   UNL     1      -0.068   1.171   1.552  0.00  0.00    -0.440 OA
ATOM     12  C   UNL     1       1.657   2.994   1.991  0.00  0.00    +0.088 C 
BRANCH   9  13
ATOM     13  C   UNL     1       3.440   0.429   2.142  0.00  0.00    +0.230 C 
BRANCH  13  14
ATOM     14  S   UNL     1       4.341   0.527   0.570  0.00  0.00    +0.003 S 
ATOM     15  O   UNL     1       4.130  -0.654  -0.190  0.00  0.00    -0.169 OA
ATOM     16  O   UNL     1       4.162   1.809  -0.017  0.00  0.00    -0.169 OA
BRANCH  14  17
ATOM     17  C   UNL     1       6.044   0.473   1.021  0.00  0.00    +0.089 A 
ATOM     18  C   UNL     1       6.729   1.647   1.276  0.00  0.00    +0.027 A 
ATOM     19  C   UNL     1       8.063   1.604   1.633  0.00  0.00    +0.005 A 
ATOM     20  C   UNL     1       8.716   0.389   1.726  0.00  0.00    -0.050 A 
ATOM     21  C   UNL     1       8.032  -0.784   1.467  0.00  0.00    +0.005 A 
ATOM     22  C   UNL     1       6.696  -0.742   1.113  0.00  0.00    +0.027 A 
ATOM     23  C   UNL     1      10.172   0.343   2.112  0.00  0.00    +0.044 C 
ENDBRANCH  14  17
ENDBRANCH  13  14
ENDBRANCH   9  13
ENDBRANCH   4   7
BRANCH   1  25
ATOM     24  N   UNL     1      -4.472  -4.819   0.340  0.00  0.00    -0.313 N 
ATOM     25  C   UNL     1      -4.613  -3.481   0.406  0.00  0.00    +0.244 C 
ATOM     26  O   UNL     1      -5.707  -2.976   0.241  0.00  0.00    -0.270 OA
ATOM     27  H   UNL     1      -3.599  -5.222   0.471  0.00  0.00    +0.149 HD
BRANCH  24  28
ATOM     28  C   UNL     1      -5.637  -5.666   0.070  0.00  0.00    +0.089 C 
BRANCH  28  32
ATOM     29  C   UNL     1      -4.594  -8.549  -1.894  0.00  0.00    -0.078 C 
ATOM     30  C   UNL     1      -6.133  -8.665  -1.751  0.00  0.00    -0.020 C 
ATOM     31  C   UNL     1      -6.402  -8.019  -0.372  0.00  0.00    -0.016 C 
ATOM     32  C   UNL     1      -5.183  -7.117  -0.106  0.00  0.00    -0.051 C 
ATOM     33  N   UNL     1      -4.319  -7.238  -1.280  0.00  0.00    +0.382 N 
ATOM     34  H   UNL     1      -4.537  -6.490  -1.950  0.00  0.00    -0.081 HD
BRANCH  33  36
ATOM     35  C   UNL     1      -1.989  -7.416  -2.094  0.00  0.00    -0.017 C 
ATOM     36  C   UNL     1      -2.881  -7.136  -0.883  0.00  0.00    -0.082 C 
ENDBRANCH  33  36
ENDBRANCH  28  32
ENDBRANCH  24  28
ENDBRANCH   1  25
TORSDOF 8
