REMARK  Name = ZINC39685110
REMARK  6 active torsions:
REMARK  status: ('A' for Active; 'I' for Inactive)
REMARK    1  A    between atoms: C_5  and  O_7
REMARK    2  A    between atoms: O_7  and  C_8
REMARK    3  A    between atoms: C_8  and  C_9
REMARK    4  A    between atoms: C_9  and  N_10
REMARK    5  A    between atoms: C_11  and  C_13
REMARK    6  A    between atoms: C_24  and  C_26
REMARK                            x       y       z     vdW  Elec       q    Type
REMARK                         _______ _______ _______ _____ _____    ______ ____
ROOT
ATOM      1  C   UNL     1       1.493  -6.541   2.213  0.00  0.00    +0.100 C 
ATOM      2  C   UNL     1       0.836  -6.005   3.505  0.00  0.00    +0.121 C 
ATOM      3  N   UNL     1       0.108  -7.168   4.064  0.00  0.00    -0.296 N 
ATOM      4  C   UNL     1       1.012  -8.319   3.826  0.00  0.00    +0.115 C 
ATOM      5  C   UNL     1       1.610  -8.059   2.429  0.00  0.00    -0.004 C 
ATOM      6  C   UNL     1       3.074  -8.486   2.393  0.00  0.00    -0.010 C 
ATOM      7  C   UNL     1       3.162 -10.007   2.552  0.00  0.00    -0.082 C 
ATOM      8  N   UNL     1       2.414 -10.657   1.469  0.00  0.00    +0.379 N 
ATOM      9  C   UNL     1       0.991 -10.314   1.566  0.00  0.00    -0.082 C 
ATOM     10  C   UNL     1       0.812  -8.807   1.366  0.00  0.00    -0.010 C 
ATOM     11  C   UNL     1      -1.103  -7.178   4.656  0.00  0.00    +0.248 C 
ATOM     12  O   UNL     1      -1.529  -8.203   5.152  0.00  0.00    -0.270 OA
ATOM     13  H   UNL     1       2.774 -10.345   0.579  0.00  0.00    -0.086 HD
ATOM     14  H   UNL     1       2.524 -11.658   1.540  0.00  0.00    -0.086 HD
ENDROOT
BRANCH  11  15
ATOM     15  C   UNL     1      -1.913  -5.943   4.701  0.00  0.00    +0.057 A 
ATOM     16  C   UNL     1      -1.292  -4.702   4.854  0.00  0.00    +0.014 A 
ATOM     17  C   UNL     1      -2.053  -3.553   4.895  0.00  0.00    +0.002 A 
ATOM     18  C   UNL     1      -3.431  -3.626   4.787  0.00  0.00    +0.021 A 
ATOM     19  C   UNL     1      -4.055  -4.852   4.636  0.00  0.00    +0.060 A 
ATOM     20  C   UNL     1      -3.304  -6.012   4.586  0.00  0.00    +0.071 A 
ATOM     21 CL   UNL     1      -4.086  -7.549   4.389  0.00  0.00    -0.081 Cl
ATOM     22 CL   UNL     1      -5.784  -4.934   4.502  0.00  0.00    -0.082 Cl
ENDBRANCH  11  15
BRANCH   1  24
ATOM     23  N   UNL     1       1.174  -6.105  -0.201  0.00  0.00    -0.312 N 
ATOM     24  C   UNL     1       0.621  -6.246   1.020  0.00  0.00    +0.218 C 
ATOM     25  O   UNL     1      -0.579  -6.136   1.158  0.00  0.00    -0.275 OA
ATOM     26  H   UNL     1       2.134  -6.192  -0.312  0.00  0.00    +0.149 HD
BRANCH  23  27
ATOM     27  C   UNL     1       0.326  -5.819  -1.361  0.00  0.00    +0.145 C 
BRANCH  27  28
ATOM     28  C   UNL     1       1.197  -5.707  -2.614  0.00  0.00    +0.248 C 
BRANCH  28  29
ATOM     29  O   UNL     1       1.800  -6.973  -2.890  0.00  0.00    -0.488 OA
BRANCH  29  34
ATOM     30  C   UNL     1       3.645  -6.001  -5.871  0.00  0.00    +0.004 A 
ATOM     31  C   UNL     1       4.261  -7.195  -6.195  0.00  0.00    +0.003 A 
ATOM     32  C   UNL     1       4.054  -8.317  -5.414  0.00  0.00    +0.042 A 
ATOM     33  C   UNL     1       3.229  -8.246  -4.305  0.00  0.00    +0.165 A 
ATOM     34  C   UNL     1       2.611  -7.046  -3.978  0.00  0.00    +0.156 A 
ATOM     35  C   UNL     1       2.821  -5.924  -4.765  0.00  0.00    +0.048 A 
ATOM     36  F   UNL     1       3.026  -9.342  -3.542  0.00  0.00    -0.202 F 
ENDBRANCH  29  34
ENDBRANCH  28  29
ENDBRANCH  27  28
ENDBRANCH  23  27
ENDBRANCH   1  24
TORSDOF 6
