REMARK  Name = ZINC63807430
REMARK  4 active torsions:
REMARK  status: ('A' for Active; 'I' for Inactive)
REMARK    1  A    between atoms: C_1  and  C_2
REMARK    2  A    between atoms: C_4  and  C_15
REMARK    3  A    between atoms: C_18  and  O_21
REMARK    4  A    between atoms: O_21  and  C_22
REMARK                            x       y       z     vdW  Elec       q    Type
REMARK                         _______ _______ _______ _____ _____    ______ ____
ROOT
ATOM      1  C   UNL     1      -5.336   1.957   1.190  0.00  0.00    +0.067 C 
ATOM      2  C   UNL     1      -5.323   0.557   1.749  0.00  0.00    +0.064 C 
ATOM      3  C   UNL     1      -4.409  -0.373   1.450  0.00  0.00    +0.014 C 
ATOM      4  C   UNL     1      -3.264  -0.237   0.518  0.00  0.00    +0.108 C 
ATOM      5  S   UNL     1      -3.475  -1.238  -0.969  0.00  0.00    -0.139 S 
ATOM      6  C   UNL     1      -3.387  -2.951  -0.417  0.00  0.00    +0.165 C 
ATOM      7  C   UNL     1      -4.511  -3.305   0.489  0.00  0.00    +0.225 C 
ATOM      8  O   UNL     1      -4.989  -4.389   0.231  0.00  0.00    -0.275 OA
ATOM      9  N   UNL     1      -5.094  -2.740   1.477  0.00  0.00    -0.288 N 
ATOM     10  C   UNL     1      -4.830  -1.571   2.263  0.00  0.00    +0.244 C 
ATOM     11  N   UNL     1      -6.040  -1.103   2.959  0.00  0.00    -0.160 NA
ATOM     12  N   UNL     1      -6.229   0.071   2.627  0.00  0.00    -0.157 NA
ATOM     13  H   UNL     1      -5.896  -3.207   1.758  0.00  0.00    +0.151 HD
ENDROOT
BRANCH   4  14
ATOM     14  C   UNL     1      -3.128   1.210   0.117  0.00  0.00    -0.030 A 
ATOM     15  C   UNL     1      -2.327   2.059   0.858  0.00  0.00    +0.008 A 
ATOM     16  C   UNL     1      -2.201   3.385   0.493  0.00  0.00    +0.046 A 
ATOM     17  C   UNL     1      -2.879   3.865  -0.618  0.00  0.00    +0.121 A 
ATOM     18  C   UNL     1      -3.681   3.011  -1.360  0.00  0.00    +0.046 A 
ATOM     19  C   UNL     1      -3.800   1.684  -0.994  0.00  0.00    +0.008 A 
BRANCH  17  20
ATOM     20  O   UNL     1      -2.757   5.169  -0.979  0.00  0.00    -0.489 OA
BRANCH  20  21
ATOM     21  C   UNL     1      -1.813   5.958  -0.252  0.00  0.00    +0.173 C 
ATOM     22  C   UNL     1      -2.479   6.551   1.007  0.00  0.00    +0.044 C 
ATOM     23  C   UNL     1      -1.859   7.965   1.135  0.00  0.00    +0.004 C 
ATOM     24  C   UNL     1      -1.754   8.427  -0.339  0.00  0.00    +0.004 C 
ATOM     25  C   UNL     1      -1.352   7.151  -1.108  0.00  0.00    +0.044 C 
ENDBRANCH  20  21
ENDBRANCH  17  20
ENDBRANCH   4  14
TORSDOF 3
