REMARK  Name = ZINC21758845
REMARK  9 active torsions:
REMARK  status: ('A' for Active; 'I' for Inactive)
REMARK    1  A    between atoms: C_1  and  S_2
REMARK    2  A    between atoms: S_2  and  N_5
REMARK    3  A    between atoms: N_5  and  C_6
REMARK    4  A    between atoms: C_6  and  C_7
REMARK    5  A    between atoms: C_7  and  C_8
REMARK    6  A    between atoms: C_11  and  C_13
REMARK    7  A    between atoms: N_15  and  C_16
REMARK    8  A    between atoms: N_15  and  C_26
REMARK    9  A    between atoms: C_16  and  C_17
REMARK                            x       y       z     vdW  Elec       q    Type
REMARK                         _______ _______ _______ _____ _____    ______ ____
ROOT
ATOM      1  C   UNL     1      -0.038   1.206   0.009  0.00  0.00    +0.254 C 
ATOM      2  O   UNL     1       0.959   1.891   0.140  0.00  0.00    -0.269 OA
ATOM      3  N   UNL     1      -1.259   1.765   0.118  0.00  0.00    -0.290 N 
ENDROOT
BRANCH   1   7
ATOM      4  C   UNL     1      -0.187  -2.846  -0.704  0.00  0.00    -0.008 A 
ATOM      5  C   UNL     1       1.065  -2.319  -0.728  0.00  0.00    +0.012 A 
ATOM      6  C   UNL     1       1.231  -0.974  -0.508  0.00  0.00    +0.021 A 
ATOM      7  C   UNL     1       0.089  -0.230  -0.260  0.00  0.00    +0.074 A 
ATOM      8  S   UNL     1      -1.188  -1.472  -0.363  0.00  0.00    -0.089 S 
BRANCH   4   9
ATOM      9  C   UNL     1      -0.605  -4.277  -0.922  0.00  0.00    +0.059 C 
BRANCH   9  10
ATOM     10  C   UNL     1      -0.613  -5.016   0.418  0.00  0.00    +0.110 C 
BRANCH  10  11
ATOM     11  N   UNL     1      -1.019  -6.407   0.206  0.00  0.00    -0.194 NA
ATOM     12  H   UNL     1      -1.637  -6.674  -0.664  0.00  0.00    +0.148 HD
BRANCH  11  14
ATOM     13  C   UNL     1      -1.820  -7.005   2.771  0.00  0.00    +0.214 C 
ATOM     14  S   UNL     1      -0.765  -7.534   1.393  0.00  0.00    +0.027 S 
ATOM     15  O   UNL     1      -1.249  -8.753   0.846  0.00  0.00    -0.158 OA
ATOM     16  O   UNL     1       0.605  -7.390   1.742  0.00  0.00    -0.158 OA
ENDBRANCH  11  14
ENDBRANCH  10  11
ENDBRANCH   9  10
ENDBRANCH   4   9
ENDBRANCH   1   7
BRANCH   3  17
ATOM     17  C   UNL     1      -1.389   3.217   0.264  0.00  0.00    +0.077 C 
ATOM     18  C   UNL     1      -0.613   3.933  -0.862  0.00  0.00    +0.022 C 
ATOM     19  C   UNL     1      -0.013   5.184  -0.173  0.00  0.00    +0.002 C 
ATOM     20  C   UNL     1       0.380   4.649   1.226  0.00  0.00    +0.002 C 
ATOM     21  C   UNL     1      -0.757   3.672   1.591  0.00  0.00    +0.022 C 
ENDBRANCH   3  17
BRANCH   3  22
ATOM     22  C   UNL     1      -2.457   0.922   0.090  0.00  0.00    +0.143 C 
BRANCH  22  23
ATOM     23  C   UNL     1      -2.875   0.596   1.500  0.00  0.00    -0.026 A 
ATOM     24  C   UNL     1      -3.850   1.353   2.123  0.00  0.00    +0.009 A 
ATOM     25  C   UNL     1      -4.237   1.058   3.417  0.00  0.00    +0.050 A 
ATOM     26  C   UNL     1      -3.647   0.003   4.094  0.00  0.00    +0.166 A 
ATOM     27  C   UNL     1      -2.665  -0.759   3.467  0.00  0.00    +0.167 A 
ATOM     28  C   UNL     1      -2.286  -0.462   2.167  0.00  0.00    +0.054 A 
ATOM     29  O   UNL     1      -2.246  -1.728   4.332  0.00  0.00    -0.453 OA
ATOM     30  C   UNL     1      -3.267  -1.808   5.344  0.00  0.00    +0.466 C 
ATOM     31  O   UNL     1      -3.844  -0.488   5.352  0.00  0.00    -0.453 OA
ENDBRANCH  22  23
ENDBRANCH   3  22
TORSDOF 8
