REMARK  Name = ZINC26065184
REMARK  7 active torsions:
REMARK  status: ('A' for Active; 'I' for Inactive)
REMARK    1  A    between atoms: C_3  and  C_6
REMARK    2  A    between atoms: C_8  and  C_11
REMARK    3  A    between atoms: C_11  and  N_12
REMARK    4  A    between atoms: C_13  and  C_15
REMARK    5  A    between atoms: C_15  and  C_16
REMARK    6  A    between atoms: C_16  and  N_17
REMARK    7  A    between atoms: N_20  and  C_21
REMARK                            x       y       z     vdW  Elec       q    Type
REMARK                         _______ _______ _______ _____ _____    ______ ____
ROOT
ATOM      1  C   UNL     1      -0.281   1.264  -4.889  0.00  0.00    +0.115 C 
ENDROOT
BRANCH   1   2
ATOM      2  N   UNL     1      -0.989   1.750  -6.076  0.00  0.00    -0.299 N 
ATOM      3  C   UNL     1      -0.536   1.437  -7.306  0.00  0.00    +0.300 C 
ATOM      4  O   UNL     1       0.461   0.752  -7.431  0.00  0.00    -0.253 OA
ATOM      5  N   UNL     1      -1.188   1.883  -8.398  0.00  0.00    -0.294 N 
ATOM      6  H   UNL     1      -1.891   2.369  -5.963  0.00  0.00    +0.150 HD
ATOM      7  H   UNL     1      -2.090   2.503  -8.285  0.00  0.00    +0.151 HD
BRANCH   5   8
ATOM      8  C   UNL     1      -0.696   1.543  -9.735  0.00  0.00    +0.037 C 
ATOM      9  C   UNL     1       0.726   2.082  -9.907  0.00  0.00    +0.029 C 
ATOM     10  C   UNL     1       1.240   1.727 -11.303  0.00  0.00    -0.008 C 
ATOM     11  C   UNL     1       0.326   2.354 -12.358  0.00  0.00    +0.007 C 
ATOM     12  C   UNL     1      -1.095   1.815 -12.186  0.00  0.00    -0.008 C 
ATOM     13  C   UNL     1      -1.610   2.170 -10.790  0.00  0.00    +0.029 C 
ATOM     14  C   UNL     1      -1.088   0.294 -12.356  0.00  0.00    +0.007 C 
ATOM     15  C   UNL     1      -0.174  -0.332 -11.301  0.00  0.00    -0.008 C 
ATOM     16  C   UNL     1       1.247   0.207 -11.473  0.00  0.00    +0.007 C 
ATOM     17  C   UNL     1      -0.689   0.023  -9.905  0.00  0.00    +0.029 C 
ENDBRANCH   5   8
ENDBRANCH   1   2
BRANCH   1  18
ATOM     18  C   UNL     1      -0.997   1.758  -3.630  0.00  0.00    +0.114 C 
BRANCH  18  20
ATOM     19  N   UNL     1      -0.721   1.571  -1.179  0.00  0.00    -0.310 N 
ATOM     20  C   UNL     1      -0.268   1.258  -2.409  0.00  0.00    +0.215 C 
ATOM     21  O   UNL     1       0.726   0.575  -2.534  0.00  0.00    -0.276 OA
ATOM     22  H   UNL     1      -1.623   2.191  -1.066  0.00  0.00    +0.149 HD
BRANCH  19  23
ATOM     23  C   UNL     1      -0.013   1.086   0.008  0.00  0.00    +0.163 C 
BRANCH  23  26
ATOM     24  C   UNL     1      -1.327   2.827   2.895  0.00  0.00    +0.234 A 
ATOM     25  N   UNL     1      -0.540   2.762   1.843  0.00  0.00    -0.212 NA
ATOM     26  C   UNL     1      -0.718   1.572   1.248  0.00  0.00    +0.097 A 
ATOM     27  C   UNL     1      -1.641   0.892   1.951  0.00  0.00    +0.222 A 
ATOM     28  O   UNL     1      -2.017   1.676   2.983  0.00  0.00    -0.443 OA
BRANCH  24  31
ATOM     29  C   UNL     1      -2.156   5.281   5.652  0.00  0.00    +0.008 A 
ATOM     30  C   UNL     1      -2.236   4.110   4.935  0.00  0.00    +0.021 A 
ATOM     31  C   UNL     1      -1.434   3.966   3.818  0.00  0.00    +0.074 A 
ATOM     32  S   UNL     1      -0.568   5.527   3.786  0.00  0.00    -0.092 S 
ATOM     33  C   UNL     1      -1.306   6.257   5.237  0.00  0.00    +0.046 A 
ENDBRANCH  24  31
ENDBRANCH  23  26
ENDBRANCH  19  23
ENDBRANCH  18  20
ENDBRANCH   1  18
TORSDOF 7
