REMARK  Name = ZINC09472974
REMARK  12 active torsions:
REMARK  status: ('A' for Active; 'I' for Inactive)
REMARK    1  A    between atoms: N_9  and  C_25
REMARK    2  A    between atoms: C_10  and  S_12
REMARK    3  A    between atoms: S_12  and  C_13
REMARK    4  A    between atoms: C_13  and  C_14
REMARK    5  A    between atoms: N_16  and  C_17
REMARK    6  A    between atoms: C_17  and  C_18
REMARK    7  A    between atoms: C_18  and  C_19
REMARK    8  A    between atoms: C_25  and  C_26
REMARK    9  A    between atoms: C_26  and  C_27
REMARK   10  A    between atoms: C_27  and  C_28
REMARK   11  A    between atoms: N_30  and  C_31
REMARK   12  A    between atoms: C_31  and  C_32
REMARK                            x       y       z     vdW  Elec       q    Type
REMARK                         _______ _______ _______ _____ _____    ______ ____
ROOT
ATOM      1  C   UNL     1      -6.828  -4.045  -2.113  0.00  0.00    +0.001 A 
ATOM      2  C   UNL     1      -7.388  -4.264  -0.861  0.00  0.00    +0.002 A 
ATOM      3  C   UNL     1      -6.681  -4.012   0.280  0.00  0.00    +0.028 A 
ATOM      4  C   UNL     1      -5.372  -3.527   0.190  0.00  0.00    +0.079 A 
ATOM      5  C   UNL     1      -4.805  -3.306  -1.086  0.00  0.00    +0.065 A 
ATOM      6  C   UNL     1      -5.551  -3.572  -2.234  0.00  0.00    +0.015 A 
ATOM      7  C   UNL     1      -3.429  -2.797  -1.155  0.00  0.00    +0.262 A 
ATOM      8  O   UNL     1      -2.886  -2.586  -2.224  0.00  0.00    -0.267 OA
ATOM      9  N   UNL     1      -2.787  -2.571   0.015  0.00  0.00    -0.287 N 
ATOM     10  C   UNL     1      -3.410  -2.817   1.205  0.00  0.00    +0.173 A 
ATOM     11  N   UNL     1      -4.638  -3.266   1.290  0.00  0.00    -0.223 NA
ENDROOT
BRANCH  10  12
ATOM     12  S   UNL     1      -2.523  -2.510   2.696  0.00  0.00    -0.078 S 
BRANCH  12  13
ATOM     13  C   UNL     1      -3.776  -2.990   3.911  0.00  0.00    +0.173 C 
BRANCH  13  14
ATOM     14  C   UNL     1      -3.224  -2.805   5.301  0.00  0.00    +0.223 C 
ATOM     15  O   UNL     1      -2.095  -2.390   5.456  0.00  0.00    -0.275 OA
ATOM     16  N   UNL     1      -3.986  -3.101   6.373  0.00  0.00    -0.314 N 
ATOM     17  H   UNL     1      -4.889  -3.433   6.250  0.00  0.00    +0.149 HD
BRANCH  16  18
ATOM     18  C   UNL     1      -3.450  -2.922   7.725  0.00  0.00    +0.108 C 
BRANCH  18  19
ATOM     19  C   UNL     1      -4.509  -3.327   8.752  0.00  0.00    +0.049 C 
BRANCH  19  20
ATOM     20  C   UNL     1      -3.957  -3.143  10.142  0.00  0.00    -0.072 C 
ATOM     21  C   UNL     1      -4.215  -2.032  10.755  0.00  0.00    -0.028 C 
ATOM     22  C   UNL     1      -3.728  -1.701  12.135  0.00  0.00    +0.027 C 
ATOM     23  C   UNL     1      -3.275  -2.973  12.854  0.00  0.00    +0.004 C 
ATOM     24  C   UNL     1      -2.332  -3.747  11.923  0.00  0.00    +0.005 C 
ATOM     25  C   UNL     1      -3.147  -4.260  10.732  0.00  0.00    +0.030 C 
ENDBRANCH  19  20
ENDBRANCH  18  19
ENDBRANCH  16  18
ENDBRANCH  13  14
ENDBRANCH  12  13
ENDBRANCH  10  12
BRANCH   9  26
ATOM     26  C   UNL     1      -1.413  -2.063   0.004  0.00  0.00    +0.128 C 
BRANCH  26  27
ATOM     27  C   UNL     1      -1.433  -0.534   0.013  0.00  0.00    +0.031 C 
BRANCH  27  28
ATOM     28  C   UNL     1       0.002  -0.004   0.002  0.00  0.00    +0.097 C 
BRANCH  28  29
ATOM     29  C   UNL     1      -0.018   1.503   0.010  0.00  0.00    +0.213 C 
ATOM     30  O   UNL     1      -1.077   2.095   0.018  0.00  0.00    -0.276 OA
ATOM     31  N   UNL     1       1.139   2.192   0.003  0.00  0.00    -0.308 N 
ATOM     32  H   UNL     1       1.986   1.719  -0.008  0.00  0.00    +0.149 HD
BRANCH  31  33
ATOM     33  C   UNL     1       1.120   3.657   0.011  0.00  0.00    +0.178 C 
BRANCH  33  34
ATOM     34  C   UNL     1       2.534   4.179   0.000  0.00  0.00    +0.122 A 
ATOM     35  C   UNL     1       3.261   4.457  -1.096  0.00  0.00    +0.046 A 
ATOM     36  C   UNL     1       4.520   4.917  -0.647  0.00  0.00    +0.041 A 
ATOM     37  C   UNL     1       4.486   4.893   0.698  0.00  0.00    +0.195 A 
ATOM     38  O   UNL     1       3.279   4.450   1.084  0.00  0.00    -0.466 OA
ENDBRANCH  33  34
ENDBRANCH  31  33
ENDBRANCH  28  29
ENDBRANCH  27  28
ENDBRANCH  26  27
ENDBRANCH   9  26
TORSDOF 12
