REMARK  Name = ZINC06831909
REMARK  6 active torsions:
REMARK  status: ('A' for Active; 'I' for Inactive)
REMARK    1  A    between atoms: C_1  and  C_2
REMARK    2  A    between atoms: C_7  and  N_8
REMARK    3  A    between atoms: C_14  and  C_16
REMARK    4  A    between atoms: C_19  and  N_25
REMARK    5  A    between atoms: C_20  and  N_22
REMARK    6  A    between atoms: N_25  and  C_26
REMARK                            x       y       z     vdW  Elec       q    Type
REMARK                         _______ _______ _______ _____ _____    ______ ____
ROOT
ATOM      1  N   UNL     1      -2.300   4.119   0.060  0.00  0.00    -0.226 NA
ATOM      2  C   UNL     1      -3.388   3.385   0.068  0.00  0.00    +0.164 C 
ATOM      3  N   UNL     1      -4.687   3.825   0.008  0.00  0.00    -0.246 N 
ATOM      4  C   UNL     1      -5.774   2.874   0.027  0.00  0.00    +0.127 C 
ATOM      5  C   UNL     1      -5.310   1.407   0.116  0.00  0.00    +0.096 C 
ATOM      6  S   UNL     1      -3.489   1.609   0.149  0.00  0.00    -0.088 S 
ATOM      7  C   UNL     1      -4.949   5.145  -0.068  0.00  0.00    +0.252 C 
ATOM      8  O   UNL     1      -4.046   5.951   0.049  0.00  0.00    -0.270 OA
ENDROOT
BRANCH   1  15
ATOM      9  C   UNL     1      -0.331   4.843  -1.857  0.00  0.00    +0.046 C 
ATOM     10  C   UNL     1      -0.066   3.841  -0.762  0.00  0.00    -0.025 A 
ATOM     11  C   UNL     1       1.170   3.237  -0.662  0.00  0.00    +0.005 A 
ATOM     12  C   UNL     1       1.415   2.317   0.343  0.00  0.00    +0.000 A 
ATOM     13  C   UNL     1       0.423   1.998   1.253  0.00  0.00    +0.002 A 
ATOM     14  C   UNL     1      -0.819   2.590   1.161  0.00  0.00    +0.028 A 
ATOM     15  C   UNL     1      -1.071   3.523   0.153  0.00  0.00    +0.069 A 
ENDBRANCH   1  15
BRANCH   7  16
ATOM     16  C   UNL     1      -6.329   5.611  -0.292  0.00  0.00    +0.040 A 
ATOM     17  C   UNL     1      -7.394   4.706  -0.228  0.00  0.00    +0.015 A 
ATOM     18  C   UNL     1      -8.681   5.146  -0.433  0.00  0.00    +0.026 A 
ATOM     19  C   UNL     1      -8.924   6.488  -0.714  0.00  0.00    +0.058 A 
ATOM     20  C   UNL     1      -7.866   7.390  -0.783  0.00  0.00    +0.148 A 
ATOM     21  C   UNL     1      -6.577   6.958  -0.574  0.00  0.00    +0.047 A 
BRANCH  20  22
ATOM     22  N   UNL     1      -8.129   8.816  -1.082  0.00  0.00    +0.058 N 
ATOM     23  O   UNL     1      -7.199   9.583  -1.258  0.00  0.00    -0.126 OA
ATOM     24  O   UNL     1      -9.275   9.222  -1.153  0.00  0.00    -0.126 OA
ENDBRANCH  20  22
BRANCH  19  25
ATOM     25  N   UNL     1     -10.226   6.928  -0.926  0.00  0.00    -0.345 N 
ATOM     26  C   UNL     1     -11.352   6.017  -0.705  0.00  0.00    +0.125 C 
ATOM     27  H   UNL     1     -10.389   7.838  -1.220  0.00  0.00    +0.146 HD
ENDBRANCH  19  25
ENDBRANCH   7  16
TORSDOF 4
