REMARK  Name = ZINC11151997
REMARK  10 active torsions:
REMARK  status: ('A' for Active; 'I' for Inactive)
REMARK    1  A    between atoms: C_1  and  C_2
REMARK    2  A    between atoms: C_2  and  O_3
REMARK    3  A    between atoms: O_3  and  C_4
REMARK    4  A    between atoms: C_4  and  C_6
REMARK    5  A    between atoms: C_7  and  C_21
REMARK    6  A    between atoms: C_12  and  C_14
REMARK    7  A    between atoms: C_21  and  O_22
REMARK    8  A    between atoms: O_22  and  C_23
REMARK    9  A    between atoms: C_23  and  C_25
REMARK   10  A    between atoms: C_25  and  N_26
REMARK                            x       y       z     vdW  Elec       q    Type
REMARK                         _______ _______ _______ _____ _____    ______ ____
ROOT
ATOM      1  C   UNL     1      -1.259   1.893   0.131  0.00  0.00    +0.081 C 
ATOM      2  C   UNL     1      -2.421   1.240  -0.086  0.00  0.00    +0.061 C 
ATOM      3  N   UNL     1      -3.602   1.917  -0.185  0.00  0.00    -0.269 N 
ATOM      4  C   UNL     1      -3.705   3.249  -0.089  0.00  0.00    +0.304 C 
ATOM      5  O   UNL     1      -4.802   3.763  -0.196  0.00  0.00    -0.252 OA
ATOM      6  N   UNL     1      -2.633   4.038   0.121  0.00  0.00    -0.288 N 
ATOM      7  C   UNL     1      -1.310   3.403   0.248  0.00  0.00    +0.144 C 
ATOM      8  H   UNL     1      -4.412   1.405  -0.337  0.00  0.00    +0.156 HD
ATOM      9  H   UNL     1      -2.730   5.001   0.187  0.00  0.00    +0.151 HD
ENDROOT
BRANCH   7  10
ATOM     10  C   UNL     1      -0.740   3.785   1.590  0.00  0.00    -0.022 A 
ATOM     11  C   UNL     1      -1.523   3.691   2.725  0.00  0.00    +0.007 A 
ATOM     12  C   UNL     1      -0.999   4.035   3.957  0.00  0.00    +0.020 A 
ATOM     13  C   UNL     1       0.306   4.485   4.052  0.00  0.00    +0.041 A 
ATOM     14  C   UNL     1       1.087   4.584   2.914  0.00  0.00    +0.020 A 
ATOM     15  C   UNL     1       0.564   4.234   1.684  0.00  0.00    +0.007 A 
ATOM     16 CL   UNL     1       0.963   4.925   5.598  0.00  0.00    -0.084 Cl
ENDBRANCH   7  10
BRANCH   1  17
ATOM     17  C   UNL     1      -0.035   1.193   0.239  0.00  0.00    +0.339 C 
ATOM     18  O   UNL     1       0.733   1.160  -0.704  0.00  0.00    -0.245 OA
BRANCH  17  19
ATOM     19  O   UNL     1       0.283   0.565   1.391  0.00  0.00    -0.462 OA
BRANCH  19  21
ATOM     20  C   UNL     1       1.722  -0.764   2.807  0.00  0.00    +0.048 C 
ATOM     21  C   UNL     1       1.538  -0.118   1.432  0.00  0.00    +0.229 C 
ENDBRANCH  19  21
ENDBRANCH  17  19
ENDBRANCH   1  17
BRANCH   2  22
ATOM     22  C   UNL     1      -2.414  -0.262  -0.215  0.00  0.00    +0.283 C 
BRANCH  22  23
ATOM     23  O   UNL     1      -3.143  -0.846   0.896  0.00  0.00    -0.457 OA
BRANCH  23  24
ATOM     24  C   UNL     1      -3.231  -2.185   0.930  0.00  0.00    +0.326 C 
ATOM     25  O   UNL     1      -2.716  -2.847   0.060  0.00  0.00    -0.249 OA
BRANCH  24  26
ATOM     26  C   UNL     1      -3.973  -2.863   2.053  0.00  0.00    +0.237 C 
BRANCH  26  27
ATOM     27  N   UNL     1      -3.925  -4.315   1.863  0.00  0.00    -0.223 N 
ATOM     28  C   UNL     1      -4.841  -5.024   1.179  0.00  0.00    +0.254 C 
ATOM     29  O   UNL     1      -5.823  -4.568   0.629  0.00  0.00    -0.270 OA
ATOM     30  C   UNL     1      -4.449  -6.449   1.205  0.00  0.00    +0.049 A 
ATOM     31  C   UNL     1      -4.992  -7.611   0.682  0.00  0.00    +0.014 A 
ATOM     32  C   UNL     1      -4.359  -8.825   0.901  0.00  0.00    +0.001 A 
ATOM     33  C   UNL     1      -3.191  -8.883   1.637  0.00  0.00    +0.001 A 
ATOM     34  C   UNL     1      -2.636  -7.728   2.167  0.00  0.00    +0.014 A 
ATOM     35  C   UNL     1      -3.258  -6.508   1.956  0.00  0.00    +0.049 A 
ATOM     36  C   UNL     1      -2.962  -5.116   2.356  0.00  0.00    +0.254 C 
ATOM     37  O   UNL     1      -2.010  -4.755   3.017  0.00  0.00    -0.270 OA
ENDBRANCH  26  27
ENDBRANCH  24  26
ENDBRANCH  23  24
ENDBRANCH  22  23
ENDBRANCH   2  22
TORSDOF 9
