REMARK  Name = ZINC42474046
REMARK  12 active torsions:
REMARK  status: ('A' for Active; 'I' for Inactive)
REMARK    1  A    between atoms: C_1  and  C_2
REMARK    2  A    between atoms: C_6  and  C_7
REMARK    3  A    between atoms: C_7  and  N_8
REMARK    4  A    between atoms: N_8  and  C_9
REMARK    5  A    between atoms: N_8  and  C_10
REMARK    6  A    between atoms: C_10  and  C_12
REMARK    7  A    between atoms: C_10  and  C_13
REMARK    8  A    between atoms: N_15  and  C_16
REMARK    9  A    between atoms: C_16  and  C_18
REMARK   10  A    between atoms: C_16  and  C_19
REMARK   11  A    between atoms: C_22  and  S_25
REMARK   12  A    between atoms: S_25  and  N_28
REMARK                            x       y       z     vdW  Elec       q    Type
REMARK                         _______ _______ _______ _____ _____    ______ ____
ROOT
ATOM      1  C   UNL     1      -0.763   1.868   4.455  0.00  0.00    +0.200 C 
ATOM      2  O   UNL     1      -0.475   2.421   3.415  0.00  0.00    -0.278 OA
ATOM      3  N   UNL     1      -0.563   2.496   5.630  0.00  0.00    -0.310 N 
ATOM      4  H   UNL     1      -0.794   2.054   6.462  0.00  0.00    +0.149 HD
ENDROOT
BRANCH   1   5
ATOM      5  C   UNL     1      -1.346   0.478   4.433  0.00  0.00    +0.016 C 
ATOM      6  C   UNL     1      -2.873   0.566   4.400  0.00  0.00    -0.004 C 
BRANCH   5   7
ATOM      7  N   UNL     1      -0.870  -0.233   3.239  0.00  0.00    +0.388 N 
ATOM      8  C   UNL     1      -1.518  -1.549   3.163  0.00  0.00    -0.095 C 
ATOM      9  H   UNL     1      -1.098   0.302   2.415  0.00  0.00    -0.081 HD
BRANCH   7  10
ATOM     10  C   UNL     1       0.586  -0.409   3.322  0.00  0.00    -0.035 C 
BRANCH  10  16
ATOM     11  C   UNL     1       1.525   1.097   0.814  0.00  0.00    +0.044 C 
ATOM     12  C   UNL     1       1.517  -0.407   0.910  0.00  0.00    -0.042 A 
ATOM     13  C   UNL     1       1.947  -1.180  -0.151  0.00  0.00    +0.011 A 
ATOM     14  C   UNL     1       1.927  -2.530  -0.033  0.00  0.00    +0.045 A 
ATOM     15  S   UNL     1       1.284  -2.746   1.619  0.00  0.00    -0.103 S 
ATOM     16  C   UNL     1       1.091  -1.022   2.041  0.00  0.00    -0.024 A 
ENDBRANCH  10  16
ENDBRANCH   7  10
ENDBRANCH   5   7
ENDBRANCH   1   5
BRANCH   3  17
ATOM     17  C   UNL     1       0.003   3.847   5.652  0.00  0.00    +0.100 C 
ATOM     18  C   UNL     1      -1.116   4.873   5.462  0.00  0.00    +0.033 C 
BRANCH  17  19
ATOM     19  C   UNL     1       0.684   4.086   6.975  0.00  0.00    -0.027 A 
ATOM     20  C   UNL     1       0.110   3.616   8.142  0.00  0.00    +0.007 A 
ATOM     21  C   UNL     1       0.735   3.835   9.355  0.00  0.00    +0.029 A 
ATOM     22  C   UNL     1       1.933   4.523   9.402  0.00  0.00    +0.105 A 
ATOM     23  C   UNL     1       2.507   4.992   8.235  0.00  0.00    +0.029 A 
ATOM     24  C   UNL     1       1.885   4.769   7.021  0.00  0.00    +0.007 A 
BRANCH  22  25
ATOM     25  S   UNL     1       2.728   4.803  10.950  0.00  0.00    +0.056 S 
ATOM     26  O   UNL     1       3.559   5.943  10.779  0.00  0.00    -0.153 OA
ATOM     27  O   UNL     1       1.715   4.740  11.944  0.00  0.00    -0.153 OA
BRANCH  25  28
ATOM     28  N   UNL     1       3.737   3.518  11.221  0.00  0.00    -0.204 NA
ATOM     29  H   UNL     1       4.550   3.641  11.736  0.00  0.00    +0.144 HD
ATOM     30  H   UNL     1       3.515   2.644  10.865  0.00  0.00    +0.144 HD
ENDBRANCH  25  28
ENDBRANCH  22  25
ENDBRANCH  17  19
ENDBRANCH   3  17
TORSDOF 8
