REMARK  Name = ZINC21045747
REMARK  12 active torsions:
REMARK  status: ('A' for Active; 'I' for Inactive)
REMARK    1  A    between atoms: C_1  and  C_2
REMARK    2  A    between atoms: C_2  and  C_3
REMARK    3  A    between atoms: C_4  and  C_34
REMARK    4  A    between atoms: N_10  and  C_19
REMARK    5  A    between atoms: C_11  and  C_13
REMARK    6  A    between atoms: C_19  and  C_20
REMARK    7  A    between atoms: N_22  and  C_23
REMARK    8  A    between atoms: C_23  and  C_24
REMARK    9  A    between atoms: C_27  and  O_30
REMARK   10  A    between atoms: O_30  and  C_31
REMARK   11  A    between atoms: C_31  and  C_32
REMARK   12  A    between atoms: C_31  and  C_33
REMARK                            x       y       z     vdW  Elec       q    Type
REMARK                         _______ _______ _______ _____ _____    ______ ____
ROOT
ATOM      1  C   UNL     1      -1.348   3.268   1.339  0.00  0.00    -0.034 A 
ATOM      2  C   UNL     1      -1.295   2.026   0.803  0.00  0.00    -0.010 A 
ATOM      3  S   UNL     1      -2.190   1.063   2.014  0.00  0.00    -0.099 S 
ATOM      4  C   UNL     1      -2.571   2.383   3.132  0.00  0.00    -0.016 A 
ATOM      5  C   UNL     1      -2.011   3.478   2.545  0.00  0.00    -0.037 A 
ATOM      6  C   UNL     1      -2.134   4.838   3.225  0.00  0.00    +0.018 C 
ATOM      7  C   UNL     1      -3.268   4.759   4.251  0.00  0.00    -0.072 C 
ATOM      8  N   UNL     1      -3.070   3.607   5.141  0.00  0.00    +0.393 N 
ATOM      9  C   UNL     1      -3.323   2.344   4.422  0.00  0.00    +0.001 C 
ATOM     10  C   UNL     1      -0.644   1.571  -0.478  0.00  0.00    +0.052 C 
ATOM     11  H   UNL     1      -2.022   3.613   5.476  0.00  0.00    -0.080 HD
ENDROOT
BRANCH   9  12
ATOM     12  C   UNL     1      -2.847   1.181   5.253  0.00  0.00    -0.056 A 
ATOM     13  C   UNL     1      -1.674   1.284   5.978  0.00  0.00    +0.002 A 
ATOM     14  C   UNL     1      -1.239   0.218   6.744  0.00  0.00    +0.000 A 
ATOM     15  C   UNL     1      -1.972  -0.953   6.778  0.00  0.00    +0.000 A 
ATOM     16  C   UNL     1      -3.143  -1.058   6.050  0.00  0.00    +0.000 A 
ATOM     17  C   UNL     1      -3.580   0.009   5.287  0.00  0.00    +0.002 A 
ENDBRANCH   9  12
BRANCH   1  19
ATOM     18  C   UNL     1      -1.700   5.071  -0.327  0.00  0.00    +0.009 C 
ATOM     19  C   UNL     1      -0.694   4.424   0.627  0.00  0.00    +0.033 C 
ENDBRANCH   1  19
BRANCH   8  20
ATOM     20  C   UNL     1      -3.918   3.713   6.335  0.00  0.00    +0.020 C 
BRANCH  20  21
ATOM     21  C   UNL     1      -3.466   4.882   7.172  0.00  0.00    +0.197 C 
ATOM     22  O   UNL     1      -2.529   5.561   6.808  0.00  0.00    -0.278 OA
ATOM     23  N   UNL     1      -4.102   5.173   8.323  0.00  0.00    -0.313 N 
ATOM     24  H   UNL     1      -4.952   4.558   8.653  0.00  0.00    +0.149 HD
BRANCH  23  25
ATOM     25  C   UNL     1      -3.662   6.310   9.136  0.00  0.00    +0.139 C 
BRANCH  25  26
ATOM     26  C   UNL     1      -4.533   6.418  10.361  0.00  0.00    -0.030 A 
ATOM     27  C   UNL     1      -5.680   7.190  10.328  0.00  0.00    +0.009 A 
ATOM     28  C   UNL     1      -6.482   7.286  11.448  0.00  0.00    +0.046 A 
ATOM     29  C   UNL     1      -6.131   6.617  12.611  0.00  0.00    +0.121 A 
ATOM     30  C   UNL     1      -4.977   5.848  12.644  0.00  0.00    +0.046 A 
ATOM     31  C   UNL     1      -4.181   5.750  11.520  0.00  0.00    +0.009 A 
BRANCH  29  32
ATOM     32  O   UNL     1      -6.916   6.714  13.716  0.00  0.00    -0.489 OA
BRANCH  32  33
ATOM     33  C   UNL     1      -6.433   6.097  14.911  0.00  0.00    +0.167 C 
ATOM     34  C   UNL     1      -7.054   6.787  16.128  0.00  0.00    +0.051 C 
ATOM     35  C   UNL     1      -6.818   4.617  14.913  0.00  0.00    +0.051 C 
ENDBRANCH  32  33
ENDBRANCH  29  32
ENDBRANCH  25  26
ENDBRANCH  23  25
ENDBRANCH  20  21
ENDBRANCH   8  20
TORSDOF 8
