REMARK  Name = ZINC12250461
REMARK  12 active torsions:
REMARK  status: ('A' for Active; 'I' for Inactive)
REMARK    1  A    between atoms: C_1  and  C_2
REMARK    2  A    between atoms: C_6  and  N_8
REMARK    3  A    between atoms: C_9  and  C_11
REMARK    4  A    between atoms: C_12  and  C_38
REMARK    5  A    between atoms: C_14  and  S_25
REMARK    6  A    between atoms: C_15  and  C_23
REMARK    7  A    between atoms: C_16  and  C_18
REMARK    8  A    between atoms: S_25  and  C_26
REMARK    9  A    between atoms: C_26  and  C_27
REMARK   10  A    between atoms: N_29  and  C_30
REMARK   11  A    between atoms: C_34  and  C_37
REMARK   12  A    between atoms: C_35  and  C_36
REMARK                            x       y       z     vdW  Elec       q    Type
REMARK                         _______ _______ _______ _____ _____    ______ ____
ROOT
ATOM      1  C   UNL     1      -1.526   3.890  -0.067  0.00  0.00    +0.047 C 
ATOM      2  C   UNL     1      -0.505   4.473   0.582  0.00  0.00    +0.015 C 
ATOM      3  N   UNL     1       0.724   3.876   0.644  0.00  0.00    -0.312 N 
ATOM      4  C   UNL     1       1.050   2.868  -0.236  0.00  0.00    +0.080 C 
ATOM      5  C   UNL     1       0.077   2.212  -0.925  0.00  0.00    +0.072 C 
ATOM      6  C   UNL     1      -1.374   2.561  -0.747  0.00  0.00    +0.134 C 
ATOM      7  C   UNL     1      -0.717   5.806   1.251  0.00  0.00    +0.061 C 
ATOM      8  H   UNL     1       1.456   4.200   1.399  0.00  0.00    +0.152 HD
ENDROOT
BRANCH   6   9
ATOM      9  C   UNL     1      -2.040   2.613  -2.097  0.00  0.00    +0.118 A 
ATOM     10  C   UNL     1      -3.152   1.944  -2.453  0.00  0.00    +0.045 A 
ATOM     11  C   UNL     1      -3.423   2.286  -3.797  0.00  0.00    +0.041 A 
ATOM     12  C   UNL     1      -2.457   3.136  -4.186  0.00  0.00    +0.195 A 
ATOM     13  O   UNL     1      -1.621   3.331  -3.152  0.00  0.00    -0.467 OA
ENDBRANCH   6   9
BRANCH   1  15
ATOM     14  N   UNL     1      -2.954   5.602  -0.935  0.00  0.00    -0.282 N 
ATOM     15  C   UNL     1      -2.778   4.548  -0.115  0.00  0.00    +0.247 C 
ATOM     16  O   UNL     1      -3.696   4.161   0.586  0.00  0.00    -0.270 OA
ATOM     17  H   UNL     1      -2.160   5.890  -1.639  0.00  0.00    +0.155 HD
BRANCH  14  23
ATOM     18  C   UNL     1      -6.380   8.254  -3.259  0.00  0.00    +0.044 C 
ATOM     19  C   UNL     1      -5.831   7.627  -2.003  0.00  0.00    -0.049 A 
ATOM     20  C   UNL     1      -6.508   7.771  -0.806  0.00  0.00    +0.003 A 
ATOM     21  C   UNL     1      -6.008   7.198   0.348  0.00  0.00    +0.002 A 
ATOM     22  C   UNL     1      -4.832   6.473   0.308  0.00  0.00    +0.023 A 
ATOM     23  C   UNL     1      -4.147   6.331  -0.892  0.00  0.00    +0.034 A 
ATOM     24  C   UNL     1      -4.653   6.908  -2.049  0.00  0.00    +0.026 A 
ENDBRANCH  14  23
ENDBRANCH   1  15
BRANCH   5  25
ATOM     25  C   UNL     1       0.443   1.174  -1.841  0.00  0.00    +0.098 C 
ATOM     26  N   UNL     1       0.733   0.351  -2.567  0.00  0.00    -0.191 NA
ENDBRANCH   5  25
BRANCH   4  27
ATOM     27  S   UNL     1       2.739   2.425  -0.473  0.00  0.00    -0.100 S 
BRANCH  27  28
ATOM     28  C   UNL     1       3.531   3.592   0.661  0.00  0.00    +0.171 C 
BRANCH  28  29
ATOM     29  C   UNL     1       5.025   3.391   0.625  0.00  0.00    +0.227 C 
ATOM     30  O   UNL     1       5.505   2.543  -0.096  0.00  0.00    -0.275 OA
ATOM     31  N   UNL     1       5.826   4.155   1.394  0.00  0.00    -0.285 N 
ATOM     32  H   UNL     1       5.387   4.872   2.103  0.00  0.00    +0.155 HD
BRANCH  31  33
ATOM     33  C   UNL     1       7.216   4.036   1.290  0.00  0.00    +0.037 A 
ATOM     34  C   UNL     1       7.792   2.796   1.044  0.00  0.00    +0.023 A 
ATOM     35  C   UNL     1       9.164   2.682   0.936  0.00  0.00    +0.002 A 
ATOM     36  C   UNL     1       9.965   3.800   1.085  0.00  0.00    +0.004 A 
ATOM     37  C   UNL     1       9.396   5.034   1.335  0.00  0.00    -0.046 A 
ATOM     38  C   UNL     1       8.024   5.155   1.439  0.00  0.00    -0.026 A 
ATOM     39  C   UNL     1       7.404   6.502   1.712  0.00  0.00    +0.046 C 
ATOM     40  C   UNL     1      10.273   6.249   1.496  0.00  0.00    +0.044 C 
ENDBRANCH  31  33
ENDBRANCH  28  29
ENDBRANCH  27  28
ENDBRANCH   4  27
TORSDOF 8
