REMARK  Name = ZINC57810351
REMARK  13 active torsions:
REMARK  status: ('A' for Active; 'I' for Inactive)
REMARK    1  A    between atoms: C_1  and  C_2
REMARK    2  A    between atoms: C_2  and  C_3
REMARK    3  A    between atoms: C_2  and  C_4
REMARK    4  A    between atoms: C_2  and  C_5
REMARK    5  A    between atoms: C_8  and  C_23
REMARK    6  A    between atoms: N_14  and  C_16
REMARK    7  A    between atoms: C_23  and  N_24
REMARK    8  A    between atoms: N_24  and  C_25
REMARK    9  A    between atoms: C_25  and  C_26
REMARK   10  A    between atoms: C_26  and  C_27
REMARK   11  A    between atoms: C_27  and  N_28
REMARK   12  A    between atoms: N_28  and  C_29
REMARK   13  A    between atoms: N_28  and  C_30
REMARK                            x       y       z     vdW  Elec       q    Type
REMARK                         _______ _______ _______ _____ _____    ______ ____
ROOT
ATOM      1  C   UNL     1       0.707  -0.490  -1.238  0.00  0.00    +0.078 A 
ATOM      2  C   UNL     1       0.917  -1.843  -1.596  0.00  0.00    +0.041 A 
ATOM      3  C   UNL     1       0.578  -3.072  -0.985  0.00  0.00    +0.023 A 
ATOM      4  C   UNL     1       0.930  -4.233  -1.597  0.00  0.00    +0.031 A 
ATOM      5  C   UNL     1       1.623  -4.202  -2.821  0.00  0.00    +0.255 A 
ATOM      6  O   UNL     1       1.935  -5.249  -3.364  0.00  0.00    -0.268 OA
ATOM      7  N   UNL     1       1.946  -3.031  -3.401  0.00  0.00    -0.307 N 
ATOM      8  H   UNL     1       2.424  -3.028  -4.246  0.00  0.00    +0.170 HD
ATOM      9  C   UNL     1       1.605  -1.844  -2.811  0.00  0.00    +0.145 A 
ATOM     10  N   UNL     1       1.795  -0.544  -3.158  0.00  0.00    -0.216 N 
ATOM     11  N   UNL     1       1.224   0.264  -2.167  0.00  0.00    -0.168 NA
ENDROOT
BRANCH  10  12
ATOM     12  C   UNL     1       2.446  -0.089  -4.313  0.00  0.00    +0.068 A 
ATOM     13  C   UNL     1       3.527  -0.795  -4.825  0.00  0.00    +0.030 A 
ATOM     14  C   UNL     1       4.167  -0.346  -5.963  0.00  0.00    +0.040 A 
ATOM     15  C   UNL     1       3.733   0.808  -6.593  0.00  0.00    +0.124 A 
ATOM     16  C   UNL     1       2.655   1.514  -6.084  0.00  0.00    +0.040 A 
ATOM     17  C   UNL     1       2.009   1.064  -4.950  0.00  0.00    +0.030 A 
ATOM     18  F   UNL     1       4.361   1.246  -7.707  0.00  0.00    -0.205 F 
ENDBRANCH  10  12
BRANCH   1  20
ATOM     19  C   UNL     1      -0.019   1.526   0.010  0.00  0.00    +0.017 C 
ATOM     20  C   UNL     1       0.002  -0.004   0.002  0.00  0.00    +0.007 C 
ATOM     21  C   UNL     1       0.742  -0.511   1.242  0.00  0.00    +0.017 C 
ATOM     22  C   UNL     1      -1.433  -0.534   0.013  0.00  0.00    +0.017 C 
ENDBRANCH   1  20
BRANCH   4  23
ATOM     23  C   UNL     1       0.580  -5.555  -0.964  0.00  0.00    +0.121 C 
BRANCH  23  24
ATOM     24  N   UNL     1      -0.683  -6.049  -1.529  0.00  0.00    -0.312 NA
ATOM     25  H   UNL     1      -1.421  -5.370  -1.415  0.00  0.00    +0.122 HD
BRANCH  24  26
ATOM     26  C   UNL     1      -1.058  -7.339  -0.934  0.00  0.00    +0.079 C 
BRANCH  26  27
ATOM     27  C   UNL     1      -2.374  -7.820  -1.547  0.00  0.00    -0.004 C 
BRANCH  27  28
ATOM     28  C   UNL     1      -2.764  -9.163  -0.926  0.00  0.00    -0.078 C 
BRANCH  28  29
ATOM     29  N   UNL     1      -4.029  -9.625  -1.515  0.00  0.00    +0.376 N 
ATOM     30  C   UNL     1      -4.342 -10.969  -1.009  0.00  0.00    -0.097 C 
ATOM     31  C   UNL     1      -5.108  -8.699  -1.146  0.00  0.00    -0.097 C 
ATOM     32  H   UNL     1      -3.941  -9.656  -2.519  0.00  0.00    -0.083 HD
ENDBRANCH  28  29
ENDBRANCH  27  28
ENDBRANCH  26  27
ENDBRANCH  24  26
ENDBRANCH  23  24
ENDBRANCH   4  23
TORSDOF 8
