REMARK  Name = ZINC39468458
REMARK  7 active torsions:
REMARK  status: ('A' for Active; 'I' for Inactive)
REMARK    1  A    between atoms: C_1  and  C_2
REMARK    2  A    between atoms: C_2  and  O_3
REMARK    3  A    between atoms: O_3  and  C_4
REMARK    4  A    between atoms: C_16  and  S_17
REMARK    5  A    between atoms: S_17  and  C_18
REMARK    6  A    between atoms: P_21  and  S_24
REMARK    7  A    between atoms: S_24  and  C_25
REMARK                            x       y       z     vdW  Elec       q    Type
REMARK                         _______ _______ _______ _____ _____    ______ ____
ROOT
ATOM      1  C   UNL     1       0.777  -1.810  -1.336  0.00  0.00    +0.130 C 
ATOM      2  C   UNL     1       0.263  -2.640  -0.422  0.00  0.00    +0.022 C 
ATOM      3  C   UNL     1       0.387  -4.123  -0.640  0.00  0.00    +0.008 C 
ATOM      4  C   UNL     1      -0.674  -4.896   0.135  0.00  0.00    -0.046 C 
ATOM      5  N   UNL     1      -0.487  -6.343  -0.072  0.00  0.00    +0.398 N 
ATOM      6  C   UNL     1      -0.603  -6.700  -1.485  0.00  0.00    -0.020 C 
ATOM      7  C   UNL     1       0.409  -5.922  -2.337  0.00  0.00    -0.003 C 
ATOM      8  C   UNL     1       0.197  -4.425  -2.132  0.00  0.00    +0.017 C 
ATOM      9  C   UNL     1       1.188  -3.617  -2.923  0.00  0.00    -0.005 C 
ATOM     10  C   UNL     1       1.456  -2.365  -2.529  0.00  0.00    +0.045 C 
ATOM     11  C   UNL     1      -0.311  -8.189  -1.713  0.00  0.00    +0.157 C 
ATOM     12  O   UNL     1      -1.278  -8.979  -0.998  0.00  0.00    -0.312 OA
ATOM     13  P   UNL     1      -1.530  -8.631   0.571  0.00  0.00    +0.314 P 
ATOM     14  O   UNL     1      -0.472  -9.240   1.408  0.00  0.00    -0.262 OA
ATOM     15  N   UNL     1      -1.471  -6.968   0.665  0.00  0.00    -0.283 NA
ATOM     16  H   UNL     1      -2.084  -6.460   1.218  0.00  0.00    +0.112 HD
ATOM     17  H   UNL     1       0.419  -6.619   0.275  0.00  0.00    -0.055 HD
ENDROOT
BRANCH  10  18
ATOM     18  S   UNL     1       2.617  -1.387  -3.423  0.00  0.00    -0.125 S 
ATOM     19  C   UNL     1       3.165  -2.476  -4.766  0.00  0.00    +0.090 C 
ENDBRANCH  10  18
BRANCH  13  20
ATOM     20  S   UNL     1      -3.438  -9.325   1.182  0.00  0.00    -0.059 S 
ATOM     21  C   UNL     1      -3.367 -11.114   0.892  0.00  0.00    +0.096 C 
ENDBRANCH  13  20
BRANCH   1  22
ATOM     22  O   UNL     1       0.671  -0.465  -1.174  0.00  0.00    -0.491 OA
BRANCH  22  24
ATOM     23  C   UNL     1      -0.019   1.526   0.010  0.00  0.00    +0.048 C 
ATOM     24  C   UNL     1       0.002  -0.004   0.002  0.00  0.00    +0.226 C 
ENDBRANCH  22  24
ENDBRANCH   1  22
TORSDOF 4
