REMARK  Name = ZINC35032515
REMARK  10 active torsions:
REMARK  status: ('A' for Active; 'I' for Inactive)
REMARK    1  A    between atoms: C_1  and  C_2
REMARK    2  A    between atoms: C_2  and  C_4
REMARK    3  A    between atoms: C_2  and  N_19
REMARK    4  A    between atoms: N_14  and  C_15
REMARK    5  A    between atoms: C_15  and  C_16
REMARK    6  A    between atoms: C_16  and  O_17
REMARK    7  A    between atoms: O_17  and  C_18
REMARK    8  A    between atoms: C_25  and  C_27
REMARK    9  A    between atoms: C_28  and  C_29
REMARK   10  A    between atoms: C_32  and  N_35
REMARK                            x       y       z     vdW  Elec       q    Type
REMARK                         _______ _______ _______ _____ _____    ______ ____
ROOT
ATOM      1  N   UNL     1       0.483  -0.188  -1.206  0.00  0.00    +0.388 N 
ATOM      2  C   UNL     1      -0.368   0.527  -2.165  0.00  0.00    -0.059 C 
ATOM      3  C   UNL     1       0.203   0.358  -3.577  0.00  0.00    +0.089 C 
ATOM      4  N   UNL     1       0.351  -1.080  -3.851  0.00  0.00    -0.302 N 
ATOM      5  C   UNL     1       1.052  -1.906  -2.856  0.00  0.00    +0.089 C 
ATOM      6  C   UNL     1       0.441  -1.630  -1.478  0.00  0.00    -0.059 C 
ATOM      7  C   UNL     1      -0.142  -1.624  -4.981  0.00  0.00    +0.239 C 
ATOM      8  O   UNL     1      -0.641  -0.912  -5.832  0.00  0.00    -0.271 OA
ATOM      9  H   UNL     1       1.433   0.142  -1.291  0.00  0.00    -0.081 HD
ENDROOT
BRANCH   1  11
ATOM     10  C   UNL     1      -0.015   1.572   0.423  0.00  0.00    -0.005 C 
ATOM     11  C   UNL     1      -0.001   0.065   0.158  0.00  0.00    -0.004 C 
BRANCH  11  12
ATOM     12  C   UNL     1       0.912  -0.611   1.149  0.00  0.00    +0.099 A 
ATOM     13  N   UNL     1       2.179  -0.677   0.872  0.00  0.00    -0.235 NA
ATOM     14  C   UNL     1       3.061  -1.270   1.715  0.00  0.00    +0.078 A 
ATOM     15  C   UNL     1       4.424  -1.342   1.419  0.00  0.00    +0.028 A 
ATOM     16  C   UNL     1       5.283  -1.952   2.304  0.00  0.00    +0.002 A 
ATOM     17  C   UNL     1       4.812  -2.499   3.491  0.00  0.00    +0.001 A 
ATOM     18  C   UNL     1       3.472  -2.441   3.806  0.00  0.00    +0.015 A 
ATOM     19  C   UNL     1       2.585  -1.827   2.923  0.00  0.00    +0.065 A 
ATOM     20  C   UNL     1       1.145  -1.734   3.206  0.00  0.00    +0.262 A 
ATOM     21  O   UNL     1       0.671  -2.194   4.228  0.00  0.00    -0.267 OA
ATOM     22  N   UNL     1       0.369  -1.113   2.288  0.00  0.00    -0.295 N 
BRANCH  22  23
ATOM     23  C   UNL     1      -1.072  -0.988   2.521  0.00  0.00    +0.154 C 
BRANCH  23  24
ATOM     24  C   UNL     1      -1.802  -2.146   1.839  0.00  0.00    +0.181 C 
BRANCH  24  25
ATOM     25  O   UNL     1      -1.425  -3.378   2.458  0.00  0.00    -0.381 OA
ATOM     26  C   UNL     1      -2.054  -4.529   1.893  0.00  0.00    +0.194 C 
ENDBRANCH  24  25
ENDBRANCH  23  24
ENDBRANCH  22  23
ENDBRANCH  11  12
ENDBRANCH   1  11
BRANCH   7  27
ATOM     27  C   UNL     1      -0.077  -3.073  -5.184  0.00  0.00    +0.068 C 
ATOM     28  C   UNL     1      -0.469  -3.607  -6.359  0.00  0.00    +0.013 C 
BRANCH  28  29
ATOM     29  C   UNL     1      -0.404  -5.063  -6.563  0.00  0.00    -0.025 A 
ATOM     30  C   UNL     1       0.058  -5.897  -5.540  0.00  0.00    +0.010 A 
ATOM     31  C   UNL     1       0.116  -7.260  -5.739  0.00  0.00    +0.033 A 
ATOM     32  C   UNL     1      -0.282  -7.804  -6.947  0.00  0.00    +0.126 A 
ATOM     33  C   UNL     1      -0.740  -6.986  -7.965  0.00  0.00    +0.033 A 
ATOM     34  C   UNL     1      -0.809  -5.621  -7.780  0.00  0.00    +0.010 A 
BRANCH  32  35
ATOM     35  N   UNL     1      -0.216  -9.268  -7.153  0.00  0.00    +0.056 N 
ATOM     36  O   UNL     1       0.183  -9.986  -6.266  0.00  0.00    -0.126 OA
ATOM     37  O   UNL     1      -0.563  -9.747  -8.208  0.00  0.00    -0.126 OA
ENDBRANCH  32  35
ENDBRANCH  28  29
ENDBRANCH   7  27
TORSDOF 8
