REMARK  Name = ZINC12311696
REMARK  11 active torsions:
REMARK  status: ('A' for Active; 'I' for Inactive)
REMARK    1  A    between atoms: C_1  and  O_2
REMARK    2  A    between atoms: O_2  and  C_3
REMARK    3  A    between atoms: C_6  and  N_12
REMARK    4  A    between atoms: C_7  and  N_9
REMARK    5  A    between atoms: C_13  and  C_15
REMARK    6  A    between atoms: C_15  and  C_16
REMARK    7  A    between atoms: N_20  and  C_30
REMARK    8  A    between atoms: N_22  and  C_23
REMARK    9  A    between atoms: C_30  and  C_31
REMARK   10  A    between atoms: C_31  and  C_32
REMARK   11  A    between atoms: C_32  and  N_33
REMARK                            x       y       z     vdW  Elec       q    Type
REMARK                         _______ _______ _______ _____ _____    ______ ____
ROOT
ATOM      1  C   UNL     1       8.401   2.804  -0.132  0.00  0.00    +0.149 C 
ATOM      2  C   UNL     1       9.785   3.428  -0.055  0.00  0.00    +0.235 C 
ATOM      3  O   UNL     1      10.170   4.242  -0.868  0.00  0.00    -0.274 OA
ATOM      4  N   UNL     1      10.542   3.029   0.952  0.00  0.00    -0.250 N 
ATOM      5  C   UNL     1      10.109   2.103   1.878  0.00  0.00    +0.164 C 
ATOM      6  N   UNL     1      10.760   1.629   2.914  0.00  0.00    -0.226 NA
ATOM      7  S   UNL     1       8.453   1.702   1.337  0.00  0.00    -0.077 S 
ENDROOT
BRANCH   6   8
ATOM      8  C   UNL     1      10.165   0.706   3.733  0.00  0.00    +0.067 A 
ATOM      9  C   UNL     1       8.848   0.891   4.157  0.00  0.00    +0.028 A 
ATOM     10  C   UNL     1       8.252  -0.045   4.977  0.00  0.00    +0.002 A 
ATOM     11  C   UNL     1       8.961  -1.160   5.388  0.00  0.00    +0.000 A 
ATOM     12  C   UNL     1      10.268  -1.347   4.976  0.00  0.00    +0.002 A 
ATOM     13  C   UNL     1      10.874  -0.421   4.152  0.00  0.00    +0.028 A 
ENDBRANCH   6   8
BRANCH   1  14
ATOM     14  C   UNL     1       7.306   3.864   0.010  0.00  0.00    +0.120 C 
BRANCH  14  16
ATOM     15  N   UNL     1       4.834   3.951  -0.006  0.00  0.00    -0.284 N 
ATOM     16  C   UNL     1       5.954   3.207  -0.101  0.00  0.00    +0.219 C 
ATOM     17  O   UNL     1       5.874   2.010  -0.276  0.00  0.00    -0.275 OA
ATOM     18  H   UNL     1       4.897   4.917   0.057  0.00  0.00    +0.155 HD
BRANCH  15  22
ATOM     19  C   UNL     1       1.098   2.099   0.017  0.00  0.00    +0.122 A 
ATOM     20  C   UNL     1       2.181   1.483   0.627  0.00  0.00    +0.047 A 
ATOM     21  C   UNL     1       3.420   2.094   0.616  0.00  0.00    +0.029 A 
ATOM     22  C   UNL     1       3.579   3.329   0.002  0.00  0.00    +0.064 A 
ATOM     23  C   UNL     1       2.494   3.947  -0.604  0.00  0.00    +0.151 A 
ATOM     24  C   UNL     1       1.257   3.333  -0.596  0.00  0.00    +0.080 A 
BRANCH  23  25
ATOM     25  N   UNL     1       2.662   5.264  -1.258  0.00  0.00    +0.058 N 
ATOM     26  O   UNL     1       1.734   5.765  -1.867  0.00  0.00    -0.126 OA
ATOM     27  O   UNL     1       3.730   5.847  -1.188  0.00  0.00    -0.126 OA
ENDBRANCH  23  25
BRANCH  19  29
ATOM     28  C   UNL     1      -0.210   0.225   0.673  0.00  0.00    +0.277 C 
ATOM     29  O   UNL     1      -0.120   1.495   0.024  0.00  0.00    -0.495 OA
ENDBRANCH  19  29
ENDBRANCH  15  22
ENDBRANCH  14  16
ENDBRANCH   1  14
BRANCH   4  30
ATOM     30  C   UNL     1      11.889   3.588   1.089  0.00  0.00    +0.117 C 
BRANCH  30  31
ATOM     31  C   UNL     1      11.832   4.848   1.954  0.00  0.00    +0.038 C 
BRANCH  31  32
ATOM     32  C   UNL     1      13.239   5.433   2.097  0.00  0.00    +0.109 C 
BRANCH  32  33
ATOM     33  N   UNL     1      13.185   6.640   2.926  0.00  0.00    -0.301 N 
ATOM     34  C   UNL     1      12.981   7.995   2.402  0.00  0.00    +0.108 C 
ATOM     35  C   UNL     1      12.560   8.848   3.622  0.00  0.00    +0.028 C 
ATOM     36  C   UNL     1      13.201   8.062   4.789  0.00  0.00    +0.097 C 
ATOM     37  C   UNL     1      13.321   6.648   4.263  0.00  0.00    +0.216 C 
ATOM     38  O   UNL     1      13.511   5.666   4.948  0.00  0.00    -0.276 OA
ENDBRANCH  32  33
ENDBRANCH  31  32
ENDBRANCH  30  31
ENDBRANCH   4  30
TORSDOF 10
