REMARK  Name = ZINC04236234
REMARK  6 active torsions:
REMARK  status: ('A' for Active; 'I' for Inactive)
REMARK    1  A    between atoms: C_4  and  C_7
REMARK    2  A    between atoms: C_7  and  C_8
REMARK    3  A    between atoms: C_8  and  C_9
REMARK    4  A    between atoms: C_9  and  N_61
REMARK    5  A    between atoms: C_20  and  N_25
REMARK    6  A    between atoms: C_26  and  C_28
REMARK                            x       y       z     vdW  Elec       q    Type
REMARK                         _______ _______ _______ _____ _____    ______ ____
ROOT
ATOM      1  C   UNL     1       0.120   9.364  -2.825  0.00  0.00    -0.074 C 
ATOM      2  C   UNL     1       0.147   9.865  -4.261  0.00  0.00    -0.007 C 
ATOM      3  C   UNL     1      -1.129   9.462  -5.004  0.00  0.00    +0.011 C 
ATOM      4  C   UNL     1      -1.250   7.936  -4.920  0.00  0.00    +0.020 C 
ATOM      5  C   UNL     1      -1.364   7.549  -3.436  0.00  0.00    -0.069 C 
ATOM      6  C   UNL     1       0.017   7.306  -5.456  0.00  0.00    +0.023 A 
ATOM      7  C   UNL     1      -0.081   6.056  -5.978  0.00  0.00    +0.023 A 
ATOM      8  C   UNL     1       1.057   5.382  -6.435  0.00  0.00    +0.030 A 
ATOM      9  C   UNL     1       2.275   5.997  -6.330  0.00  0.00    +0.099 A 
ATOM     10  C   UNL     1       2.340   7.295  -5.787  0.00  0.00    +0.273 A 
ATOM     11  O   UNL     1       3.424   7.837  -5.645  0.00  0.00    -0.266 OA
ATOM     12  N   UNL     1       1.210   7.950  -5.421  0.00  0.00    -0.310 N 
ATOM     13  C   UNL     1       1.357   9.349  -5.019  0.00  0.00    +0.127 C 
ATOM     14  N   UNL     1      -0.080   7.901  -2.788  0.00  0.00    +0.380 N 
ATOM     15  H   UNL     1       0.686   7.447  -3.297  0.00  0.00    -0.082 HD
ENDROOT
BRANCH   9  16
ATOM     16  N   UNL     1       3.440   5.346  -6.755  0.00  0.00    -0.277 N 
ATOM     17  C   UNL     1       4.205   5.895  -7.719  0.00  0.00    +0.248 C 
ATOM     18  O   UNL     1       3.933   6.995  -8.159  0.00  0.00    -0.270 OA
ATOM     19  H   UNL     1       3.695   4.500  -6.356  0.00  0.00    +0.155 HD
BRANCH  17  20
ATOM     20  C   UNL     1       5.375   5.160  -8.241  0.00  0.00    +0.037 A 
ATOM     21  C   UNL     1       5.694   3.898  -7.733  0.00  0.00    +0.016 A 
ATOM     22  C   UNL     1       6.784   3.215  -8.228  0.00  0.00    +0.039 A 
ATOM     23  C   UNL     1       7.570   3.782  -9.220  0.00  0.00    +0.123 A 
ATOM     24  C   UNL     1       7.261   5.036  -9.723  0.00  0.00    +0.039 A 
ATOM     25  C   UNL     1       6.170   5.727  -9.240  0.00  0.00    +0.016 A 
ATOM     26  F   UNL     1       8.640   3.110  -9.697  0.00  0.00    -0.205 F 
ENDBRANCH  17  20
ENDBRANCH   9  16
BRANCH  14  27
ATOM     27  C   UNL     1      -0.073   7.427  -1.389  0.00  0.00    -0.078 C 
BRANCH  27  28
ATOM     28  C   UNL     1      -0.054   5.897  -1.388  0.00  0.00    -0.014 C 
BRANCH  28  29
ATOM     29  C   UNL     1      -0.024   5.388   0.054  0.00  0.00    +0.033 C 
BRANCH  29  33
ATOM     30  C   UNL     1       0.032   1.117   0.056  0.00  0.00    +0.000 A 
ATOM     31  C   UNL     1      -1.174   1.792   0.070  0.00  0.00    +0.000 A 
ATOM     32  C   UNL     1      -1.192   3.174   0.075  0.00  0.00    +0.003 A 
ATOM     33  C   UNL     1      -0.004   3.881   0.055  0.00  0.00    -0.047 A 
ATOM     34  C   UNL     1       1.202   3.205   0.036  0.00  0.00    +0.003 A 
ATOM     35  C   UNL     1       1.220   1.823   0.036  0.00  0.00    +0.000 A 
ENDBRANCH  29  33
ENDBRANCH  28  29
ENDBRANCH  27  28
ENDBRANCH  14  27
TORSDOF 6
