REMARK  Name = ZINC20792420
REMARK  8 active torsions:
REMARK  status: ('A' for Active; 'I' for Inactive)
REMARK    1  A    between atoms: C_1  and  C_2
REMARK    2  A    between atoms: C_6  and  C_28
REMARK    3  A    between atoms: C_7  and  N_27
REMARK    4  A    between atoms: C_8  and  C_23
REMARK    5  A    between atoms: C_8  and  C_25
REMARK    6  A    between atoms: C_9  and  C_16
REMARK    7  A    between atoms: C_11  and  C_15
REMARK    8  A    between atoms: N_13  and  C_14
REMARK                            x       y       z     vdW  Elec       q    Type
REMARK                         _______ _______ _______ _____ _____    ______ ____
ROOT
ATOM      1  C   UNL     1       2.234   4.675   3.879  0.00  0.00    +0.028 C 
ATOM      2  C   UNL     1       2.991   3.526   3.209  0.00  0.00    +0.077 C 
ATOM      3  C   UNL     1       3.356   3.910   1.796  0.00  0.00    -0.003 C 
ATOM      4  C   UNL     1       3.491   2.978   0.871  0.00  0.00    -0.023 C 
ATOM      5  C   UNL     1       3.740   3.371  -0.539  0.00  0.00    +0.074 C 
ATOM      6  C   UNL     1       3.539   2.461  -1.526  0.00  0.00    +0.054 C 
ATOM      7  C   UNL     1       3.097   1.051  -1.274  0.00  0.00    +0.188 C 
ATOM      8  C   UNL     1       2.435   0.902   0.097  0.00  0.00    +0.070 C 
ATOM      9  C   UNL     1       3.352   1.511   1.159  0.00  0.00    +0.016 C 
ATOM     10  C   UNL     1       2.870   1.208   2.560  0.00  0.00    +0.096 C 
ATOM     11  N   UNL     1       2.130   2.332   3.140  0.00  0.00    -0.298 NA
ATOM     12  C   UNL     1       1.603   1.987   4.467  0.00  0.00    +0.105 C 
ATOM     13  C   UNL     1       4.734   0.871   1.007  0.00  0.00    +0.018 C 
ENDROOT
BRANCH   8  14
ATOM     14  C   UNL     1       1.112   1.623   0.099  0.00  0.00    -0.040 A 
ATOM     15  C   UNL     1       0.077   1.164   0.893  0.00  0.00    +0.007 A 
ATOM     16  C   UNL     1      -1.139   1.820   0.892  0.00  0.00    +0.038 A 
ATOM     17  C   UNL     1      -1.318   2.944   0.103  0.00  0.00    +0.123 A 
ATOM     18  C   UNL     1      -0.281   3.402  -0.692  0.00  0.00    +0.038 A 
ATOM     19  C   UNL     1       0.933   2.741  -0.693  0.00  0.00    +0.007 A 
ATOM     20  F   UNL     1      -2.505   3.589   0.104  0.00  0.00    -0.205 F 
ENDBRANCH   8  14
BRANCH   6  21
ATOM     21  N   UNL     1       3.753   2.850  -2.819  0.00  0.00    -0.358 N 
ATOM     22  H   UNL     1       3.598   2.136  -3.641  0.00  0.00    +0.142 HD
ATOM     23  H   UNL     1       4.078   3.878  -3.037  0.00  0.00    +0.142 HD
ENDBRANCH   6  21
BRANCH   7  24
ATOM     24  C   UNL     1       4.267   0.161  -1.341  0.00  0.00    +0.091 C 
ATOM     25  N   UNL     1       5.170  -0.526  -1.393  0.00  0.00    -0.194 NA
ENDBRANCH   7  24
BRANCH   7  26
ATOM     26  C   UNL     1       2.135   0.656  -2.316  0.00  0.00    +0.091 C 
ATOM     27  N   UNL     1       1.393   0.351  -3.120  0.00  0.00    -0.194 NA
ENDBRANCH   7  26
BRANCH   5  28
ATOM     28  C   UNL     1       4.188   4.694  -0.854  0.00  0.00    +0.101 C 
ATOM     29  N   UNL     1       4.543   5.744  -1.105  0.00  0.00    -0.191 NA
ENDBRANCH   5  28
TORSDOF 5
