REMARK  Name = ZINC08385065
REMARK  5 active torsions:
REMARK  status: ('A' for Active; 'I' for Inactive)
REMARK    1  A    between atoms: C_4  and  N_11
REMARK    2  A    between atoms: C_5  and  C_7
REMARK    3  A    between atoms: C_12  and  C_14
REMARK    4  A    between atoms: C_14  and  C_15
REMARK    5  A    between atoms: N_20  and  N_21
REMARK                            x       y       z     vdW  Elec       q    Type
REMARK                         _______ _______ _______ _____ _____    ______ ____
ROOT
ATOM      1  C   UNL     1       7.229   0.307  -0.386  0.00  0.00    +0.149 C 
ATOM      2  C   UNL     1       8.567  -0.395  -0.549  0.00  0.00    +0.233 C 
ATOM      3  N   UNL     1       9.446  -0.190   0.417  0.00  0.00    -0.263 N 
ATOM      4  C   UNL     1       9.175   0.609   1.507  0.00  0.00    +0.183 C 
ATOM      5  N   UNL     1       9.960   0.889   2.524  0.00  0.00    -0.127 NA
ATOM      6  S   UNL     1       7.505   1.177   1.212  0.00  0.00    -0.075 S 
ATOM      7  O   UNL     1       8.813  -1.100  -1.505  0.00  0.00    -0.274 OA
ATOM      8  H   UNL     1      10.315  -0.618   0.356  0.00  0.00    +0.157 HD
ENDROOT
BRANCH   5   9
ATOM      9  N   UNL     1       9.506   1.730   3.549  0.00  0.00    -0.156 NA
ATOM     10  C   UNL     1      10.279   2.005   4.549  0.00  0.00    +0.041 C 
ATOM     11  C   UNL     1      11.674   1.430   4.619  0.00  0.00    +0.053 C 
ATOM     12  C   UNL     1      12.529   2.063   3.533  0.00  0.00    +0.006 C 
ATOM     13  C   UNL     1      12.844   3.521   3.922  0.00  0.00    +0.000 C 
ATOM     14  C   UNL     1      11.626   4.393   3.636  0.00  0.00    +0.000 C 
ATOM     15  C   UNL     1      11.031   4.956   4.941  0.00  0.00    +0.000 C 
ATOM     16  C   UNL     1      10.946   3.861   6.002  0.00  0.00    +0.006 C 
ATOM     17  C   UNL     1       9.804   2.902   5.648  0.00  0.00    +0.053 C 
ENDBRANCH   5   9
BRANCH   1  18
ATOM     18  C   UNL     1       6.083  -0.701  -0.278  0.00  0.00    +0.120 C 
BRANCH  18  20
ATOM     19  N   UNL     1       3.622  -0.651  -0.037  0.00  0.00    -0.285 N 
ATOM     20  C   UNL     1       4.775   0.037  -0.147  0.00  0.00    +0.219 C 
ATOM     21  O   UNL     1       4.761   1.250  -0.141  0.00  0.00    -0.275 OA
ATOM     22  H   UNL     1       3.639  -1.618   0.038  0.00  0.00    +0.155 HD
BRANCH  19  26
ATOM     23  C   UNL     1      -0.019   1.375  -0.023  0.00  0.00    +0.001 A 
ATOM     24  C   UNL     1       1.087   1.947  -0.626  0.00  0.00    +0.002 A 
ATOM     25  C   UNL     1       2.295   1.278  -0.633  0.00  0.00    +0.024 A 
ATOM     26  C   UNL     1       2.399   0.030  -0.032  0.00  0.00    +0.045 A 
ATOM     27  C   UNL     1       1.287  -0.541   0.573  0.00  0.00    +0.076 A 
ATOM     28  C   UNL     1       0.082   0.133   0.576  0.00  0.00    +0.014 A 
BRANCH  27  29
ATOM     29  C   UNL     1       1.396  -1.895   1.226  0.00  0.00    +0.419 C 
ATOM     30  F   UNL     1       0.155  -2.255   1.761  0.00  0.00    -0.166 F 
ATOM     31  F   UNL     1       1.785  -2.842   0.273  0.00  0.00    -0.166 F 
ATOM     32  F   UNL     1       2.349  -1.845   2.249  0.00  0.00    -0.166 F 
ENDBRANCH  27  29
ENDBRANCH  19  26
ENDBRANCH  18  20
ENDBRANCH   1  18
TORSDOF 5
