REMARK  Name = ZINC28312999
REMARK  11 active torsions:
REMARK  status: ('A' for Active; 'I' for Inactive)
REMARK    1  A    between atoms: C_1  and  C_2
REMARK    2  A    between atoms: C_2  and  C_4
REMARK    3  A    between atoms: C_2  and  N_14
REMARK    4  A    between atoms: C_7  and  S_10
REMARK    5  A    between atoms: S_10  and  N_13
REMARK    6  A    between atoms: N_14  and  C_15
REMARK    7  A    between atoms: C_16  and  C_18
REMARK    8  A    between atoms: C_25  and  C_28
REMARK    9  A    between atoms: C_28  and  C_29
REMARK   10  A    between atoms: C_28  and  C_30
REMARK   11  A    between atoms: C_28  and  C_31
REMARK                            x       y       z     vdW  Elec       q    Type
REMARK                         _______ _______ _______ _____ _____    ______ ____
ROOT
ATOM      1  N   UNL     1       0.616  -0.542  -1.246  0.00  0.00    -0.293 N 
ATOM      2  C   UNL     1       0.244  -0.181  -2.616  0.00  0.00    +0.133 C 
ATOM      3  C   UNL     1       1.607  -1.431  -1.029  0.00  0.00    +0.253 C 
ATOM      4  O   UNL     1       1.981  -1.659   0.106  0.00  0.00    -0.269 OA
ENDROOT
BRANCH   3   5
ATOM      5  C   UNL     1       2.232  -2.122  -2.160  0.00  0.00    +0.075 A 
ATOM      6  C   UNL     1       3.181  -3.128  -2.151  0.00  0.00    +0.024 A 
ATOM      7  C   UNL     1       3.600  -3.605  -3.384  0.00  0.00    -0.036 A 
ATOM      8  C   UNL     1       3.035  -3.033  -4.486  0.00  0.00    -0.006 A 
ATOM      9  S   UNL     1       1.962  -1.892  -3.908  0.00  0.00    -0.088 S 
ATOM     10  C   UNL     1       3.322  -3.372  -5.919  0.00  0.00    +0.043 C 
ATOM     11  C   UNL     1       4.618  -4.192  -5.974  0.00  0.00    +0.009 C 
ATOM     12  C   UNL     1       4.539  -5.309  -4.929  0.00  0.00    -0.001 C 
ATOM     13  C   UNL     1       4.640  -4.713  -3.525  0.00  0.00    +0.040 C 
BRANCH  12  14
ATOM     14  C   UNL     1       5.691  -6.292  -5.147  0.00  0.00    -0.035 C 
ATOM     15  C   UNL     1       7.024  -5.554  -5.007  0.00  0.00    +0.011 C 
ATOM     16  C   UNL     1       5.614  -7.408  -4.104  0.00  0.00    +0.011 C 
ATOM     17  C   UNL     1       5.588  -6.896  -6.549  0.00  0.00    +0.011 C 
ENDBRANCH  12  14
ENDBRANCH   3   5
BRANCH   1  19
ATOM     18  C   UNL     1      -0.016   1.586  -0.221  0.00  0.00    +0.033 C 
ATOM     19  C   UNL     1      -0.088   0.062  -0.112  0.00  0.00    +0.103 C 
BRANCH  19  20
ATOM     20  C   UNL     1      -1.530  -0.376  -0.126  0.00  0.00    -0.027 A 
ATOM     21  C   UNL     1      -2.510   0.460   0.377  0.00  0.00    +0.007 A 
ATOM     22  C   UNL     1      -3.833   0.059   0.364  0.00  0.00    +0.029 A 
ATOM     23  C   UNL     1      -4.175  -1.178  -0.150  0.00  0.00    +0.105 A 
ATOM     24  C   UNL     1      -3.195  -2.013  -0.653  0.00  0.00    +0.029 A 
ATOM     25  C   UNL     1      -1.873  -1.610  -0.645  0.00  0.00    +0.007 A 
BRANCH  23  26
ATOM     26  S   UNL     1      -5.861  -1.690  -0.165  0.00  0.00    +0.056 S 
ATOM     27  O   UNL     1      -5.854  -3.110  -0.199  0.00  0.00    -0.153 OA
ATOM     28  O   UNL     1      -6.517  -0.956   0.860  0.00  0.00    -0.153 OA
BRANCH  26  29
ATOM     29  N   UNL     1      -6.514  -1.185  -1.600  0.00  0.00    -0.204 NA
ATOM     30  H   UNL     1      -7.233  -1.690  -2.010  0.00  0.00    +0.144 HD
ATOM     31  H   UNL     1      -6.177  -0.384  -2.031  0.00  0.00    +0.144 HD
ENDBRANCH  26  29
ENDBRANCH  23  26
ENDBRANCH  19  20
ENDBRANCH   1  19
TORSDOF 6
