REMARK  Name = ZINC08916583
REMARK  11 active torsions:
REMARK  status: ('A' for Active; 'I' for Inactive)
REMARK    1  A    between atoms: C_1  and  C_2
REMARK    2  A    between atoms: C_2  and  C_3
REMARK    3  A    between atoms: C_3  and  O_4
REMARK    4  A    between atoms: O_4  and  C_5
REMARK    5  A    between atoms: C_8  and  C_14
REMARK    6  A    between atoms: C_10  and  O_11
REMARK    7  A    between atoms: O_11  and  C_12
REMARK    8  A    between atoms: C_12  and  C_13
REMARK    9  A    between atoms: C_19  and  O_28
REMARK   10  A    between atoms: C_23  and  N_27
REMARK   11  A    between atoms: C_24  and  C_25
REMARK                            x       y       z     vdW  Elec       q    Type
REMARK                         _______ _______ _______ _____ _____    ______ ____
ROOT
ATOM      1  C   UNL     1       0.061  -4.281   0.002  0.00  0.00    +0.098 C 
ATOM      2  C   UNL     1       0.040  -2.776  -0.009  0.00  0.00    +0.008 A 
ATOM      3  C   UNL     1       0.041  -2.086   1.190  0.00  0.00    +0.012 A 
ATOM      4  C   UNL     1       0.023  -0.706   1.200  0.00  0.00    +0.046 A 
ATOM      5  C   UNL     1       0.002  -0.004   0.002  0.00  0.00    +0.120 A 
ATOM      6  C   UNL     1      -0.006  -0.691  -1.201  0.00  0.00    +0.092 A 
ATOM      7  C   UNL     1       0.019  -2.080  -1.208  0.00  0.00    +0.138 A 
ATOM      8  O   UNL     1       0.016  -2.738  -2.394  0.00  0.00    -0.441 OA
ATOM      9  C   UNL     1      -0.351  -4.030  -2.443  0.00  0.00    +0.199 C 
ATOM     10  C   UNL     1      -0.352  -4.816  -1.341  0.00  0.00    +0.098 C 
ENDROOT
BRANCH   1  14
ATOM     11  C   UNL     1       4.015  -5.633   0.908  0.00  0.00    +0.162 A 
ATOM     12  C   UNL     1       3.788  -4.848  -0.211  0.00  0.00    +0.050 A 
ATOM     13  C   UNL     1       2.507  -4.418  -0.505  0.00  0.00    +0.008 A 
ATOM     14  C   UNL     1       1.453  -4.758   0.323  0.00  0.00    -0.031 A 
ATOM     15  C   UNL     1       1.674  -5.541   1.441  0.00  0.00    +0.054 A 
ATOM     16  C   UNL     1       2.954  -5.981   1.738  0.00  0.00    +0.162 A 
BRANCH  11  17
ATOM     17  O   UNL     1       5.273  -6.062   1.194  0.00  0.00    -0.488 OA
BRANCH  17  18
ATOM     18  C   UNL     1       6.314  -5.667   0.298  0.00  0.00    +0.229 C 
BRANCH  18  20
ATOM     19  C   UNL     1       8.762  -5.817  -0.178  0.00  0.00    +0.007 C 
ATOM     20  C   UNL     1       7.648  -6.240   0.781  0.00  0.00    +0.038 C 
ENDBRANCH  18  20
ENDBRANCH  17  18
ENDBRANCH  11  17
BRANCH  16  21
ATOM     21  O   UNL     1       3.172  -6.751   2.837  0.00  0.00    -0.489 OA
BRANCH  21  22
ATOM     22  C   UNL     1       2.035  -7.069   3.642  0.00  0.00    +0.226 C 
ATOM     23  C   UNL     1       2.474  -7.936   4.824  0.00  0.00    +0.048 C 
ENDBRANCH  21  22
ENDBRANCH  16  21
ENDBRANCH   1  14
BRANCH   9  24
ATOM     24  N   UNL     1      -0.736  -4.567  -3.645  0.00  0.00    -0.328 N 
ATOM     25  H   UNL     1      -1.004  -5.498  -3.697  0.00  0.00    +0.145 HD
ATOM     26  H   UNL     1      -0.741  -4.017  -4.444  0.00  0.00    +0.145 HD
ENDBRANCH   9  24
BRANCH  10  27
ATOM     27  C   UNL     1      -0.754  -6.186  -1.457  0.00  0.00    +0.101 C 
ATOM     28  N   UNL     1      -1.073  -7.272  -1.549  0.00  0.00    -0.191 NA
ENDBRANCH  10  27
BRANCH   5  29
ATOM     29  O   UNL     1      -0.016   1.355   0.009  0.00  0.00    -0.507 OA
ATOM     30  H   UNL     1       0.862   1.760   0.003  0.00  0.00    +0.292 HD
ENDBRANCH   5  29
TORSDOF 9
