REMARK  Name = ZINC64769598
REMARK  10 active torsions:
REMARK  status: ('A' for Active; 'I' for Inactive)
REMARK    1  A    between atoms: C_1  and  C_2
REMARK    2  A    between atoms: C_2  and  C_3
REMARK    3  A    between atoms: C_5  and  C_8
REMARK    4  A    between atoms: C_11  and  C_38
REMARK    5  A    between atoms: C_12  and  S_14
REMARK    6  A    between atoms: S_14  and  N_17
REMARK    7  A    between atoms: C_20  and  C_23
REMARK    8  A    between atoms: N_25  and  C_26
REMARK    9  A    between atoms: C_26  and  C_27
REMARK   10  A    between atoms: C_33  and  C_37
REMARK                            x       y       z     vdW  Elec       q    Type
REMARK                         _______ _______ _______ _____ _____    ______ ____
ROOT
ATOM      1  N   UNL     1       6.607  -1.215  -7.057  0.00  0.00    -0.177 NA
ATOM      2  C   UNL     1       6.006   0.022  -7.572  0.00  0.00    +0.110 C 
ATOM      3  C   UNL     1       6.599   0.321  -8.953  0.00  0.00    +0.030 C 
ATOM      4  C   UNL     1       8.125   0.358  -8.852  0.00  0.00    +0.077 C 
ATOM      5  C   UNL     1       8.641  -1.007  -8.389  0.00  0.00    +0.030 C 
ATOM      6  C   UNL     1       8.071  -1.318  -6.997  0.00  0.00    +0.110 C 
ENDROOT
BRANCH   4   7
ATOM      7  C   UNL     1       8.710   0.684 -10.201  0.00  0.00    +0.216 C 
ATOM      8  O   UNL     1       7.979   0.869 -11.151  0.00  0.00    -0.276 OA
ATOM      9  N   UNL     1      10.047   0.771 -10.353  0.00  0.00    -0.311 N 
ATOM     10  H   UNL     1      10.632   0.623  -9.594  0.00  0.00    +0.149 HD
BRANCH   9  11
ATOM     11  C   UNL     1      10.616   1.088 -11.666  0.00  0.00    +0.150 C 
BRANCH  11  12
ATOM     12  C   UNL     1      12.142   1.125 -11.564  0.00  0.00    +0.191 C 
ATOM     13  N   UNL     1      12.556   2.113 -10.560  0.00  0.00    -0.362 N 
ATOM     14  C   UNL     1      13.216   1.476  -9.635  0.00  0.00    +0.060 A 
ATOM     15  C   UNL     1      13.870   1.913  -8.394  0.00  0.00    +0.027 A 
ATOM     16  C   UNL     1      14.492   1.006  -7.615  0.00  0.00    +0.005 A 
ATOM     17  C   UNL     1      14.547  -0.361  -7.940  0.00  0.00    -0.048 A 
ATOM     18  C   UNL     1      13.981  -0.867  -9.054  0.00  0.00    +0.030 A 
ATOM     19  C   UNL     1      13.274   0.029  -9.979  0.00  0.00    +0.060 A 
ATOM     20  N   UNL     1      12.648  -0.174 -11.104  0.00  0.00    -0.362 N 
ATOM     21  C   UNL     1      15.268  -1.298  -7.005  0.00  0.00    +0.044 C 
ATOM     22  H   UNL     1      12.373   3.065 -10.581  0.00  0.00    +0.162 HD
ATOM     23  H   UNL     1      12.536  -1.026 -11.554  0.00  0.00    +0.162 HD
ENDBRANCH  11  12
ENDBRANCH   9  11
ENDBRANCH   4   7
BRANCH   1  24
ATOM     24  S   UNL     1       5.651  -2.469  -6.548  0.00  0.00    +0.061 S 
ATOM     25  O   UNL     1       6.386  -3.662  -6.784  0.00  0.00    -0.153 OA
ATOM     26  O   UNL     1       4.361  -2.247  -7.101  0.00  0.00    -0.153 OA
BRANCH  24  31
ATOM     27  C   UNL     1       5.843  -3.186  -2.591  0.00  0.00    +0.024 A 
ATOM     28  C   UNL     1       5.208  -2.068  -2.053  0.00  0.00    +0.012 A 
ATOM     29  C   UNL     1       4.717  -1.087  -2.889  0.00  0.00    +0.006 A 
ATOM     30  C   UNL     1       4.854  -1.211  -4.261  0.00  0.00    -0.024 A 
ATOM     31  C   UNL     1       5.482  -2.318  -4.801  0.00  0.00    +0.109 A 
ATOM     32  C   UNL     1       5.983  -3.303  -3.973  0.00  0.00    +0.040 A 
ATOM     33  C   UNL     1       4.314  -0.136  -5.169  0.00  0.00    +0.046 C 
BRANCH  27  36
ATOM     34  C   UNL     1       6.862  -5.320   0.123  0.00  0.00    +0.227 A 
ATOM     35  N   UNL     1       6.301  -4.245  -0.354  0.00  0.00    -0.191 NA
ATOM     36  C   UNL     1       6.373  -4.244  -1.697  0.00  0.00    +0.202 A 
ATOM     37  N   UNL     1       6.990  -5.333  -2.083  0.00  0.00    -0.056 NA
ATOM     38  O   UNL     1       7.322  -6.048  -0.903  0.00  0.00    -0.338 OA
BRANCH  34  40
ATOM     39  C   UNL     1       5.758  -6.498   2.005  0.00  0.00    +0.014 C 
ATOM     40  C   UNL     1       6.979  -5.680   1.581  0.00  0.00    +0.095 C 
ENDBRANCH  34  40
ENDBRANCH  27  36
ENDBRANCH  24  31
ENDBRANCH   1  24
TORSDOF 7
