REMARK  Name = ZINC65062270
REMARK  12 active torsions:
REMARK  status: ('A' for Active; 'I' for Inactive)
REMARK    1  A    between atoms: C_1  and  C_2
REMARK    2  A    between atoms: C_2  and  N_3
REMARK    3  A    between atoms: C_4  and  C_32
REMARK    4  A    between atoms: C_5  and  C_9
REMARK    5  A    between atoms: C_6  and  C_8
REMARK    6  A    between atoms: C_9  and  C_10
REMARK    7  A    between atoms: C_10  and  N_11
REMARK    8  A    between atoms: C_12  and  C_14
REMARK    9  A    between atoms: C_14  and  C_16
REMARK   10  A    between atoms: C_14  and  C_17
REMARK   11  A    between atoms: N_20  and  S_23
REMARK   12  A    between atoms: S_23  and  C_26
REMARK                            x       y       z     vdW  Elec       q    Type
REMARK                         _______ _______ _______ _____ _____    ______ ____
ROOT
ATOM      1  C   UNL     1      -8.510  -0.380   4.039  0.00  0.00    +0.075 C 
ATOM      2  C   UNL     1      -7.955  -0.950   5.346  0.00  0.00    +0.017 C 
ENDROOT
BRANCH   1   3
ATOM      3  C   UNL     1      -9.396   0.829   4.345  0.00  0.00    +0.003 C 
ATOM      4  C   UNL     1     -10.554   0.397   5.247  0.00  0.00    +0.021 C 
ATOM      5  C   UNL     1     -11.419   1.617   5.580  0.00  0.00    +0.110 C 
ATOM      6  N   UNL     1     -11.838   2.256   4.325  0.00  0.00    -0.176 NA
ATOM      7  C   UNL     1     -10.809   2.630   3.345  0.00  0.00    +0.110 C 
ATOM      8  C   UNL     1      -9.951   1.398   3.037  0.00  0.00    +0.021 C 
BRANCH   6   9
ATOM      9  S   UNL     1     -13.439   2.549   4.021  0.00  0.00    +0.067 S 
ATOM     10  O   UNL     1     -13.577   2.625   2.608  0.00  0.00    -0.152 OA
ATOM     11  O   UNL     1     -14.178   1.627   4.810  0.00  0.00    -0.152 OA
BRANCH   9  12
ATOM     12  C   UNL     1     -13.803   4.155   4.649  0.00  0.00    +0.144 A 
ATOM     13  C   UNL     1     -13.731   5.353   4.021  0.00  0.00    +0.038 A 
ATOM     14  C   UNL     1     -14.069   6.498   4.719  0.00  0.00    +0.030 A 
ATOM     15  C   UNL     1     -14.463   6.386   6.012  0.00  0.00    +0.080 A 
ATOM     16  S   UNL     1     -14.371   4.623   6.275  0.00  0.00    -0.057 S 
ATOM     17 CL   UNL     1     -14.941   7.634   7.121  0.00  0.00    -0.076 Cl
ENDBRANCH   9  12
ENDBRANCH   6   9
ENDBRANCH   1   3
BRANCH   1  19
ATOM     18  N   UNL     1      -6.454  -0.860   2.750  0.00  0.00    -0.315 N 
ATOM     19  C   UNL     1      -7.369   0.045   3.151  0.00  0.00    +0.216 C 
ATOM     20  O   UNL     1      -7.273   1.201   2.798  0.00  0.00    -0.276 OA
ATOM     21  H   UNL     1      -6.530  -1.785   3.032  0.00  0.00    +0.149 HD
BRANCH  18  22
ATOM     22  C   UNL     1      -5.345  -0.447   1.887  0.00  0.00    +0.109 C 
BRANCH  22  23
ATOM     23  C   UNL     1      -4.459  -1.656   1.581  0.00  0.00    +0.057 C 
BRANCH  23  26
ATOM     24  N   UNL     1      -1.372  -0.511   0.012  0.00  0.00    -0.268 N 
ATOM     25  C   UNL     1      -2.109  -0.787   1.109  0.00  0.00    +0.040 A 
ATOM     26  C   UNL     1      -3.317  -1.231   0.694  0.00  0.00    -0.003 A 
ATOM     27  C   UNL     1      -3.320  -1.227  -0.705  0.00  0.00    +0.063 A 
ATOM     28  N   UNL     1      -2.156  -0.790  -1.114  0.00  0.00    -0.176 NA
ATOM     29  C   UNL     1      -4.467  -1.647  -1.588  0.00  0.00    +0.068 C 
ATOM     30  C   UNL     1      -1.664  -0.628   2.541  0.00  0.00    +0.065 C 
BRANCH  24  32
ATOM     31  C   UNL     1      -0.019   1.526   0.010  0.00  0.00    +0.029 C 
ATOM     32  C   UNL     1       0.002  -0.004   0.002  0.00  0.00    +0.140 C 
ENDBRANCH  24  32
ENDBRANCH  23  26
ENDBRANCH  22  23
ENDBRANCH  18  22
ENDBRANCH   1  19
TORSDOF 8
