REMARK  Name = ZINC10133881
REMARK  10 active torsions:
REMARK  status: ('A' for Active; 'I' for Inactive)
REMARK    1  A    between atoms: C_1  and  C_2
REMARK    2  A    between atoms: C_2  and  C_3
REMARK    3  A    between atoms: N_11  and  C_15
REMARK    4  A    between atoms: C_15  and  C_16
REMARK    5  A    between atoms: C_16  and  O_18
REMARK    6  A    between atoms: O_18  and  C_19
REMARK    7  A    between atoms: C_19  and  C_21
REMARK    8  A    between atoms: C_19  and  C_22
REMARK    9  A    between atoms: N_24  and  C_25
REMARK   10  A    between atoms: C_30  and  C_31
REMARK                            x       y       z     vdW  Elec       q    Type
REMARK                         _______ _______ _______ _____ _____    ______ ____
ROOT
ATOM      1  O   UNL     1      -2.750   3.161   1.697  0.00  0.00    -0.451 OA
ENDROOT
BRANCH   1   2
ATOM      2  C   UNL     1      -1.644   2.444   1.442  0.00  0.00    +0.326 C 
ATOM      3  O   UNL     1      -0.980   2.013   2.355  0.00  0.00    -0.249 OA
BRANCH   2   4
ATOM      4  C   UNL     1      -1.231   2.176   0.018  0.00  0.00    +0.238 C 
BRANCH   4  13
ATOM      5  C   UNL     1       1.441  -3.260  -0.025  0.00  0.00    -0.011 C 
ATOM      6  C   UNL     1       1.082  -2.465   1.232  0.00  0.00    +0.006 C 
ATOM      7  C   UNL     1       1.851  -1.141   1.233  0.00  0.00    +0.035 C 
ATOM      8  C   UNL     1       1.492  -0.342  -0.015  0.00  0.00    +0.113 C 
ATOM      9  C   UNL     1       1.825  -1.131  -1.276  0.00  0.00    +0.035 C 
ATOM     10  C   UNL     1       1.056  -2.455  -1.268  0.00  0.00    +0.006 C 
ATOM     11  C   UNL     1       0.027   0.030   0.002  0.00  0.00    +0.247 C 
ATOM     12  O   UNL     1      -0.922  -0.724   0.009  0.00  0.00    -0.273 OA
ATOM     13  N   UNL     1      -0.002   1.379   0.007  0.00  0.00    -0.213 N 
ATOM     14  C   UNL     1       1.231   1.899  -0.004  0.00  0.00    +0.310 C 
ATOM     15  O   UNL     1       1.462   3.092  -0.002  0.00  0.00    -0.252 OA
ATOM     16  N   UNL     1       2.188   0.951  -0.017  0.00  0.00    -0.285 N 
ATOM     17  H   UNL     1       3.147   1.094  -0.027  0.00  0.00    +0.151 HD
BRANCH   5  19
ATOM     18  C   UNL     1       1.133  -5.437  -1.213  0.00  0.00    +0.004 C 
ATOM     19  C   UNL     1       0.681  -4.588  -0.022  0.00  0.00    -0.000 C 
ENDBRANCH   5  19
ENDBRANCH   4  13
ENDBRANCH   2   4
ENDBRANCH   1   2
BRANCH   1  20
ATOM     20  C   UNL     1      -3.087   3.379   3.092  0.00  0.00    +0.259 C 
ATOM     21  C   UNL     1      -2.421   4.666   3.583  0.00  0.00    +0.062 C 
BRANCH  20  22
ATOM     22  C   UNL     1      -4.582   3.502   3.235  0.00  0.00    +0.258 C 
ATOM     23  O   UNL     1      -5.294   3.414   2.256  0.00  0.00    -0.271 OA
ATOM     24  N   UNL     1      -5.129   3.710   4.449  0.00  0.00    -0.282 N 
ATOM     25  H   UNL     1      -4.569   3.700   5.241  0.00  0.00    +0.155 HD
BRANCH  24  26
ATOM     26  C   UNL     1      -6.502   3.939   4.567  0.00  0.00    +0.041 A 
ATOM     27  C   UNL     1      -7.216   4.458   3.497  0.00  0.00    +0.024 A 
ATOM     28  C   UNL     1      -8.575   4.679   3.614  0.00  0.00    +0.002 A 
ATOM     29  C   UNL     1      -9.230   4.394   4.800  0.00  0.00    +0.001 A 
ATOM     30  C   UNL     1      -8.531   3.882   5.875  0.00  0.00    +0.010 A 
ATOM     31  C   UNL     1      -7.162   3.650   5.767  0.00  0.00    +0.003 A 
BRANCH  31  32
ATOM     32  C   UNL     1      -6.407   3.100   6.919  0.00  0.00    -0.016 A 
ATOM     33  C   UNL     1      -5.572   1.997   6.745  0.00  0.00    +0.008 A 
ATOM     34  C   UNL     1      -4.868   1.492   7.820  0.00  0.00    +0.001 A 
ATOM     35  C   UNL     1      -4.998   2.072   9.069  0.00  0.00    +0.000 A 
ATOM     36  C   UNL     1      -5.829   3.163   9.248  0.00  0.00    +0.001 A 
ATOM     37  C   UNL     1      -6.534   3.680   8.180  0.00  0.00    +0.008 A 
ENDBRANCH  31  32
ENDBRANCH  24  26
ENDBRANCH  20  22
ENDBRANCH   1  20
TORSDOF 8
