REMARK  Name = ZINC00226861
REMARK  5 active torsions:
REMARK  status: ('A' for Active; 'I' for Inactive)
REMARK    1  A    between atoms: C_1  and  C_2
REMARK    2  A    between atoms: C_5  and  C_8
REMARK    3  A    between atoms: C_11  and  C_22
REMARK    4  A    between atoms: C_16  and  C_18
REMARK    5  A    between atoms: C_18  and  O_19
REMARK                            x       y       z     vdW  Elec       q    Type
REMARK                         _______ _______ _______ _____ _____    ______ ____
ROOT
ATOM      1  C   UNL     1       0.059  -4.275  -0.021  0.00  0.00    +0.104 C 
ATOM      2  C   UNL     1      -1.352  -4.810   0.243  0.00  0.00    +0.063 C 
ATOM      3  C   UNL     1      -1.354  -6.341   0.170  0.00  0.00    +0.215 C 
ATOM      4  N   UNL     1      -0.266  -6.857   1.005  0.00  0.00    -0.237 N 
ATOM      5  C   UNL     1       0.802  -6.107   1.406  0.00  0.00    +0.137 A 
ATOM      6  C   UNL     1       1.601  -6.894   2.159  0.00  0.00    +0.105 A 
ATOM      7  C   UNL     1       1.010  -8.163   2.222  0.00  0.00    +0.108 A 
ATOM      8  N   UNL     1      -0.105  -8.138   1.531  0.00  0.00    -0.170 NA
ATOM      9 CL   UNL     1       3.091  -6.420   2.913  0.00  0.00    -0.078 Cl
ATOM     10  N   UNL     1       0.959  -4.766   1.042  0.00  0.00    -0.321 N 
ATOM     11  H   UNL     1       1.616  -4.191   1.465  0.00  0.00    +0.148 HD
ENDROOT
BRANCH   1  16
ATOM     12  C   UNL     1      -0.018   1.503   0.010  0.00  0.00    +0.044 C 
ATOM     13  C   UNL     1       0.002  -0.004   0.002  0.00  0.00    -0.050 A 
ATOM     14  C   UNL     1       0.006  -0.689  -1.199  0.00  0.00    +0.004 A 
ATOM     15  C   UNL     1       0.025  -2.071  -1.206  0.00  0.00    +0.006 A 
ATOM     16  C   UNL     1       0.040  -2.768  -0.013  0.00  0.00    -0.027 A 
ATOM     17  C   UNL     1       0.037  -2.084   1.188  0.00  0.00    +0.006 A 
ATOM     18  C   UNL     1       0.023  -0.702   1.195  0.00  0.00    +0.004 A 
ENDBRANCH   1  16
BRANCH   3  19
ATOM     19  C   UNL     1      -2.693  -6.878   0.680  0.00  0.00    +0.412 C 
ATOM     20  F   UNL     1      -3.729  -6.373  -0.112  0.00  0.00    -0.168 F 
ATOM     21  F   UNL     1      -2.692  -8.275   0.612  0.00  0.00    -0.168 F 
ATOM     22  F   UNL     1      -2.881  -6.475   2.007  0.00  0.00    -0.168 F 
ENDBRANCH   3  19
BRANCH   7  23
ATOM     23  C   UNL     1       1.562  -9.356   2.959  0.00  0.00    +0.214 C 
BRANCH  23  24
ATOM     24  O   UNL     1       1.060  -9.363   4.296  0.00  0.00    -0.389 OA
ATOM     25  H   UNL     1       1.375 -10.106   4.831  0.00  0.00    +0.210 HD
ENDBRANCH  23  24
ENDBRANCH   7  23
TORSDOF 4
