REMARK  Name = ZINC13064930
REMARK  13 active torsions:
REMARK  status: ('A' for Active; 'I' for Inactive)
REMARK    1  A    between atoms: C_1  and  C_2
REMARK    2  A    between atoms: C_2  and  C_3
REMARK    3  A    between atoms: C_3  and  C_5
REMARK    4  A    between atoms: C_3  and  N_69
REMARK    5  A    between atoms: N_9  and  C_10
REMARK    6  A    between atoms: C_10  and  C_11
REMARK    7  A    between atoms: C_16  and  C_17
REMARK    8  A    between atoms: C_16  and  N_69
REMARK    9  A    between atoms: C_20  and  C_23
REMARK   10  A    between atoms: C_24  and  C_25
REMARK   11  A    between atoms: C_24  and  N_69
REMARK   12  A    between atoms: C_28  and  C_38
REMARK   13  A    between atoms: C_30  and  C_37
REMARK                            x       y       z     vdW  Elec       q    Type
REMARK                         _______ _______ _______ _____ _____    ______ ____
ROOT
ATOM      1  N   UNL     1       6.119   5.327  -1.106  0.00  0.00    +0.392 N 
ATOM      2  H   UNL     1       6.480   4.685  -1.821  0.00  0.00    -0.080 HD
ENDROOT
BRANCH   1   3
ATOM      3  C   UNL     1       7.254   5.862  -0.325  0.00  0.00    +0.003 C 
BRANCH   3   4
ATOM      4  C   UNL     1       6.769   6.452   0.975  0.00  0.00    +0.139 A 
ATOM      5  N   UNL     1       6.126   5.822   1.928  0.00  0.00    -0.115 NA
ATOM      6  N   UNL     1       5.886   6.666   2.871  0.00  0.00    -0.023 NA
ATOM      7  N   UNL     1       6.359   7.818   2.544  0.00  0.00    -0.044 NA
ATOM      8  N   UNL     1       6.916   7.725   1.384  0.00  0.00    -0.223 N 
BRANCH   8   9
ATOM      9  C   UNL     1       7.580   8.804   0.649  0.00  0.00    +0.221 C 
BRANCH   9  10
ATOM     10  C   UNL     1       6.542   9.733   0.072  0.00  0.00    +0.126 A 
ATOM     11  C   UNL     1       6.116  10.880   0.630  0.00  0.00    +0.046 A 
ATOM     12  C   UNL     1       5.148  11.426  -0.244  0.00  0.00    +0.041 A 
ATOM     13  C   UNL     1       5.035  10.575  -1.280  0.00  0.00    +0.195 A 
ATOM     14  O   UNL     1       5.881   9.552  -1.083  0.00  0.00    -0.466 OA
ENDBRANCH   9  10
ENDBRANCH   8   9
ENDBRANCH   3   4
BRANCH   3  16
ATOM     15  C   UNL     1       8.847   4.230  -1.345  0.00  0.00    +0.002 C 
ATOM     16  C   UNL     1       8.230   4.721  -0.034  0.00  0.00    -0.011 C 
ENDBRANCH   3  16
ENDBRANCH   1   3
BRANCH   1  17
ATOM     17  C   UNL     1       5.399   6.433  -1.772  0.00  0.00    -0.042 C 
BRANCH  17  18
ATOM     18  C   UNL     1       6.211   6.895  -2.955  0.00  0.00    -0.064 A 
ATOM     19  C   UNL     1       7.199   7.848  -2.785  0.00  0.00    +0.002 A 
ATOM     20  C   UNL     1       7.946   8.269  -3.869  0.00  0.00    +0.003 A 
ATOM     21  C   UNL     1       7.700   7.745  -5.124  0.00  0.00    -0.050 A 
ATOM     22  C   UNL     1       6.710   6.795  -5.294  0.00  0.00    +0.003 A 
ATOM     23  C   UNL     1       5.965   6.371  -4.210  0.00  0.00    +0.002 A 
ATOM     24  C   UNL     1       8.513   8.207  -6.306  0.00  0.00    +0.044 C 
ENDBRANCH  17  18
ENDBRANCH   1  17
BRANCH   1  25
ATOM     25  C   UNL     1       5.198   4.588  -0.217  0.00  0.00    -0.036 C 
BRANCH  25  26
ATOM     26  C   UNL     1       4.353   3.666  -1.058  0.00  0.00    +0.001 A 
ATOM     27  C   UNL     1       4.734   2.377  -1.239  0.00  0.00    +0.017 A 
ATOM     28  C   UNL     1       3.891   1.508  -2.062  0.00  0.00    +0.002 A 
ATOM     29  C   UNL     1       4.232   0.170  -2.285  0.00  0.00    -0.041 A 
ATOM     30  C   UNL     1       3.424  -0.615  -3.058  0.00  0.00    +0.007 A 
ATOM     31  C   UNL     1       2.268  -0.097  -3.625  0.00  0.00    -0.048 A 
ATOM     32  C   UNL     1       1.912   1.218  -3.419  0.00  0.00    +0.029 A 
ATOM     33  C   UNL     1       2.719   2.037  -2.634  0.00  0.00    +0.050 A 
ATOM     34  N   UNL     1       2.388   3.357  -2.413  0.00  0.00    -0.322 N 
ATOM     35  H   UNL     1       1.580   3.720  -2.808  0.00  0.00    +0.169 HD
ATOM     36  C   UNL     1       3.168   4.147  -1.655  0.00  0.00    +0.251 A 
ATOM     37  O   UNL     1       2.845   5.309  -1.480  0.00  0.00    -0.268 OA
ATOM     38  C   UNL     1       1.393  -0.981  -4.475  0.00  0.00    +0.044 C 
ATOM     39  C   UNL     1       5.485  -0.404  -1.674  0.00  0.00    +0.044 C 
ENDBRANCH  25  26
ENDBRANCH   1  25
TORSDOF 9
