REMARK  Name = ZINC67024327
REMARK  3 active torsions:
REMARK  status: ('A' for Active; 'I' for Inactive)
REMARK    1  A    between atoms: C_3  and  C_11
REMARK    2  A    between atoms: N_13  and  C_14
REMARK    3  A    between atoms: C_17  and  N_20
REMARK                            x       y       z     vdW  Elec       q    Type
REMARK                         _______ _______ _______ _____ _____    ______ ____
ROOT
ATOM      1  C   UNL     1       2.527   4.045  -0.587  0.00  0.00    +0.252 C 
ATOM      2  O   UNL     1       2.576   5.139  -1.116  0.00  0.00    -0.270 OA
ATOM      3  N   UNL     1       3.630   3.522  -0.016  0.00  0.00    -0.281 N 
ATOM      4  H   UNL     1       3.575   2.680   0.464  0.00  0.00    +0.155 HD
ENDROOT
BRANCH   1   7
ATOM      5  C   UNL     1       0.013   1.332   0.050  0.00  0.00    +0.005 A 
ATOM      6  C   UNL     1       1.199   2.033   0.036  0.00  0.00    +0.017 A 
ATOM      7  C   UNL     1       1.259   3.290  -0.571  0.00  0.00    +0.082 A 
ATOM      8  C   UNL     1       0.110   3.831  -1.163  0.00  0.00    +0.174 A 
ATOM      9  C   UNL     1      -1.078   3.112  -1.143  0.00  0.00    +0.163 A 
ATOM     10  C   UNL     1      -1.122   1.867  -0.535  0.00  0.00    +0.049 A 
ATOM     11  O   UNL     1      -2.205   3.614  -1.718  0.00  0.00    -0.485 OA
ATOM     12  C   UNL     1      -2.218   5.020  -1.988  0.00  0.00    +0.270 C 
ATOM     13  C   UNL     1      -0.884   5.394  -2.650  0.00  0.00    +0.270 C 
ATOM     14  O   UNL     1       0.174   5.056  -1.748  0.00  0.00    -0.484 OA
ENDBRANCH   1   7
BRANCH   3  15
ATOM     15  C   UNL     1       4.855   4.193  -0.116  0.00  0.00    +0.034 A 
ATOM     16  C   UNL     1       6.035   3.470  -0.234  0.00  0.00    +0.025 A 
ATOM     17  C   UNL     1       7.243   4.131  -0.332  0.00  0.00    +0.025 A 
ATOM     18  C   UNL     1       7.278   5.519  -0.314  0.00  0.00    +0.030 A 
ATOM     19  C   UNL     1       6.098   6.242  -0.196  0.00  0.00    +0.025 A 
ATOM     20  C   UNL     1       4.890   5.581  -0.103  0.00  0.00    +0.025 A 
BRANCH  18  21
ATOM     21  N   UNL     1       8.502   6.189  -0.413  0.00  0.00    -0.330 N 
ATOM     22  C   UNL     1       9.820   5.552  -0.547  0.00  0.00    +0.105 C 
ATOM     23  C   UNL     1      10.872   6.679  -0.595  0.00  0.00    +0.020 C 
ATOM     24  C   UNL     1      10.140   7.867   0.084  0.00  0.00    +0.020 C 
ATOM     25  C   UNL     1       8.684   7.653  -0.406  0.00  0.00    +0.105 C 
ENDBRANCH  18  21
ENDBRANCH   3  15
TORSDOF 3
