REMARK  Name = ZINC39631558
REMARK  13 active torsions:
REMARK  status: ('A' for Active; 'I' for Inactive)
REMARK    1  A    between atoms: C_1  and  C_2
REMARK    2  A    between atoms: C_3  and  C_14
REMARK    3  A    between atoms: C_4  and  C_7
REMARK    4  A    between atoms: C_18  and  C_27
REMARK    5  A    between atoms: N_29  and  C_30
REMARK    6  A    between atoms: C_30  and  C_32
REMARK    7  A    between atoms: C_30  and  C_33
REMARK    8  A    between atoms: C_33  and  C_34
REMARK    9  A    between atoms: C_34  and  C_35
REMARK   10  A    between atoms: C_35  and  C_36
REMARK   11  A    between atoms: C_36  and  C_37
REMARK   12  A    between atoms: C_36  and  C_38
REMARK   13  A    between atoms: C_36  and  O_39
REMARK                            x       y       z     vdW  Elec       q    Type
REMARK                         _______ _______ _______ _____ _____    ______ ____
ROOT
ATOM      1  C   UNL     1      -2.651  -0.383  -0.019  0.00  0.00    +0.252 C 
ATOM      2  O   UNL     1      -3.248  -0.146  -1.053  0.00  0.00    -0.270 OA
ATOM      3  N   UNL     1      -3.253  -0.173   1.169  0.00  0.00    -0.296 N 
ATOM      4  C   UNL     1      -2.692  -0.394   2.522  0.00  0.00    +0.121 C 
ATOM      5  C   UNL     1      -3.208   0.798   3.358  0.00  0.00    +0.100 C 
ATOM      6  C   UNL     1      -4.478   1.268   2.629  0.00  0.00    -0.004 C 
ATOM      7  C   UNL     1      -4.623   0.337   1.416  0.00  0.00    +0.115 C 
ATOM      8  C   UNL     1      -5.692   1.139   3.544  0.00  0.00    -0.010 C 
ATOM      9  C   UNL     1      -6.932   1.666   2.816  0.00  0.00    -0.082 C 
ATOM     10  N   UNL     1      -6.723   3.070   2.444  0.00  0.00    +0.379 N 
ATOM     11  C   UNL     1      -5.611   3.175   1.491  0.00  0.00    -0.082 C 
ATOM     12  C   UNL     1      -4.315   2.712   2.162  0.00  0.00    -0.010 C 
ATOM     13  H   UNL     1      -7.563   3.433   2.019  0.00  0.00    -0.086 HD
ATOM     14  H   UNL     1      -6.508   3.608   3.270  0.00  0.00    -0.086 HD
ENDROOT
BRANCH   1  17
ATOM     15  C   UNL     1      -0.048   1.346  -0.047  0.00  0.00    +0.090 C 
ATOM     16  C   UNL     1      -0.127  -0.159  -0.078  0.00  0.00    +0.147 A 
ATOM     17  C   UNL     1      -1.273  -0.899  -0.066  0.00  0.00    +0.106 A 
ATOM     18  C   UNL     1      -0.866  -2.311  -0.107  0.00  0.00    +0.127 A 
ATOM     19  N   UNL     1       0.443  -2.329  -0.141  0.00  0.00    -0.077 NA
ATOM     20  O   UNL     1       0.912  -0.996  -0.128  0.00  0.00    -0.359 OA
BRANCH  18  21
ATOM     21  C   UNL     1      -1.765  -3.490  -0.112  0.00  0.00    +0.023 A 
ATOM     22  C   UNL     1      -3.148  -3.315  -0.079  0.00  0.00    +0.011 A 
ATOM     23  C   UNL     1      -3.980  -4.416  -0.083  0.00  0.00    +0.001 A 
ATOM     24  C   UNL     1      -3.446  -5.691  -0.119  0.00  0.00    +0.001 A 
ATOM     25  C   UNL     1      -2.076  -5.872  -0.151  0.00  0.00    +0.020 A 
ATOM     26  C   UNL     1      -1.232  -4.778  -0.153  0.00  0.00    +0.050 A 
ATOM     27 CL   UNL     1       0.488  -5.006  -0.202  0.00  0.00    -0.083 Cl
ENDBRANCH  18  21
ENDBRANCH   1  17
BRANCH   5  28
ATOM     28  C   UNL     1      -3.540   0.352   4.759  0.00  0.00    +0.218 C 
ATOM     29  O   UNL     1      -3.931  -0.778   4.959  0.00  0.00    -0.275 OA
ATOM     30  N   UNL     1      -3.402   1.210   5.790  0.00  0.00    -0.312 N 
ATOM     31  H   UNL     1      -3.090   2.114   5.630  0.00  0.00    +0.149 HD
BRANCH  30  32
ATOM     32  C   UNL     1      -3.725   0.776   7.151  0.00  0.00    +0.070 C 
ATOM     33  C   UNL     1      -5.224   0.948   7.400  0.00  0.00    +0.028 C 
BRANCH  32  34
ATOM     34  C   UNL     1      -2.941   1.623   8.156  0.00  0.00    +0.022 C 
BRANCH  34  35
ATOM     35  C   UNL     1      -1.444   1.356   7.990  0.00  0.00    +0.005 C 
BRANCH  35  36
ATOM     36  C   UNL     1      -0.660   2.203   8.994  0.00  0.00    +0.034 C 
BRANCH  36  37
ATOM     37  C   UNL     1       0.838   1.936   8.828  0.00  0.00    +0.061 C 
ATOM     38  C   UNL     1       1.613   2.686   9.912  0.00  0.00    +0.041 C 
ATOM     39  C   UNL     1       1.105   0.435   8.956  0.00  0.00    +0.041 C 
BRANCH  37  40
ATOM     40  O   UNL     1       1.262   2.387   7.540  0.00  0.00    -0.389 OA
ATOM     41  H   UNL     1       1.123   3.332   7.388  0.00  0.00    +0.210 HD
ENDBRANCH  37  40
ENDBRANCH  36  37
ENDBRANCH  35  36
ENDBRANCH  34  35
ENDBRANCH  32  34
ENDBRANCH  30  32
ENDBRANCH   5  28
TORSDOF 9
