REMARK  Name = ZINC39361153
REMARK  12 active torsions:
REMARK  status: ('A' for Active; 'I' for Inactive)
REMARK    1  A    between atoms: C_1  and  C_2
REMARK    2  A    between atoms: C_2  and  N_3
REMARK    3  A    between atoms: N_3  and  C_4
REMARK    4  A    between atoms: N_3  and  S_6
REMARK    5  A    between atoms: C_4  and  C_5
REMARK    6  A    between atoms: S_6  and  C_9
REMARK    7  A    between atoms: C_12  and  C_15
REMARK    8  A    between atoms: N_17  and  C_18
REMARK    9  A    between atoms: C_18  and  C_19
REMARK   10  A    between atoms: C_19  and  C_20
REMARK   11  A    between atoms: C_26  and  C_33
REMARK   12  A    between atoms: C_27  and  C_32
REMARK                            x       y       z     vdW  Elec       q    Type
REMARK                         _______ _______ _______ _____ _____    ______ ____
ROOT
ATOM      1  C   UNL     1      -0.855   4.589  -5.746  0.00  0.00    +0.244 C 
ATOM      2  O   UNL     1      -1.883   5.237  -5.722  0.00  0.00    -0.270 OA
ATOM      3  N   UNL     1       0.102   4.876  -6.651  0.00  0.00    -0.311 N 
ATOM      4  H   UNL     1       0.922   4.359  -6.670  0.00  0.00    +0.149 HD
ENDROOT
BRANCH   1   8
ATOM      5  C   UNL     1      -0.276   1.419  -2.979  0.00  0.00    +0.106 A 
ATOM      6  C   UNL     1      -1.448   2.154  -2.949  0.00  0.00    +0.029 A 
ATOM      7  C   UNL     1      -1.642   3.185  -3.844  0.00  0.00    +0.015 A 
ATOM      8  C   UNL     1      -0.653   3.486  -4.783  0.00  0.00    +0.037 A 
ATOM      9  C   UNL     1       0.526   2.740  -4.808  0.00  0.00    +0.015 A 
ATOM     10  C   UNL     1       0.710   1.715  -3.903  0.00  0.00    +0.029 A 
BRANCH   5  11
ATOM     11  S   UNL     1      -0.036   0.103  -1.831  0.00  0.00    +0.061 S 
ATOM     12  O   UNL     1       0.912  -0.779  -2.417  0.00  0.00    -0.153 OA
ATOM     13  O   UNL     1      -1.330  -0.326  -1.430  0.00  0.00    -0.153 OA
BRANCH  11  14
ATOM     14  N   UNL     1       0.685   0.750  -0.489  0.00  0.00    -0.177 NA
BRANCH  14  16
ATOM     15  C   UNL     1      -0.331   2.775   0.434  0.00  0.00    +0.022 C 
ATOM     16  C   UNL     1      -0.137   1.267   0.608  0.00  0.00    +0.106 C 
ENDBRANCH  14  16
BRANCH  14  17
ATOM     17  C   UNL     1       2.146   0.806  -0.398  0.00  0.00    +0.106 C 
ATOM     18  C   UNL     1       2.657  -0.417   0.366  0.00  0.00    +0.022 C 
ENDBRANCH  14  17
ENDBRANCH  11  14
ENDBRANCH   5  11
ENDBRANCH   1   8
BRANCH   3  19
ATOM     19  C   UNL     1      -0.098   5.970  -7.606  0.00  0.00    +0.105 C 
BRANCH  19  20
ATOM     20  C   UNL     1       1.128   6.084  -8.514  0.00  0.00    +0.035 C 
BRANCH  20  21
ATOM     21  C   UNL     1       0.920   7.226  -9.511  0.00  0.00    +0.100 C 
ATOM     22  C   UNL     1       2.230   7.451 -10.240  0.00  0.00    -0.005 C 
ATOM     23  C   UNL     1       2.216   7.338 -11.599  0.00  0.00    -0.007 A 
ATOM     24  C   UNL     1       3.436   7.541 -12.381  0.00  0.00    +0.010 A 
ATOM     25  C   UNL     1       3.375   7.418 -13.732  0.00  0.00    +0.004 A 
ATOM     26  C   UNL     1       2.179   7.107 -14.380  0.00  0.00    -0.046 A 
ATOM     27  C   UNL     1       1.014   6.907 -13.712  0.00  0.00    -0.026 A 
ATOM     28  C   UNL     1       0.968   7.010 -12.309  0.00  0.00    +0.043 A 
ATOM     29  N   UNL     1      -0.181   6.811 -11.664  0.00  0.00    -0.284 N 
ATOM     30  C   UNL     1      -0.294   6.894 -10.349  0.00  0.00    +0.224 C 
ATOM     31  O   UNL     1      -1.370   6.702  -9.816  0.00  0.00    -0.275 OA
ATOM     32  C   UNL     1      -0.240   6.573 -14.478  0.00  0.00    +0.046 C 
ATOM     33  C   UNL     1       2.181   6.987 -15.883  0.00  0.00    +0.044 C 
ATOM     34  H   UNL     1      -0.972   6.597 -12.183  0.00  0.00    +0.155 HD
ENDBRANCH  20  21
ENDBRANCH  19  20
ENDBRANCH   3  19
TORSDOF 8
