REMARK  Name = ZINC13060323
REMARK  15 active torsions:
REMARK  status: ('A' for Active; 'I' for Inactive)
REMARK    1  A    between atoms: C_1  and  C_2
REMARK    2  A    between atoms: C_2  and  N_3
REMARK    3  A    between atoms: N_3  and  C_4
REMARK    4  A    between atoms: N_3  and  C_6
REMARK    5  A    between atoms: C_4  and  C_5
REMARK    6  A    between atoms: C_9  and  C_12
REMARK    7  A    between atoms: C_14  and  C_29
REMARK    8  A    between atoms: C_15  and  C_28
REMARK    9  A    between atoms: N_16  and  C_20
REMARK   10  A    between atoms: C_23  and  C_26
REMARK   11  A    between atoms: C_29  and  O_31
REMARK   12  A    between atoms: O_31  and  C_32
REMARK   13  A    between atoms: C_32  and  C_33
REMARK   14  A    between atoms: C_33  and  O_34
REMARK   15  A    between atoms: O_34  and  C_35
REMARK                            x       y       z     vdW  Elec       q    Type
REMARK                         _______ _______ _______ _____ _____    ______ ____
ROOT
ATOM      1  C   UNL     1       1.025   2.064   0.107  0.00  0.00    +0.144 C 
ATOM      2  C   UNL     1       0.146   1.188  -0.763  0.00  0.00    +0.078 C 
ATOM      3  C   UNL     1       0.420  -0.134  -0.803  0.00  0.00    +0.029 C 
ATOM      4  N   UNL     1       1.456  -0.662  -0.083  0.00  0.00    -0.228 N 
ATOM      5  C   UNL     1       2.262   0.066   0.701  0.00  0.00    +0.311 C 
ATOM      6  O   UNL     1       3.157  -0.493   1.304  0.00  0.00    -0.252 OA
ATOM      7  N   UNL     1       2.113   1.398   0.843  0.00  0.00    -0.288 N 
ATOM      8  C   UNL     1      -0.428  -1.041  -1.657  0.00  0.00    +0.062 C 
ATOM      9  H   UNL     1       2.708   1.906   1.415  0.00  0.00    +0.151 HD
ENDROOT
BRANCH   1  13
ATOM     10  C   UNL     1      -1.484   4.025   2.958  0.00  0.00    +0.030 A 
ATOM     11  C   UNL     1      -1.061   4.702   1.821  0.00  0.00    +0.023 A 
ATOM     12  C   UNL     1      -0.250   4.066   0.902  0.00  0.00    +0.007 A 
ATOM     13  C   UNL     1       0.140   2.756   1.112  0.00  0.00    -0.022 A 
ATOM     14  C   UNL     1      -0.284   2.077   2.240  0.00  0.00    +0.007 A 
ATOM     15  C   UNL     1      -1.091   2.710   3.166  0.00  0.00    +0.023 A 
BRANCH  10  16
ATOM     16  N   UNL     1      -2.305   4.666   3.889  0.00  0.00    -0.330 N 
BRANCH  16  18
ATOM     17  C   UNL     1      -1.738   4.164   6.215  0.00  0.00    +0.024 C 
ATOM     18  C   UNL     1      -2.750   3.951   5.087  0.00  0.00    +0.102 C 
ENDBRANCH  16  18
BRANCH  16  19
ATOM     19  C   UNL     1      -2.719   6.054   3.667  0.00  0.00    +0.102 C 
ATOM     20  C   UNL     1      -4.031   6.074   2.880  0.00  0.00    +0.024 C 
ENDBRANCH  16  19
ENDBRANCH  10  16
ENDBRANCH   1  13
BRANCH   4  21
ATOM     21  C   UNL     1       1.685  -2.036  -0.168  0.00  0.00    +0.043 A 
ATOM     22  C   UNL     1       2.541  -2.538  -1.144  0.00  0.00    +0.025 A 
ATOM     23  C   UNL     1       2.773  -3.892  -1.229  0.00  0.00    +0.017 A 
ATOM     24  C   UNL     1       2.140  -4.765  -0.339  0.00  0.00    +0.063 A 
ATOM     25  C   UNL     1       1.277  -4.258   0.637  0.00  0.00    +0.017 A 
ATOM     26  C   UNL     1       1.054  -2.902   0.719  0.00  0.00    +0.025 A 
BRANCH  24  27
ATOM     27  C   UNL     1       2.382  -6.217  -0.430  0.00  0.00    +0.387 C 
ATOM     28  O   UNL     1       1.832  -6.974   0.345  0.00  0.00    -0.241 OA
ATOM     29  O   UNL     1       3.215  -6.703  -1.371  0.00  0.00    -0.241 OA
ENDBRANCH  24  27
ENDBRANCH   4  21
BRANCH   2  30
ATOM     30  C   UNL     1      -0.921   1.737  -1.512  0.00  0.00    +0.339 C 
ATOM     31  O   UNL     1      -1.677   1.003  -2.121  0.00  0.00    -0.245 OA
BRANCH  30  32
ATOM     32  O   UNL     1      -1.100   3.074  -1.552  0.00  0.00    -0.459 OA
BRANCH  32  33
ATOM     33  C   UNL     1      -2.198   3.558  -2.328  0.00  0.00    +0.260 C 
BRANCH  33  34
ATOM     34  C   UNL     1      -2.240   5.086  -2.254  0.00  0.00    +0.200 C 
BRANCH  34  35
ATOM     35  O   UNL     1      -1.071   5.625  -2.874  0.00  0.00    -0.380 OA
ATOM     36  C   UNL     1      -1.011   7.053  -2.858  0.00  0.00    +0.194 C 
ENDBRANCH  34  35
ENDBRANCH  33  34
ENDBRANCH  32  33
ENDBRANCH  30  32
ENDBRANCH   2  30
TORSDOF 11
