REMARK  Name = ZINC02751061
REMARK  12 active torsions:
REMARK  status: ('A' for Active; 'I' for Inactive)
REMARK    1  A    between atoms: C_1  and  C_2
REMARK    2  A    between atoms: C_2  and  C_3
REMARK    3  A    between atoms: C_3  and  C_5
REMARK    4  A    between atoms: C_3  and  S_19
REMARK    5  A    between atoms: C_10  and  C_18
REMARK    6  A    between atoms: C_11  and  C_13
REMARK    7  A    between atoms: C_13  and  O_15
REMARK    8  A    between atoms: O_15  and  C_16
REMARK    9  A    between atoms: C_16  and  C_17
REMARK   10  A    between atoms: S_19  and  C_20
REMARK   11  A    between atoms: N_30  and  C_31
REMARK   12  A    between atoms: C_31  and  C_32
REMARK                            x       y       z     vdW  Elec       q    Type
REMARK                         _______ _______ _______ _____ _____    ______ ____
ROOT
ATOM      1  C   UNL     1       0.605  -0.500  -1.314  0.00  0.00    +0.140 C 
ENDROOT
BRANCH   1   2
ATOM      2  C   UNL     1       0.477  -1.998  -1.213  0.00  0.00    +0.232 C 
ATOM      3  O   UNL     1      -0.463  -2.563  -1.730  0.00  0.00    -0.274 OA
ATOM      4  N   UNL     1       1.407  -2.711  -0.548  0.00  0.00    -0.264 N 
ATOM      5  C   UNL     1       1.290  -4.087  -0.455  0.00  0.00    +0.165 A 
ATOM      6  N   UNL     1       2.096  -4.936   0.155  0.00  0.00    -0.229 NA
ATOM      7  C   UNL     1       1.857  -6.223   0.160  0.00  0.00    +0.062 A 
ATOM      8  C   UNL     1       0.714  -6.640  -0.509  0.00  0.00    +0.120 A 
ATOM      9  S   UNL     1       0.082  -5.073  -1.088  0.00  0.00    -0.045 S 
ATOM     10  C   UNL     1       2.772  -7.199   0.854  0.00  0.00    +0.067 C 
ATOM     11  H   UNL     1       2.160  -2.260  -0.134  0.00  0.00    +0.157 HD
BRANCH   8  12
ATOM     12  C   UNL     1       0.175  -7.987  -0.686  0.00  0.00    +0.348 C 
ATOM     13  O   UNL     1       0.755  -8.942  -0.206  0.00  0.00    -0.244 OA
BRANCH  12  14
ATOM     14  O   UNL     1      -0.966  -8.171  -1.382  0.00  0.00    -0.461 OA
BRANCH  14  15
ATOM     15  C   UNL     1      -1.436  -9.514  -1.516  0.00  0.00    +0.229 C 
ATOM     16  C   UNL     1      -2.731  -9.523  -2.330  0.00  0.00    +0.048 C 
ENDBRANCH  14  15
ENDBRANCH  12  14
ENDBRANCH   8  12
ENDBRANCH   1   2
BRANCH   1  18
ATOM     17  C   UNL     1       0.374   1.649  -0.061  0.00  0.00    +0.005 C 
ATOM     18  C   UNL     1       0.113   0.142  -0.015  0.00  0.00    +0.020 C 
ENDBRANCH   1  18
BRANCH   1  19
ATOM     19  S   UNL     1      -0.396   0.100  -2.702  0.00  0.00    -0.072 S 
BRANCH  19  20
ATOM     20  C   UNL     1       0.418  -0.545  -4.125  0.00  0.00    +0.212 A 
ATOM     21  N   UNL     1      -0.124  -0.365  -5.323  0.00  0.00    -0.201 NA
ATOM     22  C   UNL     1       0.492  -0.852  -6.395  0.00  0.00    +0.165 A 
ATOM     23  C   UNL     1       1.706  -1.546  -6.213  0.00  0.00    +0.138 A 
ATOM     24  C   UNL     1       2.150  -1.963  -7.554  0.00  0.00    +0.029 A 
ATOM     25  C   UNL     1       3.255  -2.669  -8.024  0.00  0.00    +0.012 A 
ATOM     26  C   UNL     1       3.392  -2.907  -9.374  0.00  0.00    +0.001 A 
ATOM     27  C   UNL     1       2.435  -2.447 -10.265  0.00  0.00    +0.002 A 
ATOM     28  C   UNL     1       1.336  -1.747  -9.814  0.00  0.00    +0.026 A 
ATOM     29  C   UNL     1       1.180  -1.496  -8.455  0.00  0.00    +0.053 A 
ATOM     30  N   UNL     1       0.198  -0.834  -7.736  0.00  0.00    -0.320 N 
ATOM     31  N   UNL     1       2.196  -1.691  -4.990  0.00  0.00    -0.143 NA
ATOM     32  N   UNL     1       1.566  -1.198  -3.979  0.00  0.00    -0.122 NA
BRANCH  30  33
ATOM     33  C   UNL     1      -0.987  -0.205  -8.324  0.00  0.00    +0.150 C 
BRANCH  33  34
ATOM     34  C   UNL     1      -0.677   1.229  -8.668  0.00  0.00    -0.013 C 
ATOM     35  C   UNL     1      -0.868   1.666  -9.888  0.00  0.00    +0.005 C 
ENDBRANCH  33  34
ENDBRANCH  30  33
ENDBRANCH  19  20
ENDBRANCH   1  19
TORSDOF 9
