REMARK  Name = ZINC45313853
REMARK  10 active torsions:
REMARK  status: ('A' for Active; 'I' for Inactive)
REMARK    1  A    between atoms: C_1  and  C_2
REMARK    2  A    between atoms: C_2  and  O_3
REMARK    3  A    between atoms: O_3  and  C_4
REMARK    4  A    between atoms: C_4  and  C_6
REMARK    5  A    between atoms: C_7  and  C_33
REMARK    6  A    between atoms: C_12  and  C_16
REMARK    7  A    between atoms: C_16  and  C_18
REMARK    8  A    between atoms: C_16  and  N_19
REMARK    9  A    between atoms: N_22  and  C_25
REMARK   10  A    between atoms: C_25  and  C_26
REMARK                            x       y       z     vdW  Elec       q    Type
REMARK                         _______ _______ _______ _____ _____    ______ ____
ROOT
ATOM      1  C   UNL     1       1.935  -2.365   2.232  0.00  0.00    +0.102 A 
ATOM      2  C   UNL     1       2.023  -3.673   2.615  0.00  0.00    -0.015 A 
ATOM      3  C   UNL     1       2.638  -3.937   3.844  0.00  0.00    +0.076 A 
ATOM      4  C   UNL     1       2.873  -5.243   4.509  0.00  0.00    +0.282 A 
ATOM      5  O   UNL     1       2.512  -6.281   3.980  0.00  0.00    -0.265 OA
ATOM      6  N   UNL     1       3.490  -5.264   5.700  0.00  0.00    -0.197 NA
ATOM      7  C   UNL     1       3.891  -4.177   6.296  0.00  0.00    +0.098 A 
ATOM      8  N   UNL     1       3.712  -2.956   5.755  0.00  0.00    -0.339 N 
ATOM      9  C   UNL     1       3.099  -2.815   4.549  0.00  0.00    +0.092 A 
ATOM     10  S   UNL     1       2.717  -1.507   3.583  0.00  0.00    -0.064 S 
ATOM     11  C   UNL     1       1.481  -4.783   1.752  0.00  0.00    +0.046 C 
ATOM     12  H   UNL     1       4.024  -2.169   6.229  0.00  0.00    +0.167 HD
ENDROOT
BRANCH   1  13
ATOM     13  C   UNL     1       1.349  -1.807   1.011  0.00  0.00    +0.346 C 
ATOM     14  O   UNL     1       0.851  -2.546   0.183  0.00  0.00    -0.244 OA
BRANCH  13  15
ATOM     15  O   UNL     1       1.361  -0.474   0.805  0.00  0.00    -0.461 OA
BRANCH  15  17
ATOM     16  C   UNL     1       0.879   1.526  -0.463  0.00  0.00    +0.048 C 
ATOM     17  C   UNL     1       0.772   0.001  -0.407  0.00  0.00    +0.229 C 
ENDBRANCH  15  17
ENDBRANCH  13  15
ENDBRANCH   1  13
BRANCH   7  18
ATOM     18  C   UNL     1       4.576  -4.288   7.634  0.00  0.00    -0.004 C 
ATOM     19  C   UNL     1       5.922  -3.562   7.580  0.00  0.00    -0.005 C 
BRANCH  18  20
ATOM     20  N   UNL     1       4.797  -5.705   7.955  0.00  0.00    +0.388 N 
ATOM     21  C   UNL     1       5.761  -6.277   7.006  0.00  0.00    -0.062 C 
ATOM     22  C   UNL     1       5.977  -7.757   7.328  0.00  0.00    +0.066 C 
ATOM     23  N   UNL     1       6.479  -7.888   8.703  0.00  0.00    -0.302 NA
ATOM     24  C   UNL     1       5.535  -7.298   9.662  0.00  0.00    +0.066 C 
ATOM     25  C   UNL     1       5.323  -5.821   9.321  0.00  0.00    -0.062 C 
ATOM     26  H   UNL     1       3.923  -6.205   7.888  0.00  0.00    -0.081 HD
BRANCH  23  27
ATOM     27  C   UNL     1       6.753  -9.294   9.031  0.00  0.00    +0.119 C 
BRANCH  27  28
ATOM     28  C   UNL     1       7.490  -9.368  10.344  0.00  0.00    -0.033 A 
ATOM     29  C   UNL     1       8.872  -9.330  10.363  0.00  0.00    +0.006 A 
ATOM     30  C   UNL     1       9.549  -9.398  11.566  0.00  0.00    +0.020 A 
ATOM     31  C   UNL     1       8.843  -9.506  12.752  0.00  0.00    +0.041 A 
ATOM     32  C   UNL     1       7.460  -9.544  12.731  0.00  0.00    +0.020 A 
ATOM     33  C   UNL     1       6.784  -9.470  11.528  0.00  0.00    +0.006 A 
ATOM     34 CL   UNL     1       9.692  -9.592  14.263  0.00  0.00    -0.084 Cl
ENDBRANCH  27  28
ENDBRANCH  23  27
ENDBRANCH  18  20
ENDBRANCH   7  18
TORSDOF 7
