REMARK  Name = ZINC40844732
REMARK  6 active torsions:
REMARK  status: ('A' for Active; 'I' for Inactive)
REMARK    1  A    between atoms: C_1  and  O_2
REMARK    2  A    between atoms: O_2  and  C_3
REMARK    3  A    between atoms: C_3  and  C_5
REMARK    4  A    between atoms: C_9  and  N_10
REMARK    5  A    between atoms: N_13  and  N_14
REMARK    6  A    between atoms: C_15  and  C_16
REMARK                            x       y       z     vdW  Elec       q    Type
REMARK                         _______ _______ _______ _____ _____    ______ ____
ROOT
ATOM      1  N   UNL     1       2.828  -2.275   0.085  0.00  0.00    -0.262 N 
ATOM      2  C   UNL     1       3.769  -3.119   0.553  0.00  0.00    +0.324 C 
ATOM      3  O   UNL     1       3.644  -4.318   0.394  0.00  0.00    -0.251 OA
ATOM      4  N   UNL     1       4.849  -2.633   1.197  0.00  0.00    -0.191 N 
ATOM      5  H   UNL     1       2.928  -1.319   0.211  0.00  0.00    +0.157 HD
ATOM      6  H   UNL     1       5.526  -3.240   1.534  0.00  0.00    +0.179 HD
ENDROOT
BRANCH   1  11
ATOM      7  C   UNL     1       0.659  -2.063  -1.123  0.00  0.00    +0.091 A 
ATOM      8  C   UNL     1      -0.389  -2.830  -1.776  0.00  0.00    -0.021 A 
ATOM      9  C   UNL     1      -0.188  -4.165  -1.760  0.00  0.00    -0.004 A 
ATOM     10  S   UNL     1       1.345  -4.379  -0.903  0.00  0.00    -0.077 S 
ATOM     11  C   UNL     1       1.718  -2.774  -0.578  0.00  0.00    +0.088 A 
ATOM     12  C   UNL     1      -1.080  -5.216  -2.344  0.00  0.00    +0.043 C 
ATOM     13  C   UNL     1      -2.447  -4.580  -2.636  0.00  0.00    +0.005 C 
ATOM     14  C   UNL     1      -2.231  -3.260  -3.380  0.00  0.00    +0.005 C 
ATOM     15  C   UNL     1      -1.619  -2.224  -2.434  0.00  0.00    +0.037 C 
BRANCH   7  16
ATOM     16  C   UNL     1       0.601  -0.603  -1.048  0.00  0.00    +0.342 C 
ATOM     17  O   UNL     1       1.094   0.071  -1.933  0.00  0.00    -0.245 OA
BRANCH  16  19
ATOM     18  C   UNL     1      -0.017   1.425   0.010  0.00  0.00    +0.280 C 
ATOM     19  O   UNL     1       0.002  -0.004   0.002  0.00  0.00    -0.464 OA
ENDBRANCH  16  19
ENDBRANCH   7  16
ENDBRANCH   1  11
BRANCH   4  20
ATOM     20  N   UNL     1       4.993  -1.252   1.380  0.00  0.00    -0.186 NA
ATOM     21  C   UNL     1       6.033  -0.784   2.000  0.00  0.00    +0.141 C 
BRANCH  21  22
ATOM     22  C   UNL     1       6.184   0.670   2.192  0.00  0.00    +0.031 A 
ATOM     23  C   UNL     1       5.207   1.548   1.713  0.00  0.00    +0.051 A 
ATOM     24  C   UNL     1       5.356   2.908   1.897  0.00  0.00    +0.021 A 
ATOM     25  C   UNL     1       6.469   3.403   2.554  0.00  0.00    +0.003 A 
ATOM     26  C   UNL     1       7.440   2.540   3.031  0.00  0.00    +0.021 A 
ATOM     27  C   UNL     1       7.303   1.177   2.860  0.00  0.00    +0.051 A 
ATOM     28 CL   UNL     1       8.519   0.097   3.466  0.00  0.00    -0.083 Cl
ATOM     29 CL   UNL     1       3.811   0.929   0.888  0.00  0.00    -0.083 Cl
ENDBRANCH  21  22
ENDBRANCH   4  20
TORSDOF 5
