REMARK  Name = ZINC08839115
REMARK  4 active torsions:
REMARK  status: ('A' for Active; 'I' for Inactive)
REMARK    1  A    between atoms: C_4  and  N_7
REMARK    2  A    between atoms: C_9  and  C_14
REMARK    3  A    between atoms: C_14  and  N_15
REMARK    4  A    between atoms: N_18  and  C_19
REMARK                            x       y       z     vdW  Elec       q    Type
REMARK                         _______ _______ _______ _____ _____    ______ ____
ROOT
ATOM      1  C   UNL     1       3.643   1.370   0.025  0.00  0.00    +0.152 C 
ENDROOT
BRANCH   1   4
ATOM      2  N   UNL     1       6.807   0.395  -0.971  0.00  0.00    -0.234 N 
ATOM      3  C   UNL     1       6.116   0.905   0.224  0.00  0.00    +0.163 C 
ATOM      4  C   UNL     1       4.711   0.279   0.129  0.00  0.00    +0.213 C 
ATOM      5  O   UNL     1       4.757  -0.509  -1.095  0.00  0.00    -0.444 OA
ATOM      6  C   UNL     1       5.967  -0.393  -1.655  0.00  0.00    +0.408 C 
ATOM      7  O   UNL     1       6.275  -0.950  -2.690  0.00  0.00    -0.226 OA
BRANCH   2  11
ATOM      8  C   UNL     1      10.737   1.261  -2.049  0.00  0.00    +0.000 A 
ATOM      9  C   UNL     1       9.971   0.429  -2.845  0.00  0.00    +0.002 A 
ATOM     10  C   UNL     1       8.667   0.141  -2.490  0.00  0.00    +0.023 A 
ATOM     11  C   UNL     1       8.127   0.686  -1.333  0.00  0.00    +0.040 A 
ATOM     12  C   UNL     1       8.898   1.525  -0.539  0.00  0.00    +0.023 A 
ATOM     13  C   UNL     1      10.202   1.806  -0.897  0.00  0.00    +0.002 A 
ENDBRANCH   2  11
ENDBRANCH   1   4
BRANCH   1  14
ATOM     14  N   UNL     1       2.313   0.756   0.057  0.00  0.00    -0.296 N 
ATOM     15  C   UNL     1       1.212   1.530  -0.022  0.00  0.00    +0.304 C 
ATOM     16  O   UNL     1       1.323   2.737  -0.120  0.00  0.00    -0.253 OA
ATOM     17  N   UNL     1      -0.011   0.966   0.007  0.00  0.00    -0.267 N 
ATOM     18  H   UNL     1       2.225  -0.206   0.135  0.00  0.00    +0.150 HD
ATOM     19  H   UNL     1      -0.100   0.000   0.020  0.00  0.00    +0.156 HD
BRANCH  17  20
ATOM     20  C   UNL     1      -1.155   1.774   0.013  0.00  0.00    +0.070 A 
ATOM     21  C   UNL     1      -1.164   2.972  -0.688  0.00  0.00    +0.026 A 
ATOM     22  C   UNL     1      -2.296   3.764  -0.685  0.00  0.00    +0.002 A 
ATOM     23  C   UNL     1      -3.416   3.372   0.025  0.00  0.00    +0.003 A 
ATOM     24  C   UNL     1      -3.409   2.183   0.730  0.00  0.00    +0.040 A 
ATOM     25  C   UNL     1      -2.282   1.381   0.727  0.00  0.00    +0.145 A 
ATOM     26  F   UNL     1      -2.276   0.219   1.415  0.00  0.00    -0.204 F 
ENDBRANCH  17  20
ENDBRANCH   1  14
TORSDOF 4
