REMARK  Name = ZINC02868650
REMARK  7 active torsions:
REMARK  status: ('A' for Active; 'I' for Inactive)
REMARK    1  A    between atoms: C_3  and  S_17
REMARK    2  A    between atoms: C_6  and  C_7
REMARK    3  A    between atoms: C_7  and  O_8
REMARK    4  A    between atoms: O_8  and  C_9
REMARK    5  A    between atoms: C_9  and  C_11
REMARK    6  A    between atoms: S_17  and  C_18
REMARK    7  A    between atoms: C_21  and  N_24
REMARK                            x       y       z     vdW  Elec       q    Type
REMARK                         _______ _______ _______ _____ _____    ______ ____
ROOT
ATOM      1  C   UNL     1       6.570   2.353  -1.210  0.00  0.00    +0.008 A 
ATOM      2  C   UNL     1       7.649   3.215  -1.233  0.00  0.00    +0.015 A 
ATOM      3  C   UNL     1       8.211   3.654  -0.040  0.00  0.00    +0.013 A 
ATOM      4  C   UNL     1       7.681   3.227   1.172  0.00  0.00    +0.015 A 
ATOM      5  C   UNL     1       6.599   2.369   1.187  0.00  0.00    +0.008 A 
ATOM      6  C   UNL     1       6.043   1.934  -0.002  0.00  0.00    -0.010 A 
ENDROOT
BRANCH   6   7
ATOM      7  C   UNL     1       4.862   0.998   0.019  0.00  0.00    +0.268 C 
BRANCH   7   8
ATOM      8  O   UNL     1       3.632   1.769   0.031  0.00  0.00    -0.455 OA
BRANCH   8   9
ATOM      9  C   UNL     1       2.477   1.078   0.050  0.00  0.00    +0.360 C 
ATOM     10  O   UNL     1       2.496  -0.136   0.056  0.00  0.00    -0.243 OA
BRANCH   9  11
ATOM     11  C   UNL     1       1.183   1.798   0.064  0.00  0.00    +0.166 A 
ATOM     12  C   UNL     1      -0.015   1.084   0.084  0.00  0.00    +0.145 A 
ATOM     13  N   UNL     1      -1.166   1.731   0.090  0.00  0.00    -0.259 NA
ATOM     14  C   UNL     1      -1.183   3.052   0.088  0.00  0.00    +0.130 A 
ATOM     15  C   UNL     1       0.007   3.765   0.069  0.00  0.00    +0.131 A 
ATOM     16  N   UNL     1       1.160   3.128   0.057  0.00  0.00    -0.245 NA
ENDBRANCH   9  11
ENDBRANCH   8   9
ENDBRANCH   7   8
ENDBRANCH   6   7
BRANCH   3  17
ATOM     17  S   UNL     1       9.591   4.749  -0.064  0.00  0.00    -0.089 S 
BRANCH  17  18
ATOM     18  C   UNL     1      10.985   3.680   0.067  0.00  0.00    +0.013 A 
ATOM     19  C   UNL     1      10.811   2.301   0.047  0.00  0.00    +0.017 A 
ATOM     20  C   UNL     1      11.906   1.467   0.145  0.00  0.00    +0.034 A 
ATOM     21  C   UNL     1      13.175   2.001   0.273  0.00  0.00    +0.126 A 
ATOM     22  C   UNL     1      13.353   3.372   0.298  0.00  0.00    +0.034 A 
ATOM     23  C   UNL     1      12.262   4.213   0.196  0.00  0.00    +0.017 A 
BRANCH  21  24
ATOM     24  N   UNL     1      14.347   1.103   0.384  0.00  0.00    +0.056 N 
ATOM     25  O   UNL     1      15.466   1.572   0.496  0.00  0.00    -0.126 OA
ATOM     26  O   UNL     1      14.193  -0.105   0.362  0.00  0.00    -0.126 OA
ENDBRANCH  21  24
ENDBRANCH  17  18
ENDBRANCH   3  17
TORSDOF 7
