REMARK  Name = ZINC18663685
REMARK  8 active torsions:
REMARK  status: ('A' for Active; 'I' for Inactive)
REMARK    1  A    between atoms: C_1  and  C_2
REMARK    2  A    between atoms: C_2  and  C_3
REMARK    3  A    between atoms: C_2  and  C_4
REMARK    4  A    between atoms: C_4  and  N_5
REMARK    5  A    between atoms: C_9  and  S_11
REMARK    6  A    between atoms: S_11  and  C_12
REMARK    7  A    between atoms: C_12  and  C_13
REMARK    8  A    between atoms: N_15  and  C_16
REMARK                            x       y       z     vdW  Elec       q    Type
REMARK                         _______ _______ _______ _____ _____    ______ ____
ROOT
ATOM      1  C   UNL     1       3.590   6.110   0.676  0.00  0.00    +0.227 C 
ATOM      2  O   UNL     1       4.634   5.553   0.413  0.00  0.00    -0.275 OA
ATOM      3  N   UNL     1       2.426   5.437   0.586  0.00  0.00    -0.284 N 
ATOM      4  H   UNL     1       1.586   5.900   0.732  0.00  0.00    +0.155 HD
ENDROOT
BRANCH   3   5
ATOM      5  C   UNL     1       2.429   4.080   0.285  0.00  0.00    +0.045 A 
ATOM      6  C   UNL     1       3.382   3.557  -0.589  0.00  0.00    +0.024 A 
ATOM      7  C   UNL     1       3.389   2.212  -0.891  0.00  0.00    +0.003 A 
ATOM      8  C   UNL     1       2.449   1.358  -0.332  0.00  0.00    +0.012 A 
ATOM      9  C   UNL     1       1.491   1.857   0.542  0.00  0.00    +0.035 A 
ATOM     10  C   UNL     1       1.476   3.230   0.856  0.00  0.00    +0.054 A 
ATOM     11  C   UNL     1       0.457   3.759   1.781  0.00  0.00    +0.196 C 
ATOM     12  O   UNL     1       0.575   4.872   2.255  0.00  0.00    -0.287 OA
ATOM     13  C   UNL     1      -0.711   2.918   2.127  0.00  0.00    +0.033 A 
ATOM     14  C   UNL     1      -1.820   3.472   2.756  0.00  0.00    +0.012 A 
ATOM     15  C   UNL     1      -2.914   2.671   3.054  0.00  0.00    +0.001 A 
ATOM     16  C   UNL     1      -2.900   1.322   2.747  0.00  0.00    +0.001 A 
ATOM     17  C   UNL     1      -1.801   0.755   2.127  0.00  0.00    +0.012 A 
ATOM     18  C   UNL     1      -0.701   1.546   1.809  0.00  0.00    +0.033 A 
ATOM     19  C   UNL     1       0.483   0.958   1.145  0.00  0.00    +0.195 C 
ATOM     20  O   UNL     1       0.623  -0.247   1.092  0.00  0.00    -0.287 OA
ENDBRANCH   3   5
BRANCH   1  21
ATOM     21  C   UNL     1       3.594   7.555   1.105  0.00  0.00    +0.172 C 
BRANCH  21  22
ATOM     22  S   UNL     1       5.299   8.174   1.128  0.00  0.00    -0.088 S 
BRANCH  22  27
ATOM     23  N   UNL     1       5.657  13.730   2.745  0.00  0.00    -0.322 N 
ATOM     24  C   UNL     1       5.330  12.427   2.389  0.00  0.00    +0.182 A 
ATOM     25  N   UNL     1       4.146  11.849   2.328  0.00  0.00    -0.125 NA
ATOM     26  N   UNL     1       4.047  10.531   1.946  0.00  0.00    -0.133 NA
ATOM     27  C   UNL     1       5.136   9.852   1.642  0.00  0.00    +0.160 A 
ATOM     28  S   UNL     1       6.402  11.086   1.897  0.00  0.00    -0.025 S 
ATOM     29  H   UNL     1       6.583  14.016   2.742  0.00  0.00    +0.148 HD
BRANCH  23  30
ATOM     30  C   UNL     1       4.601  14.672   3.125  0.00  0.00    +0.106 C 
BRANCH  30  32
ATOM     31  C   UNL     1       4.116  17.044   3.744  0.00  0.00    +0.009 C 
ATOM     32  C   UNL     1       5.225  16.026   3.468  0.00  0.00    -0.000 C 
ATOM     33  C   UNL     1       6.105  15.882   4.712  0.00  0.00    +0.009 C 
ENDBRANCH  30  32
ENDBRANCH  23  30
ENDBRANCH  22  27
ENDBRANCH  21  22
ENDBRANCH   1  21
TORSDOF 6
