REMARK  Name = ZINC08963385
REMARK  7 active torsions:
REMARK  status: ('A' for Active; 'I' for Inactive)
REMARK    1  A    between atoms: C_1  and  N_2
REMARK    2  A    between atoms: C_9  and  C_11
REMARK    3  A    between atoms: C_11  and  C_13
REMARK    4  A    between atoms: C_11  and  N_55
REMARK    5  A    between atoms: C_13  and  N_14
REMARK    6  A    between atoms: C_15  and  C_17
REMARK    7  A    between atoms: C_20  and  N_24
REMARK                            x       y       z     vdW  Elec       q    Type
REMARK                         _______ _______ _______ _____ _____    ______ ____
ROOT
ATOM      1  C   UNL     1      -3.316   6.102  -1.090  0.00  0.00    -0.020 C 
ENDROOT
BRANCH   1  10
ATOM      2  C   UNL     1       0.390   1.655   1.791  0.00  0.00    +0.129 C 
ATOM      3  N   UNL     1      -0.543   1.477   0.671  0.00  0.00    -0.332 N 
ATOM      4  C   UNL     1       0.177   1.093  -0.563  0.00  0.00    +0.109 C 
ATOM      5  C   UNL     1      -0.694   1.716  -1.677  0.00  0.00    +0.056 C 
ATOM      6  C   UNL     1      -1.379   2.866  -0.965  0.00  0.00    -0.025 A 
ATOM      7  C   UNL     1      -1.247   2.661   0.404  0.00  0.00    +0.033 A 
ATOM      8  C   UNL     1      -1.792   3.593   1.284  0.00  0.00    +0.023 A 
ATOM      9  C   UNL     1      -2.457   4.700   0.799  0.00  0.00    +0.004 A 
ATOM     10  C   UNL     1      -2.587   4.892  -0.564  0.00  0.00    -0.059 A 
ATOM     11  C   UNL     1      -2.046   3.973  -1.445  0.00  0.00    +0.007 A 
ENDBRANCH   1  10
BRANCH   1  16
ATOM     12  C   UNL     1      -1.510   7.540  -0.317  0.00  0.00    -0.078 C 
ATOM     13  C   UNL     1      -1.408   9.025   0.114  0.00  0.00    -0.020 C 
ATOM     14  C   UNL     1      -2.648   9.665  -0.553  0.00  0.00    -0.020 C 
ATOM     15  C   UNL     1      -3.619   8.495  -0.801  0.00  0.00    -0.078 C 
ATOM     16  N   UNL     1      -2.961   7.300  -0.271  0.00  0.00    +0.385 N 
ATOM     17  H   UNL     1      -3.257   7.144   0.700  0.00  0.00    -0.081 HD
ENDBRANCH   1  16
BRANCH   1  18
ATOM     18  C   UNL     1      -4.825   5.858  -1.020  0.00  0.00    +0.094 C 
BRANCH  18  19
ATOM     19  N   UNL     1      -5.188   4.773  -1.934  0.00  0.00    -0.313 N 
ATOM     20  C   UNL     1      -6.483   4.446  -2.112  0.00  0.00    +0.245 C 
ATOM     21  O   UNL     1      -7.351   5.051  -1.513  0.00  0.00    -0.270 OA
ATOM     22  H   UNL     1      -4.496   4.290  -2.412  0.00  0.00    +0.149 HD
BRANCH  20  23
ATOM     23  C   UNL     1      -6.849   3.351  -3.035  0.00  0.00    +0.055 A 
ATOM     24  C   UNL     1      -5.855   2.654  -3.724  0.00  0.00    +0.017 A 
ATOM     25  C   UNL     1      -6.203   1.633  -4.584  0.00  0.00    +0.033 A 
ATOM     26  C   UNL     1      -7.534   1.299  -4.765  0.00  0.00    +0.128 A 
ATOM     27  C   UNL     1      -8.524   1.985  -4.086  0.00  0.00    +0.053 A 
ATOM     28  C   UNL     1      -8.190   3.006  -3.217  0.00  0.00    +0.055 A 
ATOM     29 CL   UNL     1      -9.434   3.861  -2.359  0.00  0.00    -0.083 Cl
BRANCH  26  30
ATOM     30  N   UNL     1      -7.899   0.202  -5.689  0.00  0.00    +0.056 N 
ATOM     31  O   UNL     1      -7.029  -0.405  -6.288  0.00  0.00    -0.126 OA
ATOM     32  O   UNL     1      -9.069  -0.095  -5.850  0.00  0.00    -0.126 OA
ENDBRANCH  26  30
ENDBRANCH  20  23
ENDBRANCH  18  19
ENDBRANCH   1  18
TORSDOF 6
