REMARK  Name = ZINC65383300
REMARK  6 active torsions:
REMARK  status: ('A' for Active; 'I' for Inactive)
REMARK    1  A    between atoms: C_1  and  N_2
REMARK    2  A    between atoms: C_5  and  N_8
REMARK    3  A    between atoms: C_13  and  C_19
REMARK    4  A    between atoms: C_22  and  N_25
REMARK    5  A    between atoms: N_25  and  C_26
REMARK    6  A    between atoms: N_25  and  C_27
REMARK                            x       y       z     vdW  Elec       q    Type
REMARK                         _______ _______ _______ _____ _____    ______ ____
ROOT
ATOM      1  N   UNL     1       1.271  -4.022  -0.029  0.00  0.00    -0.247 N 
ATOM      2  C   UNL     1       2.282  -4.902  -0.045  0.00  0.00    +0.127 A 
ATOM      3  C   UNL     1       1.740  -6.160  -0.047  0.00  0.00    +0.020 A 
ATOM      4  C   UNL     1       0.360  -6.031  -0.035  0.00  0.00    +0.140 A 
ATOM      5  N   UNL     1       0.070  -4.750  -0.019  0.00  0.00    -0.177 NA
ATOM      6  C   UNL     1       2.592  -7.403  -0.058  0.00  0.00    +0.063 C 
ATOM      7  C   UNL     1       3.919  -7.084   0.637  0.00  0.00    +0.109 C 
ATOM      8  C   UNL     1       4.463  -5.754   0.199  0.00  0.00    +0.219 C 
ATOM      9  O   UNL     1       5.662  -5.625   0.074  0.00  0.00    -0.275 OA
ATOM     10  N   UNL     1       3.662  -4.698  -0.060  0.00  0.00    -0.270 N 
ATOM     11  H   UNL     1       4.036  -3.823  -0.251  0.00  0.00    +0.156 HD
ENDROOT
BRANCH   1  16
ATOM     12  C   UNL     1       0.089   1.493   0.026  0.00  0.00    -0.096 C 
ATOM     13  N   UNL     1       0.092   0.024   0.014  0.00  0.00    +0.378 N 
ATOM     14  C   UNL     1       0.769  -0.453  -1.198  0.00  0.00    -0.077 C 
ATOM     15  C   UNL     1       0.704  -1.981  -1.255  0.00  0.00    +0.008 C 
ATOM     16  C   UNL     1       1.396  -2.563  -0.019  0.00  0.00    +0.106 C 
ATOM     17  C   UNL     1       0.729  -2.001   1.239  0.00  0.00    +0.008 C 
ATOM     18  C   UNL     1       0.793  -0.472   1.204  0.00  0.00    -0.077 C 
ATOM     19  H   UNL     1      -0.859  -0.314   0.020  0.00  0.00    -0.082 HD
ENDBRANCH   1  16
BRANCH   6  20
ATOM     20  C   UNL     1       2.853  -7.828  -1.480  0.00  0.00    -0.039 A 
ATOM     21  C   UNL     1       3.510  -6.974  -2.346  0.00  0.00    +0.006 A 
ATOM     22  C   UNL     1       3.750  -7.360  -3.650  0.00  0.00    +0.023 A 
ATOM     23  C   UNL     1       3.331  -8.609  -4.091  0.00  0.00    +0.029 A 
ATOM     24  C   UNL     1       2.671  -9.465  -3.218  0.00  0.00    +0.023 A 
ATOM     25  C   UNL     1       2.439  -9.074  -1.914  0.00  0.00    +0.006 A 
BRANCH  23  26
ATOM     26  N   UNL     1       3.572  -9.003  -5.409  0.00  0.00    -0.336 N 
ATOM     27  C   UNL     1       4.154  -8.055  -6.362  0.00  0.00    +0.129 C 
ATOM     28  C   UNL     1       3.243 -10.364  -5.839  0.00  0.00    +0.129 C 
ENDBRANCH  23  26
ENDBRANCH   6  20
TORSDOF 3
