REMARK  Name = ZINC19274664
REMARK  3 active torsions:
REMARK  status: ('A' for Active; 'I' for Inactive)
REMARK    1  A    between atoms: C_1  and  C_2
REMARK    2  A    between atoms: N_5  and  C_9
REMARK    3  A    between atoms: C_15  and  N_17
REMARK                            x       y       z     vdW  Elec       q    Type
REMARK                         _______ _______ _______ _____ _____    ______ ____
ROOT
ATOM      1  C   UNL     1       1.439  -2.486  -2.440  0.00  0.00    +0.073 C 
ATOM      2  C   UNL     1       0.614  -2.071  -3.660  0.00  0.00    +0.020 C 
ATOM      3  C   UNL     1       1.274  -2.613  -4.930  0.00  0.00    +0.002 C 
ATOM      4  C   UNL     1       1.344  -4.140  -4.856  0.00  0.00    +0.002 C 
ATOM      5  C   UNL     1       2.169  -4.554  -3.636  0.00  0.00    +0.020 C 
ATOM      6  C   UNL     1       1.509  -4.013  -2.367  0.00  0.00    +0.068 C 
ENDROOT
BRANCH   1  10
ATOM      7  C   UNL     1      -0.019   1.526   0.010  0.00  0.00    +0.039 C 
ATOM      8  C   UNL     1       0.002  -0.004   0.002  0.00  0.00    +0.129 C 
ATOM      9  C   UNL     1       0.720  -0.499  -1.256  0.00  0.00    +0.116 C 
ATOM     10  N   UNL     1       0.805  -1.966  -1.221  0.00  0.00    -0.293 NA
ATOM     11  C   UNL     1       1.523  -2.417  -0.020  0.00  0.00    +0.113 C 
ATOM     12  C   UNL     1       0.797  -1.904   1.226  0.00  0.00    +0.175 C 
ATOM     13  O   UNL     1       0.695  -0.479   1.159  0.00  0.00    -0.374 OA
ENDBRANCH   1  10
BRANCH   6  14
ATOM     14  N   UNL     1       0.151  -4.560  -2.249  0.00  0.00    -0.326 NA
ATOM     15  H   UNL     1       0.171  -5.568  -2.199  0.00  0.00    +0.119 HD
ATOM     16  H   UNL     1      -0.329  -4.168  -1.453  0.00  0.00    +0.119 HD
ENDBRANCH   6  14
TORSDOF 2
