REMARK  Name = ZINC21221919
REMARK  8 active torsions:
REMARK  status: ('A' for Active; 'I' for Inactive)
REMARK    1  A    between atoms: C_1  and  C_2
REMARK    2  A    between atoms: C_2  and  O_3
REMARK    3  A    between atoms: O_3  and  C_4
REMARK    4  A    between atoms: C_7  and  C_12
REMARK    5  A    between atoms: C_9  and  O_10
REMARK    6  A    between atoms: O_10  and  C_11
REMARK    7  A    between atoms: C_17  and  C_27
REMARK    8  A    between atoms: C_30  and  C_33
REMARK                            x       y       z     vdW  Elec       q    Type
REMARK                         _______ _______ _______ _____ _____    ______ ____
ROOT
ATOM      1  C   UNL     1       4.325  -0.690  -4.290  0.00  0.00    +0.032 C 
ATOM      2  C   UNL     1       5.583  -0.392  -3.475  0.00  0.00    +0.059 C 
ATOM      3  C   UNL     1       5.218  -0.175  -2.016  0.00  0.00    +0.017 C 
ATOM      4  C   UNL     1       4.176  -0.825  -1.469  0.00  0.00    +0.036 C 
ATOM      5  C   UNL     1       3.711  -0.707  -0.037  0.00  0.00    +0.136 C 
ATOM      6  N   UNL     1       4.633  -0.017   0.840  0.00  0.00    -0.331 N 
ATOM      7  C   UNL     1       4.930   1.332   0.651  0.00  0.00    +0.049 A 
ATOM      8  C   UNL     1       4.526   2.295   1.562  0.00  0.00    +0.025 A 
ATOM      9  C   UNL     1       4.742   3.633   1.278  0.00  0.00    +0.002 A 
ATOM     10  C   UNL     1       5.357   4.007   0.097  0.00  0.00    +0.002 A 
ATOM     11  C   UNL     1       5.782   3.046  -0.805  0.00  0.00    +0.025 A 
ATOM     12  C   UNL     1       5.582   1.707  -0.513  0.00  0.00    +0.052 A 
ATOM     13  N   UNL     1       6.025   0.690  -1.350  0.00  0.00    -0.316 N 
ATOM     14  C   UNL     1       3.400  -1.713  -2.251  0.00  0.00    +0.163 C 
ATOM     15  O   UNL     1       2.475  -2.302  -1.727  0.00  0.00    -0.292 OA
ATOM     16  C   UNL     1       3.679  -1.951  -3.705  0.00  0.00    +0.088 C 
ATOM     17  H   UNL     1       5.111  -0.558   1.670  0.00  0.00    +0.147 HD
ATOM     18  H   UNL     1       7.117   0.613  -1.454  0.00  0.00    +0.152 HD
ENDROOT
BRANCH   5  19
ATOM     19  C   UNL     1       2.396   0.029  -0.021  0.00  0.00    -0.023 A 
ATOM     20  C   UNL     1       1.254  -0.607   0.429  0.00  0.00    +0.006 A 
ATOM     21  C   UNL     1       0.048   0.068   0.444  0.00  0.00    +0.004 A 
ATOM     22  C   UNL     1      -0.016   1.379   0.009  0.00  0.00    -0.050 A 
ATOM     23  C   UNL     1       1.126   2.014  -0.440  0.00  0.00    +0.004 A 
ATOM     24  C   UNL     1       2.332   1.339  -0.457  0.00  0.00    +0.006 A 
ATOM     25  C   UNL     1      -1.333   2.112   0.020  0.00  0.00    +0.044 C 
ENDBRANCH   5  19
BRANCH   1  29
ATOM     26  C   UNL     1       5.379  -1.367  -8.379  0.00  0.00    +0.162 A 
ATOM     27  C   UNL     1       5.926  -2.156  -7.380  0.00  0.00    +0.050 A 
ATOM     28  C   UNL     1       5.583  -1.935  -6.059  0.00  0.00    +0.008 A 
ATOM     29  C   UNL     1       4.695  -0.927  -5.731  0.00  0.00    -0.040 A 
ATOM     30  C   UNL     1       4.142  -0.140  -6.724  0.00  0.00    +0.053 A 
ATOM     31  C   UNL     1       4.485  -0.353  -8.049  0.00  0.00    +0.162 A 
BRANCH  31  32
ATOM     32  O   UNL     1       3.945   0.424  -9.026  0.00  0.00    -0.491 OA
ATOM     33  C   UNL     1       3.035   1.446  -8.614  0.00  0.00    +0.277 C 
ENDBRANCH  31  32
BRANCH  26  34
ATOM     34  O   UNL     1       5.714  -1.584  -9.679  0.00  0.00    -0.489 OA
BRANCH  34  36
ATOM     35  C   UNL     1       6.891  -2.734 -11.449  0.00  0.00    +0.048 C 
ATOM     36  C   UNL     1       6.637  -2.643  -9.943  0.00  0.00    +0.226 C 
ENDBRANCH  34  36
ENDBRANCH  26  34
ENDBRANCH   1  29
TORSDOF 5
