REMARK  Name = ZINC18250092
REMARK  2 active torsions:
REMARK  status: ('A' for Active; 'I' for Inactive)
REMARK    1  A    between atoms: C_16  and  C_19
REMARK    2  A    between atoms: N_28  and  C_31
REMARK                            x       y       z     vdW  Elec       q    Type
REMARK                         _______ _______ _______ _____ _____    ______ ____
ROOT
ATOM      1  C   UNL     1       7.774  -4.481   1.061  0.00  0.00    +0.001 A 
ATOM      2  C   UNL     1       7.209  -5.706   0.754  0.00  0.00    +0.001 A 
ATOM      3  C   UNL     1       5.902  -5.784   0.314  0.00  0.00    +0.012 A 
ATOM      4  C   UNL     1       5.139  -4.622   0.176  0.00  0.00    +0.031 A 
ATOM      5  C   UNL     1       5.714  -3.374   0.490  0.00  0.00    +0.031 A 
ATOM      6  C   UNL     1       7.038  -3.319   0.932  0.00  0.00    +0.012 A 
ATOM      7  C   UNL     1       4.726  -2.301   0.272  0.00  0.00    +0.204 C 
ATOM      8  O   UNL     1       4.901  -1.114   0.447  0.00  0.00    -0.288 OA
ATOM      9  C   UNL     1       3.459  -2.956  -0.210  0.00  0.00    +0.206 C 
ATOM     10  C   UNL     1       3.745  -4.432  -0.269  0.00  0.00    +0.204 C 
ATOM     11  O   UNL     1       2.975  -5.302  -0.616  0.00  0.00    -0.288 OA
ATOM     12  C   UNL     1       3.012  -2.409  -1.548  0.00  0.00    +0.138 C 
ATOM     13  C   UNL     1       1.466  -2.698  -1.382  0.00  0.00    +0.125 C 
ATOM     14  C   UNL     1       1.227  -2.187  -0.022  0.00  0.00    +0.163 C 
ATOM     15  O   UNL     1       2.382  -2.696   0.721  0.00  0.00    -0.348 OA
ATOM     16  C   UNL     1       1.002  -2.531  -2.737  0.00  0.00    +0.233 C 
ATOM     17  O   UNL     1      -0.062  -2.079  -3.102  0.00  0.00    -0.274 OA
ATOM     18  N   UNL     1       2.026  -2.997  -3.523  0.00  0.00    -0.210 N 
ATOM     19  C   UNL     1       3.190  -3.167  -2.825  0.00  0.00    +0.234 C 
ATOM     20  O   UNL     1       4.164  -3.801  -3.169  0.00  0.00    -0.274 OA
ENDROOT
BRANCH  18  21
ATOM     21  C   UNL     1       1.894  -3.269  -4.893  0.00  0.00    +0.045 A 
ATOM     22  C   UNL     1       2.984  -3.733  -5.618  0.00  0.00    +0.025 A 
ATOM     23  C   UNL     1       2.851  -4.004  -6.965  0.00  0.00    +0.023 A 
ATOM     24  C   UNL     1       1.635  -3.805  -7.596  0.00  0.00    +0.059 A 
ATOM     25  C   UNL     1       0.548  -3.337  -6.877  0.00  0.00    +0.061 A 
ATOM     26  C   UNL     1       0.676  -3.069  -5.527  0.00  0.00    +0.045 A 
ATOM     27 CL   UNL     1      -0.975  -3.088  -7.671  0.00  0.00    -0.082 Cl
ATOM     28 CL   UNL     1       1.473  -4.141  -9.291  0.00  0.00    -0.082 Cl
ENDBRANCH  18  21
BRANCH  14  29
ATOM     29  C   UNL     1       1.208  -0.680  -0.013  0.00  0.00    -0.015 A 
ATOM     30  C   UNL     1       2.221   0.020   0.616  0.00  0.00    +0.006 A 
ATOM     31  C   UNL     1       2.205   1.402   0.625  0.00  0.00    +0.003 A 
ATOM     32  C   UNL     1       1.176   2.086   0.005  0.00  0.00    +0.038 A 
ATOM     33  C   UNL     1       0.161   1.386  -0.625  0.00  0.00    +0.124 A 
ATOM     34  C   UNL     1       0.178   0.001  -0.633  0.00  0.00    +0.044 A 
ATOM     35  F   UNL     1      -0.845   2.053  -1.231  0.00  0.00    -0.205 F 
ENDBRANCH  14  29
TORSDOF 2
