REMARK  Name = ZINC12540179
REMARK  7 active torsions:
REMARK  status: ('A' for Active; 'I' for Inactive)
REMARK    1  A    between atoms: C_1  and  C_2
REMARK    2  A    between atoms: C_3  and  C_12
REMARK    3  A    between atoms: C_5  and  C_7
REMARK    4  A    between atoms: C_12  and  C_13
REMARK    5  A    between atoms: N_15  and  N_16
REMARK    6  A    between atoms: C_17  and  C_19
REMARK    7  A    between atoms: C_19  and  N_20
REMARK                            x       y       z     vdW  Elec       q    Type
REMARK                         _______ _______ _______ _____ _____    ______ ____
ROOT
ATOM      1  C   UNL     1      -1.796   2.321   1.430  0.00  0.00    +0.235 C 
ATOM      2  O   UNL     1      -1.099   1.920   2.338  0.00  0.00    -0.274 OA
ATOM      3  N   UNL     1      -2.870   3.091   1.694  0.00  0.00    -0.234 N 
ATOM      4  H   UNL     1      -3.428   3.412   0.968  0.00  0.00    +0.173 HD
ENDROOT
BRANCH   3   5
ATOM      5  N   UNL     1      -3.181   3.430   3.017  0.00  0.00    -0.233 N 
ATOM      6  C   UNL     1      -4.254   4.201   3.281  0.00  0.00    +0.246 C 
ATOM      7  O   UNL     1      -4.951   4.602   2.373  0.00  0.00    -0.273 OA
ATOM      8  H   UNL     1      -2.623   3.110   3.744  0.00  0.00    +0.173 HD
BRANCH   6   9
ATOM      9  C   UNL     1      -4.588   4.566   4.705  0.00  0.00    +0.202 C 
BRANCH   9  10
ATOM     10  N   UNL     1      -5.714   5.510   4.717  0.00  0.00    -0.321 N 
ATOM     11  C   UNL     1      -6.960   4.846   4.329  0.00  0.00    +0.106 C 
ATOM     12  C   UNL     1      -8.090   5.883   4.331  0.00  0.00    +0.024 C 
ATOM     13  C   UNL     1      -7.832   6.864   3.185  0.00  0.00    +0.038 C 
ATOM     14  C   UNL     1      -6.391   7.309   3.214  0.00  0.00    -0.026 A 
ATOM     15  C   UNL     1      -5.429   6.636   3.947  0.00  0.00    +0.033 A 
ATOM     16  C   UNL     1      -4.110   7.092   3.927  0.00  0.00    +0.023 A 
ATOM     17  C   UNL     1      -3.767   8.205   3.190  0.00  0.00    +0.002 A 
ATOM     18  C   UNL     1      -4.733   8.877   2.464  0.00  0.00    +0.000 A 
ATOM     19  C   UNL     1      -6.039   8.429   2.477  0.00  0.00    +0.005 A 
ENDBRANCH   9  10
ENDBRANCH   6   9
ENDBRANCH   3   5
BRANCH   1  20
ATOM     20  C   UNL     1      -1.462   1.956   0.006  0.00  0.00    +0.156 C 
BRANCH  20  23
ATOM     21  C   UNL     1      -1.387  -1.163   0.178  0.00  0.00    +0.088 C 
ATOM     22  C   UNL     1      -0.196  -0.248   0.057  0.00  0.00    +0.126 A 
ATOM     23  C   UNL     1      -0.226   1.095  -0.015  0.00  0.00    +0.092 A 
ATOM     24  N   UNL     1       1.039   1.531  -0.114  0.00  0.00    -0.213 NA
ATOM     25  C   UNL     1       1.844   0.491  -0.105  0.00  0.00    +0.234 A 
ATOM     26  O   UNL     1       1.099  -0.624   0.000  0.00  0.00    -0.440 OA
BRANCH  25  27
ATOM     27  C   UNL     1       3.311   0.539  -0.195  0.00  0.00    +0.074 A 
ATOM     28  C   UNL     1       4.219  -0.504  -0.193  0.00  0.00    +0.021 A 
ATOM     29  C   UNL     1       5.558  -0.206  -0.289  0.00  0.00    +0.008 A 
ATOM     30  C   UNL     1       5.945   1.093  -0.384  0.00  0.00    +0.046 A 
ATOM     31  S   UNL     1       4.384   1.958  -0.344  0.00  0.00    -0.092 S 
ENDBRANCH  25  27
ENDBRANCH  20  23
ENDBRANCH   1  20
TORSDOF 6
