REMARK  Name = ZINC08020942
REMARK  7 active torsions:
REMARK  status: ('A' for Active; 'I' for Inactive)
REMARK    1  A    between atoms: C_1  and  C_2
REMARK    2  A    between atoms: C_2  and  C_30
REMARK    3  A    between atoms: CA_3  and  C_28
REMARK    4  A    between atoms: CA_9  and  N_13
REMARK    5  A    between atoms: C_16  and  C_22
REMARK    6  A    between atoms: C_18  and  S_20
REMARK    7  A    between atoms: S_20  and  C_21
REMARK                            x       y       z     vdW  Elec       q    Type
REMARK                         _______ _______ _______ _____ _____    ______ ____
ROOT
ATOM      1  N   UNL     1      -3.086   0.737  -3.615  0.00  0.00    -0.316 N 
ATOM      2  C   UNL     1      -3.904   1.830  -3.853  0.00  0.00    +0.124 A 
ATOM      3  C   UNL     1      -3.861   2.942  -3.012  0.00  0.00    +0.072 A 
ATOM      4  C   UNL     1      -4.701   4.017  -3.292  0.00  0.00    +0.077 A 
ATOM      5  N   UNL     1      -5.513   3.947  -4.347  0.00  0.00    -0.222 NA
ATOM      6  C   UNL     1      -5.525   2.874  -5.123  0.00  0.00    +0.190 A 
ATOM      7  N   UNL     1      -4.736   1.835  -4.890  0.00  0.00    -0.207 NA
ATOM      8  H   UNL     1      -3.121  -0.033  -4.204  0.00  0.00    +0.148 HD
ENDROOT
BRANCH   1  15
ATOM      9  C   UNL     1       0.036   1.483   0.099  0.00  0.00    +0.025 C 
ATOM     10  C   UNL     1       0.039  -0.046   0.035  0.00  0.00    +0.042 C 
ATOM     11  CA  UNL     1       0.614  -0.563  -1.318  0.00  0.00    +0.206 C 
ATOM     12  N   UNL     1      -0.390  -0.426  -2.375  0.00  0.00    -0.271 N 
ATOM     13  C   UNL     1      -1.788  -0.644  -1.961  0.00  0.00    +0.165 C 
ATOM     14  S   UNL     1      -1.673  -0.725  -0.123  0.00  0.00    -0.127 S 
ATOM     15  CA  UNL     1      -2.168   0.745  -2.473  0.00  0.00    +0.189 C 
ATOM     16  C   UNL     1      -0.711   0.793  -2.848  0.00  0.00    +0.240 C 
ATOM     17  O   UNL     1      -0.046   1.648  -3.394  0.00  0.00    -0.273 OA
ATOM     18  C   UNL     1       0.778  -0.652   1.230  0.00  0.00    +0.025 C 
BRANCH  11  19
ATOM     19  C   UNL     1       1.836   0.240  -1.681  0.00  0.00    +0.377 C 
ATOM     20  O   UNL     1       1.917   0.760  -2.768  0.00  0.00    -0.244 OA
ATOM     21  OXT UNL     1       2.836   0.377  -0.796  0.00  0.00    -0.244 OA
ENDBRANCH  11  19
ENDBRANCH   1  15
BRANCH   4  22
ATOM     22  C   UNL     1      -4.694   5.222  -2.427  0.00  0.00    +0.001 A 
ATOM     23  C   UNL     1      -3.846   5.285  -1.322  0.00  0.00    +0.010 A 
ATOM     24  C   UNL     1      -3.839   6.411  -0.525  0.00  0.00    +0.001 A 
ATOM     25  C   UNL     1      -4.679   7.472  -0.814  0.00  0.00    +0.000 A 
ATOM     26  C   UNL     1      -5.526   7.412  -1.906  0.00  0.00    +0.001 A 
ATOM     27  C   UNL     1      -5.537   6.293  -2.713  0.00  0.00    +0.010 A 
ENDBRANCH   4  22
BRANCH   6  28
ATOM     28  S   UNL     1      -6.616   2.829  -6.506  0.00  0.00    -0.089 S 
ATOM     29  C   UNL     1      -6.215   1.194  -7.169  0.00  0.00    +0.093 C 
ENDBRANCH   6  28
TORSDOF 4
