REMARK  Name = ZINC39266375
REMARK  13 active torsions:
REMARK  status: ('A' for Active; 'I' for Inactive)
REMARK    1  A    between atoms: C_1  and  C_2
REMARK    2  A    between atoms: C_2  and  N_3
REMARK    3  A    between atoms: C_7  and  C_9
REMARK    4  A    between atoms: C_9  and  N_10
REMARK    5  A    between atoms: C_11  and  C_13
REMARK    6  A    between atoms: C_13  and  C_15
REMARK    7  A    between atoms: C_13  and  N_19
REMARK    8  A    between atoms: C_15  and  C_16
REMARK    9  A    between atoms: C_16  and  C_17
REMARK   10  A    between atoms: C_16  and  C_18
REMARK   11  A    between atoms: N_28  and  C_29
REMARK   12  A    between atoms: C_29  and  C_30
REMARK   13  A    between atoms: C_33  and  C_36
REMARK                            x       y       z     vdW  Elec       q    Type
REMARK                         _______ _______ _______ _____ _____    ______ ____
ROOT
ATOM      1  N   UNL     1       4.043  -2.416   2.975  0.00  0.00    -0.291 N 
ATOM      2  C   UNL     1       5.036  -2.071   1.950  0.00  0.00    +0.107 C 
ATOM      3  C   UNL     1       6.411  -2.383   2.585  0.00  0.00    +0.016 C 
ATOM      4  C   UNL     1       6.033  -3.445   3.633  0.00  0.00    +0.015 C 
ATOM      5  C   UNL     1       4.579  -3.197   3.932  0.00  0.00    +0.206 C 
ATOM      6  O   UNL     1       3.980  -3.636   4.890  0.00  0.00    -0.277 OA
ATOM      7  C   UNL     1       6.888  -3.275   4.898  0.00  0.00    -0.005 C 
ATOM      8  C   UNL     1       7.988  -4.357   4.718  0.00  0.00    -0.019 C 
ATOM      9  C   UNL     1       7.200  -5.493   4.016  0.00  0.00    -0.077 C 
ATOM     10  N   UNL     1       6.258  -4.797   3.111  0.00  0.00    +0.392 N 
ATOM     11  H   UNL     1       6.653  -4.743   2.184  0.00  0.00    -0.080 HD
ENDROOT
BRANCH   1  12
ATOM     12  C   UNL     1       2.649  -1.965   2.961  0.00  0.00    +0.162 C 
BRANCH  12  14
ATOM     13  N   UNL     1       0.677  -2.168   1.482  0.00  0.00    -0.315 N 
ATOM     14  C   UNL     1       1.972  -2.463   1.710  0.00  0.00    +0.234 C 
ATOM     15  O   UNL     1       2.592  -3.130   0.909  0.00  0.00    -0.274 OA
ATOM     16  H   UNL     1       0.180  -1.635   2.122  0.00  0.00    +0.149 HD
BRANCH  13  17
ATOM     17  C   UNL     1       0.019  -2.653   0.266  0.00  0.00    +0.089 C 
BRANCH  17  22
ATOM     18  N   UNL     1      -2.048  -2.513  -1.061  0.00  0.00    +0.382 N 
ATOM     19  C   UNL     1      -3.240  -3.317  -0.719  0.00  0.00    -0.078 C 
ATOM     20  C   UNL     1      -3.636  -2.853   0.705  0.00  0.00    -0.020 C 
ATOM     21  C   UNL     1      -2.247  -2.627   1.358  0.00  0.00    -0.016 C 
ATOM     22  C   UNL     1      -1.399  -2.081   0.191  0.00  0.00    -0.051 C 
ATOM     23  H   UNL     1      -2.328  -1.704  -1.595  0.00  0.00    -0.081 HD
BRANCH  18  25
ATOM     24  C   UNL     1      -1.755  -3.690  -3.188  0.00  0.00    -0.017 C 
ATOM     25  C   UNL     1      -1.112  -3.327  -1.848  0.00  0.00    -0.082 C 
ENDBRANCH  18  25
ENDBRANCH  17  22
ENDBRANCH  13  17
ENDBRANCH  12  14
BRANCH  12  26
ATOM     26  C   UNL     1       2.608  -0.436   2.988  0.00  0.00    +0.035 C 
BRANCH  26  27
ATOM     27  C   UNL     1       3.183   0.066   4.314  0.00  0.00    -0.015 C 
ATOM     28  C   UNL     1       3.257   1.594   4.292  0.00  0.00    +0.007 C 
ATOM     29  C   UNL     1       2.279  -0.384   5.465  0.00  0.00    +0.007 C 
ENDBRANCH  26  27
ENDBRANCH  12  26
ENDBRANCH   1  12
BRANCH  10  30
ATOM     30  C   UNL     1       4.984  -5.528   3.064  0.00  0.00    -0.042 C 
BRANCH  30  31
ATOM     31  C   UNL     1       5.199  -6.870   2.413  0.00  0.00    -0.064 A 
ATOM     32  C   UNL     1       5.066  -7.001   1.043  0.00  0.00    +0.002 A 
ATOM     33  C   UNL     1       5.262  -8.228   0.442  0.00  0.00    +0.010 A 
ATOM     34  C   UNL     1       5.595  -9.336   1.219  0.00  0.00    +0.003 A 
ATOM     35  C   UNL     1       5.728  -9.198   2.599  0.00  0.00    +0.010 A 
ATOM     36  C   UNL     1       5.535  -7.966   3.189  0.00  0.00    +0.002 A 
BRANCH  34  37
ATOM     37  C   UNL     1       5.806 -10.658   0.578  0.00  0.00    +0.102 A 
ATOM     38  C   UNL     1       6.129 -11.782   1.291  0.00  0.00    +0.097 A 
ATOM     39  S   UNL     1       6.240 -12.942   0.082  0.00  0.00    +0.029 S 
ATOM     40  N   UNL     1       5.896 -12.024  -1.205  0.00  0.00    -0.110 NA
ATOM     41  N   UNL     1       5.692 -10.847  -0.727  0.00  0.00    -0.141 NA
ENDBRANCH  34  37
ENDBRANCH  30  31
ENDBRANCH  10  30
TORSDOF 10
