REMARK  Name = ZINC35757929
REMARK  11 active torsions:
REMARK  status: ('A' for Active; 'I' for Inactive)
REMARK    1  A    between atoms: C_1  and  C_2
REMARK    2  A    between atoms: C_2  and  N_3
REMARK    3  A    between atoms: C_4  and  C_6
REMARK    4  A    between atoms: C_8  and  C_22
REMARK    5  A    between atoms: N_13  and  C_14
REMARK    6  A    between atoms: C_14  and  C_15
REMARK    7  A    between atoms: C_18  and  C_21
REMARK    8  A    between atoms: C_26  and  N_28
REMARK    9  A    between atoms: C_29  and  C_31
REMARK   10  A    between atoms: C_36  and  O_37
REMARK   11  A    between atoms: O_37  and  C_38
REMARK                            x       y       z     vdW  Elec       q    Type
REMARK                         _______ _______ _______ _____ _____    ______ ____
ROOT
ATOM      1  C   UNL     1       1.081  -2.304  -2.754  0.00  0.00    +0.210 C 
ATOM      2  C   UNL     1       0.293  -2.379  -4.083  0.00  0.00    +0.238 C 
ATOM      3  O   UNL     1      -0.106  -3.763  -4.117  0.00  0.00    -0.440 OA
ATOM      4  C   UNL     1       0.784  -4.471  -3.402  0.00  0.00    +0.405 C 
ATOM      5  O   UNL     1       0.923  -5.674  -3.501  0.00  0.00    -0.226 OA
ATOM      6  N   UNL     1       1.511  -3.703  -2.561  0.00  0.00    -0.248 N 
ENDROOT
BRANCH   2   7
ATOM      7  C   UNL     1       1.181  -2.046  -5.254  0.00  0.00    -0.003 A 
ATOM      8  C   UNL     1       1.956  -3.033  -5.837  0.00  0.00    +0.007 A 
ATOM      9  C   UNL     1       2.772  -2.731  -6.911  0.00  0.00    +0.002 A 
ATOM     10  C   UNL     1       2.816  -1.442  -7.407  0.00  0.00    +0.023 A 
ATOM     11  C   UNL     1       2.040  -0.449  -6.824  0.00  0.00    +0.034 A 
ATOM     12  C   UNL     1       1.216  -0.757  -5.748  0.00  0.00    +0.030 A 
BRANCH  11  13
ATOM     13  N   UNL     1       2.082   0.856  -7.324  0.00  0.00    -0.281 N 
ATOM     14  C   UNL     1       2.271   1.068  -8.641  0.00  0.00    +0.252 C 
ATOM     15  O   UNL     1       2.308   0.127  -9.409  0.00  0.00    -0.270 OA
ATOM     16  H   UNL     1       1.975   1.609  -6.721  0.00  0.00    +0.155 HD
BRANCH  14  17
ATOM     17  C   UNL     1       2.432   2.443  -9.151  0.00  0.00    +0.079 A 
ATOM     18  C   UNL     1       2.396   3.528  -8.271  0.00  0.00    +0.017 A 
ATOM     19  C   UNL     1       2.547   4.809  -8.754  0.00  0.00    +0.001 A 
ATOM     20  C   UNL     1       2.736   5.028 -10.109  0.00  0.00    +0.004 A 
ATOM     21  C   UNL     1       2.773   3.965 -10.990  0.00  0.00    +0.046 A 
ATOM     22  C   UNL     1       2.629   2.668 -10.520  0.00  0.00    +0.132 A 
BRANCH  22  23
ATOM     23  O   UNL     1       2.672   1.622 -11.383  0.00  0.00    -0.494 OA
ATOM     24  C   UNL     1       2.876   1.929 -12.764  0.00  0.00    +0.277 C 
ENDBRANCH  22  23
ENDBRANCH  14  17
ENDBRANCH  11  13
ENDBRANCH   2   7
BRANCH   1  26
ATOM     25  N   UNL     1      -0.055  -0.544  -1.437  0.00  0.00    -0.314 N 
ATOM     26  C   UNL     1       0.187  -1.857  -1.626  0.00  0.00    +0.238 C 
ATOM     27  O   UNL     1      -0.314  -2.678  -0.887  0.00  0.00    -0.274 OA
ATOM     28  H   UNL     1       0.346   0.113  -2.027  0.00  0.00    +0.149 HD
BRANCH  25  30
ATOM     29  C   UNL     1      -1.031   1.417  -0.349  0.00  0.00    +0.024 C 
ATOM     30  C   UNL     1      -0.923  -0.110  -0.340  0.00  0.00    +0.101 C 
ENDBRANCH  25  30
ENDBRANCH   1  26
BRANCH   6  31
ATOM     31  C   UNL     1       2.540  -4.169  -1.627  0.00  0.00    +0.147 C 
BRANCH  31  32
ATOM     32  C   UNL     1       1.903  -4.494  -0.300  0.00  0.00    -0.030 A 
ATOM     33  C   UNL     1       1.788  -3.515   0.669  0.00  0.00    +0.005 A 
ATOM     34  C   UNL     1       1.204  -3.813   1.886  0.00  0.00    +0.003 A 
ATOM     35  C   UNL     1       0.736  -5.090   2.134  0.00  0.00    -0.050 A 
ATOM     36  C   UNL     1       0.851  -6.069   1.164  0.00  0.00    +0.003 A 
ATOM     37  C   UNL     1       1.430  -5.769  -0.054  0.00  0.00    +0.005 A 
ATOM     38  C   UNL     1       0.101  -5.416   3.461  0.00  0.00    +0.044 C 
ENDBRANCH  31  32
ENDBRANCH   6  31
TORSDOF 8
