REMARK  Name = ZINC33121084
REMARK  7 active torsions:
REMARK  status: ('A' for Active; 'I' for Inactive)
REMARK    1  A    between atoms: C_3  and  S_6
REMARK    2  A    between atoms: S_6  and  N_9
REMARK    3  A    between atoms: N_9  and  C_10
REMARK    4  A    between atoms: C_13  and  N_26
REMARK    5  A    between atoms: C_14  and  C_16
REMARK    6  A    between atoms: N_18  and  C_19
REMARK    7  A    between atoms: C_19  and  C_20
REMARK                            x       y       z     vdW  Elec       q    Type
REMARK                         _______ _______ _______ _____ _____    ______ ____
ROOT
ATOM      1  C   UNL     1      -1.049   7.742   1.034  0.00  0.00    +0.049 A 
ATOM      2  C   UNL     1      -1.833   8.414   1.967  0.00  0.00    +0.026 A 
ATOM      3  C   UNL     1      -2.407   7.729   3.018  0.00  0.00    +0.026 A 
ATOM      4  C   UNL     1      -2.205   6.362   3.153  0.00  0.00    +0.042 A 
ATOM      5  C   UNL     1      -1.417   5.678   2.216  0.00  0.00    +0.059 A 
ATOM      6  C   UNL     1      -0.835   6.380   1.158  0.00  0.00    +0.039 A 
ENDROOT
BRANCH   4   7
ATOM      7  N   UNL     1      -2.785   5.672   4.214  0.00  0.00    -0.333 N 
ATOM      8  C   UNL     1      -2.332   6.212   5.503  0.00  0.00    +0.086 C 
ATOM      9  C   UNL     1      -2.928   5.378   6.640  0.00  0.00    -0.063 C 
ATOM     10  N   UNL     1      -4.394   5.405   6.547  0.00  0.00    +0.381 N 
ATOM     11  C   UNL     1      -4.847   4.865   5.257  0.00  0.00    -0.063 C 
ATOM     12  C   UNL     1      -4.252   5.699   4.121  0.00  0.00    +0.086 C 
ATOM     13  H   UNL     1      -4.824   4.796   7.356  0.00  0.00    -0.086 HD
ATOM     14  H   UNL     1      -4.749   6.442   6.641  0.00  0.00    -0.086 HD
ENDBRANCH   4   7
BRANCH   5  15
ATOM     15  C   UNL     1      -1.197   4.226   2.352  0.00  0.00    +0.246 C 
ATOM     16  O   UNL     1      -1.622   3.635   3.326  0.00  0.00    -0.270 OA
ATOM     17  N   UNL     1      -0.525   3.554   1.396  0.00  0.00    -0.309 N 
ATOM     18  H   UNL     1      -0.141   4.089   0.514  0.00  0.00    +0.149 HD
BRANCH  17  19
ATOM     19  C   UNL     1      -0.307   2.112   1.530  0.00  0.00    +0.136 C 
BRANCH  19  20
ATOM     20  C   UNL     1       0.475   1.599   0.319  0.00  0.00    +0.135 C 
ATOM     21  C   UNL     1       0.608   0.061   0.377  0.00  0.00    +0.035 C 
ATOM     22  C   UNL     1       2.027  -0.213  -0.171  0.00  0.00    +0.031 C 
ATOM     23  C   UNL     1       2.583   1.191  -0.494  0.00  0.00    +0.160 C 
ATOM     24  O   UNL     1       1.833   2.089   0.353  0.00  0.00    -0.375 OA
ENDBRANCH  19  20
ENDBRANCH  17  19
ENDBRANCH   5  15
BRANCH   1  25
ATOM     25  N   UNL     1      -0.471   8.446  -0.029  0.00  0.00    -0.216 N 
ATOM     26  H   UNL     1      -0.514   8.035  -1.048  0.00  0.00    +0.174 HD
BRANCH  25  27
ATOM     27  S   UNL     1       0.276   9.898   0.248  0.00  0.00    +0.079 S 
ATOM     28  O   UNL     1       0.776  10.342  -1.005  0.00  0.00    -0.149 OA
ATOM     29  O   UNL     1      -0.623  10.674   1.029  0.00  0.00    -0.149 OA
BRANCH  27  32
ATOM     30  C   UNL     1       3.897   9.065   1.881  0.00  0.00    +0.010 A 
ATOM     31  C   UNL     1       2.949   9.280   0.899  0.00  0.00    +0.036 A 
ATOM     32  C   UNL     1       1.678   9.576   1.266  0.00  0.00    +0.146 A 
ATOM     33  S   UNL     1       1.795   9.563   3.047  0.00  0.00    -0.077 S 
ATOM     34  C   UNL     1       3.528   9.155   3.182  0.00  0.00    +0.047 A 
ENDBRANCH  27  32
ENDBRANCH  25  27
ENDBRANCH   1  25
TORSDOF 7
