REMARK  Name = ZINC09504965
REMARK  8 active torsions:
REMARK  status: ('A' for Active; 'I' for Inactive)
REMARK    1  A    between atoms: C_1  and  C_2
REMARK    2  A    between atoms: C_9  and  N_18
REMARK    3  A    between atoms: C_10  and  C_11
REMARK    4  A    between atoms: C_14  and  O_16
REMARK    5  A    between atoms: O_16  and  C_17
REMARK    6  A    between atoms: C_19  and  C_21
REMARK    7  A    between atoms: N_24  and  S_27
REMARK    8  A    between atoms: S_27  and  C_30
REMARK                            x       y       z     vdW  Elec       q    Type
REMARK                         _______ _______ _______ _____ _____    ______ ____
ROOT
ATOM      1  C   UNL     1       8.120  13.072   0.581  0.00  0.00    +0.008 C 
ATOM      2  C   UNL     1       7.993  11.569   0.837  0.00  0.00    -0.009 C 
ATOM      3  C   UNL     1       7.789  11.319   2.334  0.00  0.00    +0.008 C 
ATOM      4  C   UNL     1       7.908   9.823   2.632  0.00  0.00    +0.037 C 
ATOM      5  C   UNL     1       6.974   9.062   1.699  0.00  0.00    -0.023 A 
ATOM      6  C   UNL     1       6.497   9.634   0.573  0.00  0.00    -0.004 A 
ATOM      7  S   UNL     1       5.478   8.393  -0.170  0.00  0.00    -0.077 S 
ATOM      8  C   UNL     1       5.681   7.128   0.997  0.00  0.00    +0.084 A 
ATOM      9  C   UNL     1       6.528   7.699   1.937  0.00  0.00    +0.069 A 
ATOM     10  C   UNL     1       6.779  11.018   0.074  0.00  0.00    +0.046 C 
ENDROOT
BRANCH   9  11
ATOM     11  C   UNL     1       6.959   6.955   3.123  0.00  0.00    +0.255 C 
ATOM     12  O   UNL     1       7.973   6.283   3.084  0.00  0.00    -0.270 OA
ATOM     13  N   UNL     1       6.233   7.014   4.257  0.00  0.00    -0.217 N 
ATOM     14  C   UNL     1       6.630   6.330   5.348  0.00  0.00    +0.407 C 
ATOM     15  O   UNL     1       7.641   5.659   5.309  0.00  0.00    -0.226 OA
ATOM     16  H   UNL     1       5.425   7.550   4.288  0.00  0.00    +0.161 HD
BRANCH  14  17
ATOM     17  O   UNL     1       5.904   6.389   6.480  0.00  0.00    -0.453 OA
ATOM     18  C   UNL     1       6.391   5.626   7.616  0.00  0.00    +0.282 C 
ENDBRANCH  14  17
ENDBRANCH   9  11
BRANCH   8  19
ATOM     19  N   UNL     1       5.127   5.857   0.996  0.00  0.00    -0.279 N 
ATOM     20  C   UNL     1       4.314   5.478  -0.010  0.00  0.00    +0.221 C 
ATOM     21  O   UNL     1       4.067   6.248  -0.913  0.00  0.00    -0.275 OA
ATOM     22  H   UNL     1       5.325   5.242   1.718  0.00  0.00    +0.155 HD
BRANCH  20  23
ATOM     23  C   UNL     1       3.712   4.096  -0.012  0.00  0.00    +0.078 C 
ATOM     24  C   UNL     1       2.836   3.923  -1.254  0.00  0.00    +0.030 C 
ATOM     25  C   UNL     1       2.253   2.507  -1.270  0.00  0.00    +0.110 C 
ATOM     26  N   UNL     1       1.553   2.269  -0.001  0.00  0.00    -0.176 NA
ATOM     27  C   UNL     1       2.276   2.499   1.258  0.00  0.00    +0.110 C 
ATOM     28  C   UNL     1       2.860   3.910   1.246  0.00  0.00    +0.030 C 
BRANCH  26  29
ATOM     29  S   UNL     1      -0.022   1.758   0.012  0.00  0.00    +0.067 S 
ATOM     30  O   UNL     1      -0.590   2.163  -1.226  0.00  0.00    -0.152 OA
ATOM     31  O   UNL     1      -0.566   2.150   1.264  0.00  0.00    -0.152 OA
BRANCH  29  32
ATOM     32  C   UNL     1       0.002  -0.004   0.002  0.00  0.00    +0.143 A 
ATOM     33  C   UNL     1       0.029  -0.863   1.050  0.00  0.00    +0.036 A 
ATOM     34  C   UNL     1       0.040  -2.223   0.802  0.00  0.00    +0.010 A 
ATOM     35  C   UNL     1       0.035  -2.657  -0.482  0.00  0.00    +0.047 A 
ATOM     36  S   UNL     1       0.005  -1.121  -1.391  0.00  0.00    -0.077 S 
ENDBRANCH  29  32
ENDBRANCH  26  29
ENDBRANCH  20  23
ENDBRANCH   8  19
TORSDOF 6
