REMARK  Name = ZINC63196554
REMARK  5 active torsions:
REMARK  status: ('A' for Active; 'I' for Inactive)
REMARK    1  A    between atoms: C_1  and  C_2
REMARK    2  A    between atoms: C_2  and  C_4
REMARK    3  A    between atoms: C_2  and  N_21
REMARK    4  A    between atoms: N_10  and  C_11
REMARK    5  A    between atoms: C_14  and  N_18
REMARK                            x       y       z     vdW  Elec       q    Type
REMARK                         _______ _______ _______ _____ _____    ______ ____
ROOT
ATOM      1  C   UNL     1       0.674  -0.204   1.405  0.00  0.00    +0.059 C 
ATOM      2  C   UNL     1       0.712  -1.735   1.450  0.00  0.00    +0.021 C 
ATOM      3  C   UNL     1       1.630  -2.186   2.589  0.00  0.00    +0.003 C 
ATOM      4  C   UNL     1       3.050  -1.675   2.334  0.00  0.00    +0.019 C 
ATOM      5  C   UNL     1       3.038  -0.143   2.300  0.00  0.00    +0.105 C 
ATOM      6  N   UNL     1       2.049   0.303   1.308  0.00  0.00    -0.328 N 
ENDROOT
BRANCH   6   7
ATOM      7  C   UNL     1       2.411   1.190   0.291  0.00  0.00    +0.044 A 
ATOM      8  C   UNL     1       2.058   2.530   0.377  0.00  0.00    +0.026 A 
ATOM      9  C   UNL     1       2.417   3.404  -0.630  0.00  0.00    +0.034 A 
ATOM     10  C   UNL     1       3.128   2.946  -1.725  0.00  0.00    +0.127 A 
ATOM     11  C   UNL     1       3.481   1.612  -1.815  0.00  0.00    +0.049 A 
ATOM     12  C   UNL     1       3.130   0.733  -0.807  0.00  0.00    +0.041 A 
ATOM     13 BR   UNL     1       3.621  -1.089  -0.927  0.00  0.00    -0.048 Br
BRANCH  10  14
ATOM     14  N   UNL     1       3.510   3.885  -2.803  0.00  0.00    +0.056 N 
ATOM     15  O   UNL     1       3.201   5.051  -2.726  0.00  0.00    -0.126 OA
ATOM     16  O   UNL     1       4.131   3.486  -3.760  0.00  0.00    -0.126 OA
ENDBRANCH  10  14
ENDBRANCH   6   7
BRANCH   1  18
ATOM     17  C   UNL     1      -1.604  -0.099   0.385  0.00  0.00    -0.012 C 
ATOM     18  C   UNL     1      -0.129   0.253   0.186  0.00  0.00    -0.058 C 
BRANCH  18  19
ATOM     19  N   UNL     1       0.378  -0.423  -1.016  0.00  0.00    +0.381 N 
ATOM     20  H   UNL     1      -0.070  -0.037  -1.833  0.00  0.00    -0.090 HD
ATOM     21  H   UNL     1       1.375  -0.286  -1.083  0.00  0.00    -0.090 HD
ATOM     22  H   UNL     1       0.177  -1.410  -0.957  0.00  0.00    -0.090 HD
ENDBRANCH  18  19
ENDBRANCH   1  18
TORSDOF 4
