REMARK  Name = ZINC39671397
REMARK  5 active torsions:
REMARK  status: ('A' for Active; 'I' for Inactive)
REMARK    1  A    between atoms: C_6  and  C_11
REMARK    2  A    between atoms: C_11  and  N_12
REMARK    3  A    between atoms: C_13  and  C_15
REMARK    4  A    between atoms: C_26  and  C_28
REMARK    5  A    between atoms: C_34  and  C_36
REMARK                            x       y       z     vdW  Elec       q    Type
REMARK                         _______ _______ _______ _____ _____    ______ ____
ROOT
ATOM      1  C   UNL     1      -8.318   0.159   3.116  0.00  0.00    +0.100 C 
ATOM      2  C   UNL     1      -7.817   1.334   3.985  0.00  0.00    +0.121 C 
ATOM      3  N   UNL     1      -8.933   2.309   3.975  0.00  0.00    -0.299 N 
ATOM      4  C   UNL     1     -10.154   1.474   4.062  0.00  0.00    +0.115 C 
ATOM      5  C   UNL     1      -9.852   0.252   3.172  0.00  0.00    -0.004 C 
ATOM      6  C   UNL     1     -10.436  -1.012   3.794  0.00  0.00    -0.010 C 
ATOM      7  C   UNL     1     -11.965  -0.921   3.786  0.00  0.00    -0.082 C 
ATOM      8  N   UNL     1     -12.440  -0.767   2.405  0.00  0.00    +0.379 N 
ATOM      9  C   UNL     1     -11.949   0.498   1.846  0.00  0.00    -0.082 C 
ATOM     10  C   UNL     1     -10.420   0.467   1.772  0.00  0.00    -0.010 C 
ATOM     11  C   UNL     1      -8.854   3.653   3.903  0.00  0.00    +0.236 C 
ATOM     12  O   UNL     1      -9.867   4.321   3.905  0.00  0.00    -0.274 OA
ATOM     13  H   UNL     1     -12.100  -1.535   1.846  0.00  0.00    -0.086 HD
ATOM     14  H   UNL     1     -13.449  -0.769   2.396  0.00  0.00    -0.086 HD
ENDROOT
BRANCH  11  15
ATOM     15  C   UNL     1      -7.508   4.326   3.820  0.00  0.00    +0.162 C 
ATOM     16  C   UNL     1      -6.878   4.416   5.226  0.00  0.00    +0.033 C 
ATOM     17  C   UNL     1      -6.195   5.809   5.212  0.00  0.00    +0.021 C 
ATOM     18  C   UNL     1      -7.191   6.635   4.361  0.00  0.00    +0.109 C 
ATOM     19  N   UNL     1      -7.666   5.700   3.320  0.00  0.00    -0.283 N 
ATOM     20  C   UNL     1      -8.161   6.045   2.115  0.00  0.00    +0.320 C 
ATOM     21  O   UNL     1      -8.522   5.186   1.339  0.00  0.00    -0.266 OA
BRANCH  20  22
ATOM     22  C   UNL     1      -8.267   7.499   1.733  0.00  0.00    +0.470 C 
ATOM     23  F   UNL     1      -8.806   7.605   0.446  0.00  0.00    -0.162 F 
ATOM     24  F   UNL     1      -9.098   8.162   2.643  0.00  0.00    -0.162 F 
ATOM     25  F   UNL     1      -6.995   8.080   1.755  0.00  0.00    -0.162 F 
ENDBRANCH  20  22
ENDBRANCH  11  15
BRANCH   1  27
ATOM     26  N   UNL     1      -7.641  -0.777   0.928  0.00  0.00    -0.309 N 
ATOM     27  C   UNL     1      -7.835   0.313   1.697  0.00  0.00    +0.219 C 
ATOM     28  O   UNL     1      -7.619   1.418   1.246  0.00  0.00    -0.275 OA
ATOM     29  H   UNL     1      -7.814  -1.661   1.289  0.00  0.00    +0.149 HD
BRANCH  26  30
ATOM     30  C   UNL     1      -7.171  -0.627  -0.451  0.00  0.00    +0.157 C 
BRANCH  30  36
ATOM     31  C   UNL     1      -6.084  -6.104  -2.871  0.00  0.00    +0.001 A 
ATOM     32  C   UNL     1      -7.434  -6.040  -3.188  0.00  0.00    +0.002 A 
ATOM     33  C   UNL     1      -8.186  -4.940  -2.839  0.00  0.00    +0.026 A 
ATOM     34  C   UNL     1      -7.590  -3.881  -2.163  0.00  0.00    +0.047 A 
ATOM     35  N   UNL     1      -8.056  -2.676  -1.689  0.00  0.00    -0.357 N 
ATOM     36  C   UNL     1      -7.038  -1.987  -1.087  0.00  0.00    +0.034 A 
ATOM     37  H   UNL     1      -8.970  -2.361  -1.770  0.00  0.00    +0.166 HD
ATOM     38  C   UNL     1      -5.904  -2.702  -1.147  0.00  0.00    +0.032 A 
ATOM     39  C   UNL     1      -6.221  -3.951  -1.844  0.00  0.00    -0.000 A 
ATOM     40  C   UNL     1      -5.479  -5.077  -2.202  0.00  0.00    +0.010 A 
ENDBRANCH  30  36
ENDBRANCH  26  30
ENDBRANCH   1  27
TORSDOF 5
