REMARK  Name = ZINC38690896
REMARK  5 active torsions:
REMARK  status: ('A' for Active; 'I' for Inactive)
REMARK    1  A    between atoms: C_4  and  N_7
REMARK    2  A    between atoms: C_8  and  C_10
REMARK    3  A    between atoms: C_10  and  N_11
REMARK    4  A    between atoms: C_13  and  C_20
REMARK    5  A    between atoms: N_21  and  N_22
REMARK                            x       y       z     vdW  Elec       q    Type
REMARK                         _______ _______ _______ _____ _____    ______ ____
ROOT
ATOM      1  N   UNL     1       4.719  -4.163   0.245  0.00  0.00    -0.337 N 
ATOM      2  C   UNL     1       4.642  -4.867   1.409  0.00  0.00    +0.096 A 
ATOM      3  C   UNL     1       4.408  -6.180   1.136  0.00  0.00    +0.020 A 
ATOM      4  C   UNL     1       4.333  -6.298  -0.331  0.00  0.00    +0.009 A 
ATOM      5  C   UNL     1       4.530  -5.001  -0.834  0.00  0.00    +0.050 A 
ATOM      6  C   UNL     1       4.508  -4.792  -2.209  0.00  0.00    +0.026 A 
ATOM      7  C   UNL     1       4.291  -5.852  -3.062  0.00  0.00    +0.002 A 
ATOM      8  C   UNL     1       4.093  -7.131  -2.564  0.00  0.00    +0.001 A 
ATOM      9  C   UNL     1       4.120  -7.361  -1.206  0.00  0.00    +0.010 A 
ENDROOT
BRANCH   3  10
ATOM     10  C   UNL     1       4.258  -7.269   2.115  0.00  0.00    +0.140 C 
ATOM     11  N   UNL     1       4.037  -8.483   1.707  0.00  0.00    -0.187 NA
BRANCH  11  12
ATOM     12  N   UNL     1       3.894  -9.519   2.639  0.00  0.00    -0.206 N 
ATOM     13  C   UNL     1       3.659 -10.807   2.207  0.00  0.00    +0.227 C 
ATOM     14  N   UNL     1       3.580 -11.021   0.914  0.00  0.00    -0.220 NA
ATOM     15  C   UNL     1       3.409 -12.400   0.463  0.00  0.00    +0.253 C 
ATOM     16  C   UNL     1       2.678 -13.129   1.581  0.00  0.00    +0.115 C 
ATOM     17  C   UNL     1       1.651 -13.789   0.977  0.00  0.00    +0.025 A 
ATOM     18  C   UNL     1       0.695 -14.713   1.466  0.00  0.00    +0.012 A 
ATOM     19  C   UNL     1      -0.227 -15.185   0.585  0.00  0.00    +0.001 A 
ATOM     20  C   UNL     1      -0.288 -14.816  -0.763  0.00  0.00    +0.002 A 
ATOM     21  C   UNL     1       0.581 -13.944  -1.341  0.00  0.00    +0.026 A 
ATOM     22  C   UNL     1       1.622 -13.385  -0.463  0.00  0.00    +0.046 A 
ATOM     23  N   UNL     1       2.587 -12.558  -0.728  0.00  0.00    -0.358 N 
ATOM     24  N   UNL     1       3.005 -12.937   2.863  0.00  0.00    -0.171 NA
ATOM     25  N   UNL     1       3.528 -11.780   3.140  0.00  0.00    -0.247 N 
ATOM     26  H   UNL     1       3.962  -9.331   3.588  0.00  0.00    +0.177 HD
ATOM     27  H   UNL     1       3.830 -11.606   4.045  0.00  0.00    +0.192 HD
ATOM     28  H   UNL     1       2.736 -12.118  -1.580  0.00  0.00    +0.162 HD
ENDBRANCH  11  12
ENDBRANCH   3  10
BRANCH   1  29
ATOM     29  C   UNL     1       4.962  -2.721   0.153  0.00  0.00    +0.217 C 
BRANCH  29  31
ATOM     30  N   UNL     1       3.622  -0.651  -0.037  0.00  0.00    -0.284 N 
ATOM     31  C   UNL     1       3.645  -1.995   0.057  0.00  0.00    +0.237 C 
ATOM     32  O   UNL     1       2.606  -2.620   0.064  0.00  0.00    -0.274 OA
ATOM     33  H   UNL     1       4.452  -0.156  -0.121  0.00  0.00    +0.155 HD
BRANCH  30  37
ATOM     34  C   UNL     1      -0.015   1.381   0.029  0.00  0.00    +0.000 A 
ATOM     35  C   UNL     1       0.140   0.218   0.763  0.00  0.00    +0.002 A 
ATOM     36  C   UNL     1       1.344  -0.457   0.743  0.00  0.00    +0.023 A 
ATOM     37  C   UNL     1       2.400   0.031  -0.015  0.00  0.00    +0.033 A 
ATOM     38  C   UNL     1       2.241   1.198  -0.751  0.00  0.00    +0.023 A 
ATOM     39  C   UNL     1       1.034   1.870  -0.727  0.00  0.00    +0.002 A 
ENDBRANCH  30  37
ENDBRANCH  29  31
ENDBRANCH   1  29
TORSDOF 5
