REMARK  Name = ZINC39206536
REMARK  7 active torsions:
REMARK  status: ('A' for Active; 'I' for Inactive)
REMARK    1  A    between atoms: C_1  and  C_2
REMARK    2  A    between atoms: C_7  and  N_8
REMARK    3  A    between atoms: C_9  and  C_11
REMARK    4  A    between atoms: C_15  and  N_16
REMARK    5  A    between atoms: C_17  and  C_19
REMARK    6  A    between atoms: C_19  and  N_20
REMARK    7  A    between atoms: N_23  and  C_26
REMARK                            x       y       z     vdW  Elec       q    Type
REMARK                         _______ _______ _______ _____ _____    ______ ____
ROOT
ATOM      1  C   UNL     1      -0.164   0.032   4.846  0.00  0.00    +0.069 A 
ATOM      2  C   UNL     1      -1.456   0.386   5.408  0.00  0.00    -0.023 A 
ATOM      3  C   UNL     1      -1.384   1.053   6.580  0.00  0.00    -0.004 A 
ATOM      4  S   UNL     1       0.348   1.196   6.911  0.00  0.00    -0.077 S 
ATOM      5  C   UNL     1       0.963   0.404   5.563  0.00  0.00    +0.084 A 
ATOM      6  C   UNL     1      -2.532   1.554   7.402  0.00  0.00    +0.043 C 
ATOM      7  C   UNL     1      -3.796   1.529   6.530  0.00  0.00    +0.005 C 
ATOM      8  C   UNL     1      -3.889   0.170   5.831  0.00  0.00    +0.005 C 
ATOM      9  C   UNL     1      -2.795   0.054   4.767  0.00  0.00    +0.037 C 
ENDROOT
BRANCH   1  11
ATOM     10  N   UNL     1       0.026  -0.015   2.417  0.00  0.00    -0.281 N 
ATOM     11  C   UNL     1      -0.056  -0.695   3.578  0.00  0.00    +0.251 C 
ATOM     12  O   UNL     1      -0.040  -1.912   3.573  0.00  0.00    -0.270 OA
ATOM     13  H   UNL     1       0.079   0.953   2.424  0.00  0.00    +0.155 HD
BRANCH  10  20
ATOM     14  C   UNL     1      -1.265   1.183   0.182  0.00  0.00    +0.045 C 
ATOM     15  C   UNL     1      -0.585  -0.158   0.085  0.00  0.00    -0.029 A 
ATOM     16  C   UNL     1      -0.570  -0.840  -1.116  0.00  0.00    +0.005 A 
ATOM     17  C   UNL     1       0.055  -2.070  -1.206  0.00  0.00    +0.000 A 
ATOM     18  C   UNL     1       0.666  -2.622  -0.095  0.00  0.00    +0.002 A 
ATOM     19  C   UNL     1       0.655  -1.945   1.108  0.00  0.00    +0.023 A 
ATOM     20  C   UNL     1       0.034  -0.706   1.201  0.00  0.00    +0.037 A 
ENDBRANCH  10  20
ENDBRANCH   1  11
BRANCH   5  21
ATOM     21  N   UNL     1       2.292   0.178   5.240  0.00  0.00    -0.278 N 
ATOM     22  C   UNL     1       3.268   0.614   6.061  0.00  0.00    +0.232 C 
ATOM     23  O   UNL     1       2.984   1.204   7.081  0.00  0.00    -0.274 OA
ATOM     24  H   UNL     1       2.519  -0.295   4.424  0.00  0.00    +0.155 HD
BRANCH  22  25
ATOM     25  C   UNL     1       4.713   0.368   5.710  0.00  0.00    +0.180 C 
BRANCH  25  26
ATOM     26  N   UNL     1       5.575   0.936   6.755  0.00  0.00    -0.298 NA
ATOM     27  C   UNL     1       5.472   2.402   6.783  0.00  0.00    +0.066 C 
ATOM     28  C   UNL     1       6.336   2.949   7.922  0.00  0.00    -0.064 C 
ATOM     29  N   UNL     1       7.732   2.543   7.716  0.00  0.00    +0.379 N 
ATOM     30  C   UNL     1       7.822   1.077   7.715  0.00  0.00    -0.064 C 
ATOM     31  C   UNL     1       6.971   0.514   6.575  0.00  0.00    +0.066 C 
ATOM     32  C   UNL     1       8.564   3.083   8.799  0.00  0.00    -0.096 C 
ATOM     33  H   UNL     1       8.059   2.900   6.830  0.00  0.00    -0.082 HD
ENDBRANCH  25  26
ENDBRANCH  22  25
ENDBRANCH   5  21
TORSDOF 5
