REMARK  Name = ZINC00989335
REMARK  3 active torsions:
REMARK  status: ('A' for Active; 'I' for Inactive)
REMARK    1  A    between atoms: C_1  and  C_2
REMARK    2  A    between atoms: C_13  and  C_23
REMARK    3  A    between atoms: C_15  and  C_17
REMARK                            x       y       z     vdW  Elec       q    Type
REMARK                         _______ _______ _______ _____ _____    ______ ____
ROOT
ATOM      1  C   UNL     1       3.651  -0.617  -0.036  0.00  0.00    +0.109 C 
ATOM      2  C   UNL     1       2.329   0.106  -0.019  0.00  0.00    +0.197 A 
ATOM      3  N   UNL     1       2.340   1.398  -0.012  0.00  0.00    -0.215 NA
ATOM      4  C   UNL     1       1.176   2.133   0.002  0.00  0.00    +0.094 A 
ATOM      5  C   UNL     1       1.042   3.532   0.010  0.00  0.00    +0.019 A 
ATOM      6  C   UNL     1      -0.231   4.047   0.028  0.00  0.00    +0.077 A 
ATOM      7  S   UNL     1      -1.285   2.627   0.021  0.00  0.00    -0.065 S 
ATOM      8  C   UNL     1      -0.017   1.386   0.010  0.00  0.00    +0.124 A 
ATOM      9  C   UNL     1       0.002  -0.004   0.002  0.00  0.00    +0.354 A 
ATOM     10  O   UNL     1      -1.035  -0.646   0.009  0.00  0.00    -0.244 OA
ATOM     11  O   UNL     1       1.206  -0.625  -0.013  0.00  0.00    -0.408 OA
ATOM     12  N   UNL     1      -0.542   5.385   0.044  0.00  0.00    -0.308 N 
ATOM     13  C   UNL     1       0.507   6.276   0.320  0.00  0.00    +0.043 C 
ATOM     14  C   UNL     1       1.774   5.878   0.306  0.00  0.00    +0.010 C 
ATOM     15  C   UNL     1       2.231   4.485  -0.006  0.00  0.00    +0.078 C 
ATOM     16  H   UNL     1      -1.444   5.699  -0.127  0.00  0.00    +0.153 HD
ENDROOT
BRANCH  15  17
ATOM     17  C   UNL     1       2.870   4.464  -1.371  0.00  0.00    -0.036 A 
ATOM     18  C   UNL     1       2.134   4.821  -2.485  0.00  0.00    +0.004 A 
ATOM     19  C   UNL     1       2.722   4.806  -3.736  0.00  0.00    +0.000 A 
ATOM     20  C   UNL     1       4.044   4.426  -3.873  0.00  0.00    +0.000 A 
ATOM     21  C   UNL     1       4.779   4.065  -2.760  0.00  0.00    +0.000 A 
ATOM     22  C   UNL     1       4.192   4.083  -1.509  0.00  0.00    +0.004 A 
ENDBRANCH  15  17
BRANCH  13  23
ATOM     23  C   UNL     1       0.196   7.684   0.631  0.00  0.00    +0.033 A 
ATOM     24  C   UNL     1      -1.025   8.303   0.700  0.00  0.00    +0.017 A 
ATOM     25  C   UNL     1      -1.069   9.644   1.013  0.00  0.00    +0.008 A 
ATOM     26  C   UNL     1       0.092  10.309   1.243  0.00  0.00    +0.046 A 
ATOM     27  S   UNL     1       1.310   9.022   1.025  0.00  0.00    -0.095 S 
ENDBRANCH  13  23
TORSDOF 2
