REMARK  Name = ZINC28831397
REMARK  6 active torsions:
REMARK  status: ('A' for Active; 'I' for Inactive)
REMARK    1  A    between atoms: C_6  and  C_7
REMARK    2  A    between atoms: C_10  and  S_13
REMARK    3  A    between atoms: S_13  and  C_14
REMARK    4  A    between atoms: C_14  and  C_15
REMARK    5  A    between atoms: N_17  and  C_18
REMARK    6  A    between atoms: C_21  and  C_24
REMARK                            x       y       z     vdW  Elec       q    Type
REMARK                         _______ _______ _______ _____ _____    ______ ____
ROOT
ATOM      1  C   UNL     1       4.048  -1.285   0.122  0.00  0.00    +0.173 C 
ENDROOT
BRANCH   1   2
ATOM      2  C   UNL     1       5.517  -1.625   0.111  0.00  0.00    +0.227 C 
ATOM      3  O   UNL     1       6.343  -0.750   0.266  0.00  0.00    -0.275 OA
ATOM      4  N   UNL     1       5.912  -2.900  -0.070  0.00  0.00    -0.285 N 
ATOM      5  H   UNL     1       5.164  -3.705  -0.124  0.00  0.00    +0.155 HD
BRANCH   4   6
ATOM      6  C   UNL     1       7.269  -3.199  -0.191  0.00  0.00    +0.033 A 
ATOM      7  C   UNL     1       8.127  -2.295  -0.807  0.00  0.00    +0.024 A 
ATOM      8  C   UNL     1       9.468  -2.585  -0.923  0.00  0.00    +0.015 A 
ATOM      9  C   UNL     1       9.964  -3.794  -0.430  0.00  0.00    +0.037 A 
ATOM     10  C   UNL     1       9.098  -4.703   0.184  0.00  0.00    +0.015 A 
ATOM     11  C   UNL     1       7.760  -4.404   0.301  0.00  0.00    +0.024 A 
BRANCH   9  12
ATOM     12  C   UNL     1      11.400  -4.111  -0.557  0.00  0.00    +0.242 C 
ATOM     13  O   UNL     1      11.831  -5.164  -0.128  0.00  0.00    -0.270 OA
ATOM     14  N   UNL     1      12.234  -3.233  -1.150  0.00  0.00    -0.325 N 
ATOM     15  H   UNL     1      13.304  -3.469  -1.245  0.00  0.00    +0.145 HD
ATOM     16  H   UNL     1      11.844  -2.281  -1.539  0.00  0.00    +0.145 HD
ENDBRANCH   9  12
ENDBRANCH   4   6
ENDBRANCH   1   2
BRANCH   1  17
ATOM     17  S   UNL     1       3.843   0.494   0.385  0.00  0.00    -0.077 S 
BRANCH  17  21
ATOM     18  C   UNL     1       0.029   1.345   0.408  0.00  0.00    +0.182 A 
ATOM     19  N   UNL     1       1.343   1.743   0.504  0.00  0.00    -0.201 NA
ATOM     20  H   UNL     1       1.438  -1.459   0.024  0.00  0.00    +0.191 HD
ATOM     21  C   UNL     1       2.085   0.607   0.353  0.00  0.00    +0.185 A 
ATOM     22  N   UNL     1       1.243  -0.388   0.180  0.00  0.00    -0.253 N 
ATOM     23  N   UNL     1       0.034   0.047   0.212  0.00  0.00    -0.152 NA
BRANCH  18  29
ATOM     24  C   UNL     1      -1.013   3.586   0.722  0.00  0.00    +0.013 A 
ATOM     25  C   UNL     1      -2.128   4.393   0.808  0.00  0.00    +0.021 A 
ATOM     26  C   UNL     1      -3.394   3.844   0.689  0.00  0.00    +0.041 A 
ATOM     27  C   UNL     1      -3.549   2.484   0.479  0.00  0.00    +0.021 A 
ATOM     28  C   UNL     1      -2.441   1.668   0.387  0.00  0.00    +0.013 A 
ATOM     29  C   UNL     1      -1.162   2.215   0.505  0.00  0.00    +0.021 A 
ATOM     30 CL   UNL     1      -4.793   4.865   0.806  0.00  0.00    -0.084 Cl
ENDBRANCH  18  29
ENDBRANCH  17  21
ENDBRANCH   1  17
TORSDOF 6
