REMARK  Name = ZINC27521648
REMARK  7 active torsions:
REMARK  status: ('A' for Active; 'I' for Inactive)
REMARK    1  A    between atoms: C_1  and  C_2
REMARK    2  A    between atoms: C_7  and  N_8
REMARK    3  A    between atoms: C_9  and  C_11
REMARK    4  A    between atoms: C_11  and  N_22
REMARK    5  A    between atoms: C_12  and  C_13
REMARK    6  A    between atoms: C_16  and  N_19
REMARK    7  A    between atoms: C_23  and  C_25
REMARK                            x       y       z     vdW  Elec       q    Type
REMARK                         _______ _______ _______ _____ _____    ______ ____
ROOT
ATOM      1  C   UNL     1      -0.501  -0.042  -0.046  0.00  0.00    +0.097 C 
ATOM      2  C   UNL     1      -0.679   1.292  -0.189  0.00  0.00    +0.036 C 
ENDROOT
BRANCH   2   3
ATOM      3  C   UNL     1      -2.037   1.859  -0.166  0.00  0.00    -0.023 A 
ATOM      4  C   UNL     1      -3.118   1.116  -0.650  0.00  0.00    +0.010 A 
ATOM      5  C   UNL     1      -4.387   1.653  -0.621  0.00  0.00    +0.033 A 
ATOM      6  C   UNL     1      -4.592   2.928  -0.122  0.00  0.00    +0.126 A 
ATOM      7  C   UNL     1      -3.527   3.671   0.354  0.00  0.00    +0.033 A 
ATOM      8  C   UNL     1      -2.252   3.147   0.336  0.00  0.00    +0.010 A 
BRANCH   6   9
ATOM      9  N   UNL     1      -5.957   3.499  -0.099  0.00  0.00    +0.056 N 
ATOM     10  O   UNL     1      -6.141   4.620   0.339  0.00  0.00    -0.126 OA
ATOM     11  O   UNL     1      -6.897   2.847  -0.518  0.00  0.00    -0.126 OA
ENDBRANCH   6   9
ENDBRANCH   2   3
BRANCH   1  13
ATOM     12  N   UNL     1      -2.232  -0.827   1.486  0.00  0.00    -0.280 N 
ATOM     13  C   UNL     1      -1.646  -0.906   0.275  0.00  0.00    +0.262 C 
ATOM     14  O   UNL     1      -2.065  -1.694  -0.553  0.00  0.00    -0.268 OA
ATOM     15  H   UNL     1      -1.922  -0.047   2.197  0.00  0.00    +0.155 HD
BRANCH  12  22
ATOM     16  C   UNL     1      -3.979  -0.137   3.623  0.00  0.00    +0.045 C 
ATOM     17  C   UNL     1      -4.108  -1.440   2.877  0.00  0.00    -0.029 A 
ATOM     18  C   UNL     1      -5.097  -2.340   3.223  0.00  0.00    +0.005 A 
ATOM     19  C   UNL     1      -5.217  -3.535   2.537  0.00  0.00    +0.000 A 
ATOM     20  C   UNL     1      -4.347  -3.833   1.504  0.00  0.00    +0.002 A 
ATOM     21  C   UNL     1      -3.360  -2.936   1.150  0.00  0.00    +0.023 A 
ATOM     22  C   UNL     1      -3.233  -1.736   1.839  0.00  0.00    +0.037 A 
ENDBRANCH  12  22
ENDBRANCH   1  13
BRANCH   1  23
ATOM     23  N   UNL     1       0.772  -0.598  -0.203  0.00  0.00    -0.277 N 
ATOM     24  C   UNL     1       0.955  -1.921  -0.029  0.00  0.00    +0.249 C 
ATOM     25  O   UNL     1       0.001  -2.645   0.183  0.00  0.00    -0.270 OA
ATOM     26  H   UNL     1       1.624   0.045  -0.469  0.00  0.00    +0.155 HD
BRANCH  24  27
ATOM     27  C   UNL     1       2.316  -2.494  -0.097  0.00  0.00    +0.051 A 
ATOM     28  C   UNL     1       3.413  -1.667  -0.347  0.00  0.00    +0.014 A 
ATOM     29  C   UNL     1       4.681  -2.207  -0.404  0.00  0.00    +0.001 A 
ATOM     30  C   UNL     1       4.866  -3.567  -0.225  0.00  0.00    +0.001 A 
ATOM     31  C   UNL     1       3.784  -4.393   0.018  0.00  0.00    +0.016 A 
ATOM     32  C   UNL     1       2.510  -3.865   0.082  0.00  0.00    +0.030 A 
ATOM     33 BR   UNL     1       1.031  -4.997   0.413  0.00  0.00    -0.050 Br
ENDBRANCH  24  27
ENDBRANCH   1  23
TORSDOF 6
