REMARK  Name = ZINC26302358
REMARK  5 active torsions:
REMARK  status: ('A' for Active; 'I' for Inactive)
REMARK    1  A    between atoms: C_3  and  C_6
REMARK    2  A    between atoms: C_6  and  C_8
REMARK    3  A    between atoms: C_6  and  N_15
REMARK    4  A    between atoms: N_18  and  C_19
REMARK    5  A    between atoms: C_19  and  C_20
REMARK                            x       y       z     vdW  Elec       q    Type
REMARK                         _______ _______ _______ _____ _____    ______ ____
ROOT
ATOM      1  N   UNL     1       4.569   1.019  -0.924  0.00  0.00    -0.288 N 
ATOM      2  C   UNL     1       4.598   1.290  -2.244  0.00  0.00    +0.301 C 
ATOM      3  O   UNL     1       3.953   2.221  -2.688  0.00  0.00    -0.253 OA
ATOM      4  N   UNL     1       5.342   0.530  -3.072  0.00  0.00    -0.295 N 
ATOM      5  H   UNL     1       5.084   0.277  -0.570  0.00  0.00    +0.151 HD
ATOM      6  H   UNL     1       5.857  -0.212  -2.718  0.00  0.00    +0.151 HD
ENDROOT
BRANCH   1   7
ATOM      7  C   UNL     1       3.761   1.845  -0.024  0.00  0.00    +0.142 C 
BRANCH   7   8
ATOM      8  C   UNL     1       4.330   1.776   1.369  0.00  0.00    -0.022 A 
ATOM      9  C   UNL     1       4.808   0.576   1.861  0.00  0.00    +0.008 A 
ATOM     10  C   UNL     1       5.331   0.511   3.139  0.00  0.00    +0.038 A 
ATOM     11  C   UNL     1       5.377   1.649   3.926  0.00  0.00    +0.123 A 
ATOM     12  C   UNL     1       4.899   2.851   3.432  0.00  0.00    +0.038 A 
ATOM     13  C   UNL     1       4.381   2.914   2.152  0.00  0.00    +0.008 A 
ATOM     14  F   UNL     1       5.888   1.587   5.175  0.00  0.00    -0.205 F 
ENDBRANCH   7   8
BRANCH   7  17
ATOM     15  C   UNL     1      -0.016   1.351   0.009  0.00  0.00    +0.008 A 
ATOM     16  C   UNL     1       1.183   2.038   0.002  0.00  0.00    +0.013 A 
ATOM     17  C   UNL     1       2.343   1.336  -0.013  0.00  0.00    +0.014 A 
ATOM     18  S   UNL     1       1.754  -0.349  -0.017  0.00  0.00    -0.099 S 
ATOM     19  C   UNL     1       0.002  -0.004   0.002  0.00  0.00    +0.045 A 
ENDBRANCH   7  17
ENDBRANCH   1   7
BRANCH   4  20
ATOM     20  C   UNL     1       5.374   0.825  -4.507  0.00  0.00    +0.141 C 
BRANCH  20  21
ATOM     21  C   UNL     1       6.272  -0.164  -5.203  0.00  0.00    -0.026 A 
ATOM     22  C   UNL     1       7.628   0.094  -5.356  0.00  0.00    +0.023 A 
ATOM     23  C   UNL     1       8.425  -0.832  -5.999  0.00  0.00    +0.084 A 
ATOM     24  N   UNL     1       7.914  -1.955  -6.466  0.00  0.00    -0.350 N 
ATOM     25  C   UNL     1       6.627  -2.238  -6.340  0.00  0.00    +0.099 A 
ATOM     26  C   UNL     1       5.767  -1.352  -5.699  0.00  0.00    +0.047 A 
ATOM     27  N   UNL     1       6.131  -3.433  -6.848  0.00  0.00    -0.317 N 
ATOM     28  C   UNL     1       4.729  -3.874  -6.787  0.00  0.00    +0.106 C 
ATOM     29  C   UNL     1       4.658  -5.265  -7.452  0.00  0.00    +0.020 C 
ATOM     30  C   UNL     1       6.118  -5.777  -7.345  0.00  0.00    +0.020 C 
ATOM     31  C   UNL     1       6.921  -4.465  -7.544  0.00  0.00    +0.106 C 
ATOM     32  H   UNL     1       8.496  -2.590  -6.914  0.00  0.00    +0.166 HD
ENDBRANCH  20  21
ENDBRANCH   4  20
TORSDOF 5
