REMARK  Name = ZINC18157427
REMARK  6 active torsions:
REMARK  status: ('A' for Active; 'I' for Inactive)
REMARK    1  A    between atoms: C_1  and  C_2
REMARK    2  A    between atoms: C_2  and  C_3
REMARK    3  A    between atoms: C_2  and  C_4
REMARK    4  A    between atoms: C_4  and  O_5
REMARK    5  A    between atoms: O_5  and  C_6
REMARK    6  A    between atoms: C_9  and  C_12
REMARK                            x       y       z     vdW  Elec       q    Type
REMARK                         _______ _______ _______ _____ _____    ______ ____
ROOT
ATOM      1  C   UNL     1       1.171   1.653  -0.000  0.00  0.00    +0.142 A 
ATOM      2  N   UNL     1      -0.011   0.966   0.007  0.00  0.00    -0.306 N 
ATOM      3  H   UNL     1      -0.008  -0.134   0.006  0.00  0.00    +0.170 HD
ATOM      4  C   UNL     1      -1.192   1.611   0.017  0.00  0.00    +0.260 A 
ATOM      5  O   UNL     1      -2.238   0.985   0.018  0.00  0.00    -0.267 OA
ATOM      6  C   UNL     1      -1.203   3.044   0.030  0.00  0.00    +0.075 A 
ATOM      7  C   UNL     1      -2.357   3.941   0.047  0.00  0.00    -0.023 A 
ATOM      8  C   UNL     1      -2.104   5.266   0.052  0.00  0.00    -0.004 A 
ATOM      9  S   UNL     1      -0.336   5.396   0.035  0.00  0.00    -0.073 S 
ATOM     10  C   UNL     1       0.058   3.665   0.021  0.00  0.00    +0.116 A 
ATOM     11  N   UNL     1       1.188   2.970   0.007  0.00  0.00    -0.222 NA
ATOM     12  C   UNL     1      -3.104   6.382   0.068  0.00  0.00    +0.043 C 
ATOM     13  C   UNL     1      -4.479   5.804  -0.296  0.00  0.00    +0.005 C 
ATOM     14  C   UNL     1      -4.718   4.541   0.536  0.00  0.00    +0.005 C 
ATOM     15  C   UNL     1      -3.793   3.421   0.058  0.00  0.00    +0.037 C 
ENDROOT
BRANCH   1  19
ATOM     16  C   UNL     1       4.839  -0.487  -0.047  0.00  0.00    +0.121 A 
ATOM     17  C   UNL     1       4.848   0.902  -0.040  0.00  0.00    +0.046 A 
ATOM     18  C   UNL     1       3.660   1.601  -0.025  0.00  0.00    +0.015 A 
ATOM     19  C   UNL     1       2.446   0.909  -0.017  0.00  0.00    +0.018 A 
ATOM     20  C   UNL     1       2.442  -0.488  -0.019  0.00  0.00    +0.015 A 
ATOM     21  C   UNL     1       3.634  -1.178  -0.040  0.00  0.00    +0.046 A 
BRANCH  16  22
ATOM     22  O   UNL     1       6.011  -1.171  -0.062  0.00  0.00    -0.492 OA
BRANCH  22  23
ATOM     23  C   UNL     1       5.930  -2.598  -0.069  0.00  0.00    +0.232 C 
BRANCH  23  25
ATOM     24  C   UNL     1       8.059  -2.831   1.218  0.00  0.00    +0.010 C 
ATOM     25  C   UNL     1       7.341  -3.189  -0.085  0.00  0.00    +0.020 C 
ATOM     26  C   UNL     1       7.255  -4.711  -0.218  0.00  0.00    +0.010 C 
ENDBRANCH  23  25
ENDBRANCH  22  23
ENDBRANCH  16  22
ENDBRANCH   1  19
TORSDOF 4
