REMARK  Name = ZINC36313014
REMARK  16 active torsions:
REMARK  status: ('A' for Active; 'I' for Inactive)
REMARK    1  A    between atoms: C_1  and  O_2
REMARK    2  A    between atoms: O_2  and  C_3
REMARK    3  A    between atoms: C_3  and  C_4
REMARK    4  A    between atoms: C_4  and  C_5
REMARK    5  A    between atoms: C_5  and  N_6
REMARK    6  A    between atoms: N_6  and  C_7
REMARK    7  A    between atoms: N_6  and  C_25
REMARK    8  A    between atoms: C_7  and  C_8
REMARK    9  A    between atoms: C_9  and  C_19
REMARK   10  A    between atoms: C_12  and  N_13
REMARK   11  A    between atoms: C_25  and  C_26
REMARK   12  A    between atoms: C_26  and  C_28
REMARK   13  A    between atoms: C_26  and  O_37
REMARK   14  A    between atoms: C_28  and  O_29
REMARK   15  A    between atoms: O_29  and  C_30
REMARK   16  A    between atoms: C_30  and  C_31
REMARK                            x       y       z     vdW  Elec       q    Type
REMARK                         _______ _______ _______ _____ _____    ______ ____
ROOT
ATOM      1  N   UNL     1       1.305  -4.064  -1.091  0.00  0.00    +0.384 N 
ATOM      2  H   UNL     1       1.577  -4.514  -0.230  0.00  0.00    -0.081 HD
ENDROOT
BRANCH   1   3
ATOM      3  C   UNL     1       1.384  -2.607  -0.930  0.00  0.00    -0.076 C 
BRANCH   3   4
ATOM      4  C   UNL     1       0.558  -2.183   0.286  0.00  0.00    +0.009 C 
BRANCH   4   5
ATOM      5  C   UNL     1       0.745  -0.684   0.533  0.00  0.00    +0.157 C 
BRANCH   5   7
ATOM      6  C   UNL     1       0.079   1.101   1.988  0.00  0.00    +0.193 C 
ATOM      7  O   UNL     1      -0.026  -0.288   1.669  0.00  0.00    -0.383 OA
ENDBRANCH   5   7
ENDBRANCH   4   5
ENDBRANCH   3   4
ENDBRANCH   1   3
BRANCH   1   8
ATOM      8  C   UNL     1       2.208  -4.487  -2.170  0.00  0.00    -0.035 C 
BRANCH   8   9
ATOM      9  C   UNL     1       3.628  -4.151  -1.797  0.00  0.00    +0.025 A 
ATOM     10  C   UNL     1       4.342  -3.002  -2.197  0.00  0.00    +0.117 A 
ATOM     11  N   UNL     1       5.543  -3.068  -1.671  0.00  0.00    -0.076 NA
ATOM     12  O   UNL     1       5.626  -4.265  -0.918  0.00  0.00    -0.339 OA
ATOM     13  C   UNL     1       4.445  -4.898  -1.011  0.00  0.00    +0.222 A 
BRANCH  13  14
ATOM     14  N   UNL     1       4.119  -6.101  -0.412  0.00  0.00    -0.299 N 
ATOM     15  C   UNL     1       4.450  -7.376  -1.063  0.00  0.00    +0.108 C 
ATOM     16  C   UNL     1       5.244  -8.241  -0.079  0.00  0.00    +0.019 C 
ATOM     17  C   UNL     1       4.449  -8.387   1.220  0.00  0.00    +0.003 C 
ATOM     18  C   UNL     1       4.239  -7.008   1.850  0.00  0.00    +0.019 C 
ATOM     19  C   UNL     1       3.440  -6.130   0.891  0.00  0.00    +0.108 C 
ENDBRANCH  13  14
BRANCH  10  20
ATOM     20  C   UNL     1       3.826  -1.911  -3.062  0.00  0.00    +0.004 A 
ATOM     21  C   UNL     1       3.087  -2.214  -4.203  0.00  0.00    +0.010 A 
ATOM     22  C   UNL     1       2.610  -1.196  -5.003  0.00  0.00    +0.001 A 
ATOM     23  C   UNL     1       2.863   0.123  -4.673  0.00  0.00    +0.000 A 
ATOM     24  C   UNL     1       3.596   0.429  -3.541  0.00  0.00    +0.001 A 
ATOM     25  C   UNL     1       4.074  -0.581  -2.731  0.00  0.00    +0.010 A 
ENDBRANCH  10  20
ENDBRANCH   8   9
ENDBRANCH   1   8
BRANCH   1  26
ATOM     26  C   UNL     1      -0.073  -4.446  -1.428  0.00  0.00    -0.044 C 
BRANCH  26  27
ATOM     27  C   UNL     1      -0.195  -5.971  -1.427  0.00  0.00    +0.124 C 
BRANCH  27  28
ATOM     28  O   UNL     1       0.550  -6.509  -2.521  0.00  0.00    -0.391 OA
ATOM     29  H   UNL     1       0.254  -6.200  -3.389  0.00  0.00    +0.210 HD
ENDBRANCH  27  28
BRANCH  27  30
ATOM     30  C   UNL     1      -1.667  -6.365  -1.569  0.00  0.00    +0.189 C 
BRANCH  30  31
ATOM     31  O   UNL     1      -1.794  -7.784  -1.451  0.00  0.00    -0.373 OA
BRANCH  31  32
ATOM     32  C   UNL     1      -3.136  -8.259  -1.569  0.00  0.00    +0.195 C 
BRANCH  32  33
ATOM     33  C   UNL     1      -3.152  -9.759  -1.430  0.00  0.00    -0.022 A 
ATOM     34  C   UNL     1      -3.009 -10.559  -2.549  0.00  0.00    +0.006 A 
ATOM     35  C   UNL     1      -3.024 -11.935  -2.421  0.00  0.00    +0.000 A 
ATOM     36  C   UNL     1      -3.180 -12.512  -1.175  0.00  0.00    +0.000 A 
ATOM     37  C   UNL     1      -3.321 -11.713  -0.056  0.00  0.00    +0.000 A 
ATOM     38  C   UNL     1      -3.303 -10.336  -0.183  0.00  0.00    +0.006 A 
ENDBRANCH  32  33
ENDBRANCH  31  32
ENDBRANCH  30  31
ENDBRANCH  27  30
ENDBRANCH  26  27
ENDBRANCH   1  26
TORSDOF 15
