REMARK  Name = ZINC38920994
REMARK  7 active torsions:
REMARK  status: ('A' for Active; 'I' for Inactive)
REMARK    1  A    between atoms: C_1  and  C_2
REMARK    2  A    between atoms: C_6  and  N_8
REMARK    3  A    between atoms: C_10  and  C_15
REMARK    4  A    between atoms: C_17  and  C_20
REMARK    5  A    between atoms: C_20  and  C_21
REMARK    6  A    between atoms: C_20  and  C_22
REMARK    7  A    between atoms: C_20  and  C_23
REMARK                            x       y       z     vdW  Elec       q    Type
REMARK                         _______ _______ _______ _____ _____    ______ ____
ROOT
ATOM      1  N   UNL     1       0.050  -2.796   2.396  0.00  0.00    -0.268 N 
ATOM      2  C   UNL     1       1.271  -3.194   3.107  0.00  0.00    +0.127 C 
ATOM      3  C   UNL     1       0.817  -3.538   4.543  0.00  0.00    +0.104 C 
ATOM      4  C   UNL     1      -0.664  -3.925   4.322  0.00  0.00    +0.111 C 
ATOM      5  C   UNL     1      -1.051  -3.194   3.056  0.00  0.00    +0.221 C 
ATOM      6  O   UNL     1      -2.190  -2.997   2.688  0.00  0.00    -0.275 OA
ENDROOT
BRANCH   1  12
ATOM      7  C   UNL     1      -0.018   1.503   0.010  0.00  0.00    +0.044 C 
ATOM      8  C   UNL     1       0.002  -0.004   0.002  0.00  0.00    -0.049 A 
ATOM      9  C   UNL     1       0.006  -0.688  -1.200  0.00  0.00    +0.006 A 
ATOM     10  C   UNL     1       0.024  -2.070  -1.213  0.00  0.00    +0.040 A 
ATOM     11  C   UNL     1       0.039  -2.774  -0.022  0.00  0.00    +0.145 A 
ATOM     12  C   UNL     1       0.035  -2.088   1.188  0.00  0.00    +0.072 A 
ATOM     13  C   UNL     1       0.023  -0.700   1.195  0.00  0.00    +0.029 A 
ATOM     14  F   UNL     1       0.056  -4.124  -0.034  0.00  0.00    -0.204 F 
ENDBRANCH   1  12
BRANCH   3  15
ATOM     15  C   UNL     1       0.932  -2.338   5.448  0.00  0.00    +0.232 A 
ATOM     16  N   UNL     1       1.669  -2.258   6.520  0.00  0.00    -0.195 NA
ATOM     17  C   UNL     1       1.534  -1.051   7.081  0.00  0.00    +0.177 A 
ATOM     18  N   UNL     1       0.704  -0.345   6.367  0.00  0.00    -0.061 NA
ATOM     19  O   UNL     1       0.300  -1.169   5.285  0.00  0.00    -0.338 OA
BRANCH  17  20
ATOM     20  C   UNL     1       2.228  -0.584   8.335  0.00  0.00    +0.025 C 
ATOM     21  C   UNL     1       3.743  -0.640   8.130  0.00  0.00    +0.019 C 
ATOM     22  C   UNL     1       1.808   0.855   8.644  0.00  0.00    +0.019 C 
ATOM     23  C   UNL     1       1.837  -1.492   9.502  0.00  0.00    +0.019 C 
ENDBRANCH  17  20
ENDBRANCH   3  15
TORSDOF 3
