REMARK  Name = ZINC35971403
REMARK  10 active torsions:
REMARK  status: ('A' for Active; 'I' for Inactive)
REMARK    1  A    between atoms: C_1  and  C_2
REMARK    2  A    between atoms: C_5  and  C_9
REMARK    3  A    between atoms: C_6  and  C_8
REMARK    4  A    between atoms: N_14  and  C_17
REMARK    5  A    between atoms: C_17  and  C_19
REMARK    6  A    between atoms: C_17  and  C_25
REMARK    7  A    between atoms: N_27  and  C_28
REMARK    8  A    between atoms: C_28  and  C_29
REMARK    9  A    between atoms: N_35  and  C_39
REMARK   10  A    between atoms: C_39  and  C_40
REMARK                            x       y       z     vdW  Elec       q    Type
REMARK                         _______ _______ _______ _____ _____    ______ ____
ROOT
ATOM      1  C   UNL     1      -0.312  -4.477   0.192  0.00  0.00    +0.142 C 
ATOM      2  C   UNL     1      -1.738  -4.919   0.454  0.00  0.00    +0.058 C 
ATOM      3  C   UNL     1      -2.342  -5.675  -0.484  0.00  0.00    +0.043 C 
ATOM      4  C   UNL     1      -3.733  -5.965   0.035  0.00  0.00    +0.160 C 
ATOM      5  N   UNL     1      -3.800  -5.287   1.337  0.00  0.00    -0.277 N 
ATOM      6  C   UNL     1      -2.611  -4.690   1.538  0.00  0.00    +0.247 C 
ATOM      7  O   UNL     1      -2.325  -4.038   2.526  0.00  0.00    -0.270 OA
ATOM      8  N   UNL     1      -1.694  -6.031  -1.632  0.00  0.00    -0.253 N 
ATOM      9  C   UNL     1      -0.436  -5.669  -1.915  0.00  0.00    +0.307 C 
ATOM     10  O   UNL     1       0.059  -6.034  -2.964  0.00  0.00    -0.252 OA
ATOM     11  N   UNL     1       0.298  -4.913  -1.076  0.00  0.00    -0.288 N 
ATOM     12  H   UNL     1       1.207  -4.662  -1.302  0.00  0.00    +0.151 HD
ENDROOT
BRANCH   1  17
ATOM     13  C   UNL     1      -0.183   1.299   0.340  0.00  0.00    +0.044 C 
ATOM     14  C   UNL     1      -0.217  -0.207   0.301  0.00  0.00    -0.050 A 
ATOM     15  C   UNL     1      -1.403  -0.866   0.037  0.00  0.00    +0.004 A 
ATOM     16  C   UNL     1      -1.434  -2.247   0.002  0.00  0.00    +0.006 A 
ATOM     17  C   UNL     1      -0.278  -2.971   0.229  0.00  0.00    -0.020 A 
ATOM     18  C   UNL     1       0.908  -2.312   0.492  0.00  0.00    -0.045 A 
ATOM     19  C   UNL     1       0.940  -0.931   0.523  0.00  0.00    +0.007 A 
ATOM     20  C   UNL     1       2.168  -3.101   0.741  0.00  0.00    +0.044 C 
ENDBRANCH   1  17
BRANCH   5  21
ATOM     21  C   UNL     1      -4.947  -5.264   2.248  0.00  0.00    +0.193 C 
BRANCH  21  22
ATOM     22  C   UNL     1      -5.475  -3.857   2.357  0.00  0.00    -0.018 A 
ATOM     23  C   UNL     1      -5.517  -3.046   1.238  0.00  0.00    +0.006 A 
ATOM     24  C   UNL     1      -6.001  -1.755   1.338  0.00  0.00    +0.000 A 
ATOM     25  C   UNL     1      -6.443  -1.275   2.557  0.00  0.00    +0.000 A 
ATOM     26  C   UNL     1      -6.401  -2.086   3.676  0.00  0.00    +0.000 A 
ATOM     27  C   UNL     1      -5.921  -3.378   3.575  0.00  0.00    +0.006 A 
ENDBRANCH  21  22
BRANCH  21  28
ATOM     28  C   UNL     1      -6.030  -6.167   1.714  0.00  0.00    +0.238 C 
ATOM     29  O   UNL     1      -5.860  -6.769   0.675  0.00  0.00    -0.273 OA
ATOM     30  N   UNL     1      -7.187  -6.304   2.391  0.00  0.00    -0.311 N 
ATOM     31  H   UNL     1      -7.323  -5.822   3.221  0.00  0.00    +0.149 HD
BRANCH  30  32
ATOM     32  C   UNL     1      -8.240  -7.181   1.871  0.00  0.00    +0.135 C 
BRANCH  32  33
ATOM     33  C   UNL     1      -9.438  -7.158   2.822  0.00  0.00    +0.135 C 
ATOM     34  C   UNL     1     -10.503  -8.170   2.348  0.00  0.00    +0.035 C 
ATOM     35  C   UNL     1     -11.828  -7.407   2.621  0.00  0.00    +0.031 C 
ATOM     36  C   UNL     1     -11.392  -5.949   2.333  0.00  0.00    +0.160 C 
ATOM     37  O   UNL     1     -10.040  -5.858   2.814  0.00  0.00    -0.375 OA
ENDBRANCH  32  33
ENDBRANCH  30  32
ENDBRANCH  21  28
ENDBRANCH   5  21
BRANCH   8  38
ATOM     38  C   UNL     1      -2.414  -6.854  -2.607  0.00  0.00    +0.141 C 
BRANCH  38  39
ATOM     39  C   UNL     1      -3.143  -5.962  -3.578  0.00  0.00    -0.015 C 
ATOM     40  C   UNL     1      -2.942  -6.092  -4.866  0.00  0.00    +0.005 C 
ENDBRANCH  38  39
ENDBRANCH   8  38
TORSDOF 8
