REMARK  Name = ZINC39550190
REMARK  8 active torsions:
REMARK  status: ('A' for Active; 'I' for Inactive)
REMARK    1  A    between atoms: C_1  and  C_2
REMARK    2  A    between atoms: C_2  and  C_3
REMARK    3  A    between atoms: C_3  and  C_4
REMARK    4  A    between atoms: C_4  and  N_5
REMARK    5  A    between atoms: C_12  and  O_34
REMARK    6  A    between atoms: C_14  and  C_18
REMARK    7  A    between atoms: N_20  and  C_21
REMARK    8  A    between atoms: C_23  and  O_33
REMARK                            x       y       z     vdW  Elec       q    Type
REMARK                         _______ _______ _______ _____ _____    ______ ____
ROOT
ATOM      1  C   UNL     1       2.039  -2.067   5.547  0.00  0.00    +0.229 C 
ATOM      2  O   UNL     1       3.230  -1.975   5.755  0.00  0.00    -0.275 OA
ATOM      3  N   UNL     1       1.201  -1.110   5.992  0.00  0.00    -0.297 N 
ATOM      4  H   UNL     1       0.249  -1.183   5.826  0.00  0.00    +0.150 HD
ENDROOT
BRANCH   3   5
ATOM      5  C   UNL     1       1.730   0.042   6.728  0.00  0.00    +0.226 C 
ATOM      6  C   UNL     1       0.649   0.525   7.675  0.00  0.00    +0.132 C 
ATOM      7  C   UNL     1       0.230   1.850   7.538  0.00  0.00    +0.036 A 
ATOM      8  C   UNL     1      -0.770   2.380   8.379  0.00  0.00    +0.013 A 
ATOM      9  C   UNL     1      -1.159   3.675   8.224  0.00  0.00    +0.001 A 
ATOM     10  C   UNL     1      -0.590   4.490   7.251  0.00  0.00    +0.002 A 
ATOM     11  C   UNL     1       0.380   4.034   6.410  0.00  0.00    +0.024 A 
ATOM     12  C   UNL     1       0.831   2.707   6.513  0.00  0.00    +0.044 A 
ATOM     13  N   UNL     1       1.785   2.261   5.685  0.00  0.00    -0.283 N 
ATOM     14  C   UNL     1       2.260   1.034   5.718  0.00  0.00    +0.245 C 
ATOM     15  O   UNL     1       3.128   0.698   4.933  0.00  0.00    -0.273 OA
ATOM     16  H   UNL     1       2.145   2.876   5.027  0.00  0.00    +0.155 HD
BRANCH   6  17
ATOM     17  O   UNL     1       0.119  -0.282   8.601  0.00  0.00    -0.508 OA
ATOM     18  H   UNL     1      -0.560   0.137   9.146  0.00  0.00    +0.292 HD
ENDBRANCH   6  17
ENDBRANCH   3   5
BRANCH   1  27
ATOM     19  N   UNL     1       1.471  -2.526   2.420  0.00  0.00    -0.270 N 
ATOM     20  C   UNL     1       2.853  -2.733   2.367  0.00  0.00    +0.042 A 
ATOM     21  C   UNL     1       3.611  -2.139   1.367  0.00  0.00    +0.024 A 
ATOM     22  C   UNL     1       4.975  -2.347   1.321  0.00  0.00    +0.002 A 
ATOM     23  C   UNL     1       5.587  -3.146   2.270  0.00  0.00    +0.000 A 
ATOM     24  C   UNL     1       4.835  -3.739   3.267  0.00  0.00    +0.008 A 
ATOM     25  C   UNL     1       3.470  -3.535   3.318  0.00  0.00    +0.003 A 
ATOM     26  C   UNL     1       2.648  -4.179   4.404  0.00  0.00    +0.167 C 
ATOM     27  C   UNL     1       1.496  -3.252   4.791  0.00  0.00    +0.194 C 
ATOM     28  C   UNL     1       0.789  -2.764   3.555  0.00  0.00    +0.235 C 
ATOM     29  O   UNL     1      -0.411  -2.589   3.581  0.00  0.00    -0.274 OA
BRANCH  26  30
ATOM     30  O   UNL     1       2.121  -5.420   3.929  0.00  0.00    -0.386 OA
ATOM     31  H   UNL     1       2.797  -6.059   3.665  0.00  0.00    +0.210 HD
ENDBRANCH  26  30
BRANCH  19  32
ATOM     32  C   UNL     1       0.763  -2.041   1.233  0.00  0.00    +0.114 C 
BRANCH  32  33
ATOM     33  C   UNL     1       0.742  -0.511   1.242  0.00  0.00    +0.019 C 
BRANCH  33  35
ATOM     34  C   UNL     1      -0.019   1.526   0.010  0.00  0.00    +0.004 C 
ATOM     35  C   UNL     1       0.002  -0.004   0.002  0.00  0.00    -0.002 C 
ENDBRANCH  33  35
ENDBRANCH  32  33
ENDBRANCH  19  32
ENDBRANCH   1  27
TORSDOF 7
