REMARK  Name = ZINC33937039
REMARK  13 active torsions:
REMARK  status: ('A' for Active; 'I' for Inactive)
REMARK    1  A    between atoms: C_1  and  C_2
REMARK    2  A    between atoms: C_2  and  C_3
REMARK    3  A    between atoms: C_3  and  C_5
REMARK    4  A    between atoms: C_3  and  N_17
REMARK    5  A    between atoms: N_9  and  C_10
REMARK    6  A    between atoms: C_10  and  C_11
REMARK    7  A    between atoms: N_17  and  C_18
REMARK    8  A    between atoms: N_17  and  C_26
REMARK    9  A    between atoms: C_18  and  C_19
REMARK   10  A    between atoms: C_19  and  C_20
REMARK   11  A    between atoms: C_26  and  C_27
REMARK   12  A    between atoms: C_31  and  C_40
REMARK   13  A    between atoms: C_32  and  C_39
REMARK                            x       y       z     vdW  Elec       q    Type
REMARK                         _______ _______ _______ _____ _____    ______ ____
ROOT
ATOM      1  N   UNL     1      -1.508   0.191  -1.218  0.00  0.00    +0.389 N 
ATOM      2  H   UNL     1      -1.599  -0.374  -2.050  0.00  0.00    -0.080 HD
ENDROOT
BRANCH   1   3
ATOM      3  C   UNL     1      -0.221   0.897  -1.244  0.00  0.00    +0.003 C 
BRANCH   3   4
ATOM      4  C   UNL     1      -0.165   1.883  -0.105  0.00  0.00    +0.138 A 
ATOM      5  N   UNL     1      -1.067   2.048   0.831  0.00  0.00    -0.115 NA
ATOM      6  N   UNL     1      -0.657   2.981   1.619  0.00  0.00    -0.023 NA
ATOM      7  N   UNL     1       0.484   3.415   1.210  0.00  0.00    -0.044 NA
ATOM      8  N   UNL     1       0.824   2.759   0.152  0.00  0.00    -0.228 N 
BRANCH   8   9
ATOM      9  C   UNL     1       2.053   2.937  -0.625  0.00  0.00    +0.178 C 
BRANCH   9  10
ATOM     10  C   UNL     1       1.774   3.855  -1.817  0.00  0.00    +0.140 C 
ATOM     11  C   UNL     1       3.077   4.110  -2.615  0.00  0.00    +0.035 C 
ATOM     12  C   UNL     1       2.502   4.453  -4.017  0.00  0.00    +0.031 C 
ATOM     13  C   UNL     1       1.252   3.550  -4.088  0.00  0.00    +0.160 C 
ATOM     14  O   UNL     1       0.884   3.213  -2.744  0.00  0.00    -0.375 OA
ENDBRANCH   9  10
ENDBRANCH   8   9
ENDBRANCH   3   4
BRANCH   3  16
ATOM     15  C   UNL     1       0.928  -1.048  -2.312  0.00  0.00    +0.002 C 
ATOM     16  C   UNL     1       0.919  -0.113  -1.101  0.00  0.00    -0.011 C 
ENDBRANCH   3  16
ENDBRANCH   1   3
BRANCH   1  17
ATOM     17  C   UNL     1      -2.603   1.169  -1.168  0.00  0.00    -0.073 C 
BRANCH  17  18
ATOM     18  C   UNL     1      -2.344   2.276  -2.192  0.00  0.00    +0.016 C 
BRANCH  18  19
ATOM     19  C   UNL     1      -3.477   3.269  -2.154  0.00  0.00    -0.049 A 
ATOM     20  C   UNL     1      -4.399   3.306  -3.184  0.00  0.00    +0.003 A 
ATOM     21  C   UNL     1      -5.438   4.217  -3.150  0.00  0.00    +0.000 A 
ATOM     22  C   UNL     1      -5.556   5.091  -2.085  0.00  0.00    +0.000 A 
ATOM     23  C   UNL     1      -4.635   5.054  -1.055  0.00  0.00    +0.000 A 
ATOM     24  C   UNL     1      -3.598   4.140  -1.087  0.00  0.00    +0.003 A 
ENDBRANCH  18  19
ENDBRANCH  17  18
ENDBRANCH   1  17
BRANCH   1  25
ATOM     25  C   UNL     1      -1.569  -0.673  -0.031  0.00  0.00    -0.037 C 
BRANCH  25  26
ATOM     26  C   UNL     1      -2.825  -1.503  -0.077  0.00  0.00    +0.001 A 
ATOM     27  C   UNL     1      -2.787  -2.760  -0.585  0.00  0.00    +0.017 A 
ATOM     28  C   UNL     1      -4.025  -3.540  -0.615  0.00  0.00    -0.001 A 
ATOM     29  C   UNL     1      -4.048  -4.842  -1.126  0.00  0.00    +0.013 A 
ATOM     30  C   UNL     1      -5.220  -5.544  -1.140  0.00  0.00    -0.047 A 
ATOM     31  C   UNL     1      -6.389  -4.976  -0.651  0.00  0.00    -0.046 A 
ATOM     32  C   UNL     1      -6.390  -3.695  -0.143  0.00  0.00    +0.030 A 
ATOM     33  C   UNL     1      -5.208  -2.962  -0.118  0.00  0.00    +0.049 A 
ATOM     34  N   UNL     1      -5.181  -1.679   0.385  0.00  0.00    -0.322 N 
ATOM     35  H   UNL     1      -5.997  -1.281   0.727  0.00  0.00    +0.169 HD
ATOM     36  C   UNL     1      -4.037  -0.971   0.413  0.00  0.00    +0.251 A 
ATOM     37  O   UNL     1      -4.049   0.159   0.870  0.00  0.00    -0.268 OA
ATOM     38  C   UNL     1      -7.670  -5.770  -0.677  0.00  0.00    +0.044 C 
ATOM     39  C   UNL     1      -5.244  -6.946  -1.691  0.00  0.00    +0.044 C 
ENDBRANCH  25  26
ENDBRANCH   1  25
TORSDOF 10
