REMARK  Name = ZINC08868278
REMARK  6 active torsions:
REMARK  status: ('A' for Active; 'I' for Inactive)
REMARK    1  A    between atoms: C_4  and  C_7
REMARK    2  A    between atoms: C_7  and  C_8
REMARK    3  A    between atoms: C_7  and  N_14
REMARK    4  A    between atoms: N_17  and  C_18
REMARK    5  A    between atoms: C_18  and  C_19
REMARK    6  A    between atoms: N_22  and  C_26
REMARK                            x       y       z     vdW  Elec       q    Type
REMARK                         _______ _______ _______ _____ _____    ______ ____
ROOT
ATOM      1  N   UNL     1       0.168   7.881   2.265  0.00  0.00    -0.289 N 
ATOM      2  C   UNL     1       0.696   6.641   2.276  0.00  0.00    +0.300 C 
ATOM      3  O   UNL     1       1.401   6.289   3.202  0.00  0.00    -0.253 OA
ATOM      4  N   UNL     1       0.443   5.792   1.261  0.00  0.00    -0.296 N 
ATOM      5  H   UNL     1      -0.394   8.163   1.527  0.00  0.00    +0.151 HD
ATOM      6  H   UNL     1      -0.120   6.073   0.522  0.00  0.00    +0.150 HD
ENDROOT
BRANCH   1   7
ATOM      7  C   UNL     1       0.444   8.805   3.369  0.00  0.00    +0.135 C 
BRANCH   7  11
ATOM      8  C   UNL     1       0.037  12.829   1.995  0.00  0.00    +0.000 A 
ATOM      9  C   UNL     1       1.061  12.494   2.861  0.00  0.00    +0.000 A 
ATOM     10  C   UNL     1       1.193  11.192   3.305  0.00  0.00    +0.006 A 
ATOM     11  C   UNL     1       0.300  10.224   2.884  0.00  0.00    -0.023 A 
ATOM     12  C   UNL     1      -0.721  10.557   2.014  0.00  0.00    +0.006 A 
ATOM     13  C   UNL     1      -0.856  11.861   1.573  0.00  0.00    +0.000 A 
ENDBRANCH   7  11
BRANCH   7  14
ATOM     14  C   UNL     1      -0.533   8.555   4.489  0.00  0.00    -0.023 A 
ATOM     15  C   UNL     1      -1.860   8.292   4.203  0.00  0.00    +0.006 A 
ATOM     16  C   UNL     1      -2.755   8.058   5.230  0.00  0.00    +0.000 A 
ATOM     17  C   UNL     1      -2.325   8.097   6.543  0.00  0.00    +0.000 A 
ATOM     18  C   UNL     1      -1.000   8.365   6.830  0.00  0.00    +0.000 A 
ATOM     19  C   UNL     1      -0.104   8.594   5.802  0.00  0.00    +0.006 A 
ENDBRANCH   7  14
ENDBRANCH   1   7
BRANCH   4  20
ATOM     20  C   UNL     1       1.017   4.444   1.273  0.00  0.00    +0.152 C 
BRANCH  20  21
ATOM     21  C   UNL     1       0.577   3.692   0.015  0.00  0.00    +0.213 C 
ATOM     22  C   UNL     1       1.168   2.269   0.003  0.00  0.00    +0.163 C 
ATOM     23  N   UNL     1      -0.017   1.397   0.010  0.00  0.00    -0.234 N 
ATOM     24  C   UNL     1      -1.117   2.162   0.018  0.00  0.00    +0.408 C 
ATOM     25  O   UNL     1      -2.243   1.704   0.021  0.00  0.00    -0.226 OA
ATOM     26  O   UNL     1      -0.864   3.475   0.028  0.00  0.00    -0.444 OA
BRANCH  23  27
ATOM     27  C   UNL     1       0.002  -0.004   0.002  0.00  0.00    +0.043 A 
ATOM     28  C   UNL     1       1.214  -0.682  -0.019  0.00  0.00    +0.027 A 
ATOM     29  C   UNL     1       1.234  -2.063  -0.021  0.00  0.00    +0.051 A 
ATOM     30  C   UNL     1       0.046  -2.776  -0.013  0.00  0.00    +0.166 A 
ATOM     31  C   UNL     1      -1.171  -2.099   0.002  0.00  0.00    +0.168 A 
ATOM     32  C   UNL     1      -1.190  -0.714   0.010  0.00  0.00    +0.073 A 
ATOM     33  O   UNL     1      -2.181  -3.017   0.007  0.00  0.00    -0.453 OA
ATOM     34  C   UNL     1      -1.579  -4.254  -0.418  0.00  0.00    +0.466 C 
ATOM     35  O   UNL     1      -0.202  -4.120  -0.018  0.00  0.00    -0.453 OA
ENDBRANCH  23  27
ENDBRANCH  20  21
ENDBRANCH   4  20
TORSDOF 6
