REMARK  Name = ZINC09680067
REMARK  8 active torsions:
REMARK  status: ('A' for Active; 'I' for Inactive)
REMARK    1  A    between atoms: C_1  and  C_2
REMARK    2  A    between atoms: C_2  and  C_3
REMARK    3  A    between atoms: C_6  and  N_9
REMARK    4  A    between atoms: N_9  and  S_10
REMARK    5  A    between atoms: S_10  and  C_13
REMARK    6  A    between atoms: C_21  and  C_25
REMARK    7  A    between atoms: N_27  and  C_28
REMARK    8  A    between atoms: C_34  and  C_36
REMARK                            x       y       z     vdW  Elec       q    Type
REMARK                         _______ _______ _______ _____ _____    ______ ____
ROOT
ATOM      1  C   UNL     1       1.136   3.558   0.159  0.00  0.00    +0.109 A 
ATOM      2  C   UNL     1       0.897   2.191   0.182  0.00  0.00    +0.031 A 
ATOM      3  C   UNL     1      -0.387   1.704   0.284  0.00  0.00    +0.028 A 
ATOM      4  C   UNL     1      -1.463   2.585   0.359  0.00  0.00    +0.050 A 
ATOM      5  C   UNL     1      -1.217   3.969   0.341  0.00  0.00    +0.048 A 
ATOM      6  C   UNL     1       0.088   4.449   0.237  0.00  0.00    +0.042 A 
ATOM      7  C   UNL     1      -2.365   4.891   0.427  0.00  0.00    +0.202 A 
ATOM      8  O   UNL     1      -2.210   6.100   0.411  0.00  0.00    -0.286 OA
ATOM      9  C   UNL     1      -3.704   4.290   0.533  0.00  0.00    +0.100 A 
ATOM     10  C   UNL     1      -3.818   2.916   0.547  0.00  0.00    +0.100 A 
ATOM     11  N   UNL     1      -2.751   2.110   0.467  0.00  0.00    -0.360 N 
ATOM     12  H   UNL     1      -2.893   1.150   0.481  0.00  0.00    +0.165 HD
ENDROOT
BRANCH   9  13
ATOM     13  C   UNL     1      -4.900   5.142   0.624  0.00  0.00    +0.249 C 
ATOM     14  O   UNL     1      -4.787   6.353   0.612  0.00  0.00    -0.270 OA
ATOM     15  N   UNL     1      -6.121   4.580   0.721  0.00  0.00    -0.308 N 
ATOM     16  H   UNL     1      -6.211   3.614   0.731  0.00  0.00    +0.149 HD
BRANCH  15  17
ATOM     17  C   UNL     1      -7.313   5.427   0.812  0.00  0.00    +0.076 C 
ATOM     18  C   UNL     1      -7.543   5.830   2.270  0.00  0.00    +0.022 C 
ATOM     19  C   UNL     1      -7.745   4.573   3.120  0.00  0.00    +0.002 C 
ATOM     20  C   UNL     1      -8.961   3.800   2.606  0.00  0.00    +0.000 C 
ATOM     21  C   UNL     1      -8.731   3.398   1.147  0.00  0.00    +0.005 C 
ATOM     22  C   UNL     1      -8.529   4.654   0.298  0.00  0.00    +0.006 C 
ATOM     23  C   UNL     1      -8.298   4.252  -1.160  0.00  0.00    +0.009 C 
ENDBRANCH  15  17
ENDBRANCH   9  13
BRANCH   1  24
ATOM     24  S   UNL     1       2.788   4.157   0.027  0.00  0.00    +0.072 S 
ATOM     25  O   UNL     1       2.765   5.511   0.459  0.00  0.00    -0.150 OA
ATOM     26  O   UNL     1       3.624   3.179   0.631  0.00  0.00    -0.150 OA
BRANCH  24  27
ATOM     27  N   UNL     1       3.174   4.180  -1.583  0.00  0.00    -0.216 N 
ATOM     28  H   UNL     1       3.888   3.616  -1.919  0.00  0.00    +0.174 HD
BRANCH  27  32
ATOM     29  C   UNL     1       1.080   6.661  -4.191  0.00  0.00    -0.048 A 
ATOM     30  C   UNL     1       2.003   7.202  -3.315  0.00  0.00    +0.005 A 
ATOM     31  C   UNL     1       2.699   6.383  -2.449  0.00  0.00    +0.025 A 
ATOM     32  C   UNL     1       2.471   5.012  -2.458  0.00  0.00    +0.048 A 
ATOM     33  C   UNL     1       1.547   4.471  -3.342  0.00  0.00    +0.025 A 
ATOM     34  C   UNL     1       0.851   5.297  -4.202  0.00  0.00    +0.005 A 
BRANCH  29  36
ATOM     35  C   UNL     1       1.101   7.697  -6.444  0.00  0.00    +0.009 C 
ATOM     36  C   UNL     1       0.322   7.558  -5.134  0.00  0.00    +0.032 C 
ENDBRANCH  29  36
ENDBRANCH  27  32
ENDBRANCH  24  27
ENDBRANCH   1  24
TORSDOF 6
