REMARK  Name = ZINC13499074
REMARK  13 active torsions:
REMARK  status: ('A' for Active; 'I' for Inactive)
REMARK    1  A    between atoms: C_1  and  C_2
REMARK    2  A    between atoms: C_4  and  C_33
REMARK    3  A    between atoms: C_7  and  C_14
REMARK    4  A    between atoms: C_14  and  N_66
REMARK    5  A    between atoms: C_15  and  C_16
REMARK    6  A    between atoms: C_15  and  N_66
REMARK    7  A    between atoms: C_16  and  O_17
REMARK    8  A    between atoms: C_18  and  C_20
REMARK    9  A    between atoms: C_18  and  C_30
REMARK   10  A    between atoms: C_18  and  N_66
REMARK   11  A    between atoms: N_24  and  C_25
REMARK   12  A    between atoms: C_30  and  C_31
REMARK   13  A    between atoms: C_30  and  C_32
REMARK                            x       y       z     vdW  Elec       q    Type
REMARK                         _______ _______ _______ _____ _____    ______ ____
ROOT
ATOM      1  N   UNL     1      -0.557   1.843   1.216  0.00  0.00    +0.391 N 
ATOM      2  H   UNL     1      -0.899   2.708   0.783  0.00  0.00    -0.080 HD
ENDROOT
BRANCH   1   3
ATOM      3  C   UNL     1      -1.716   1.018   1.621  0.00  0.00    -0.036 C 
BRANCH   3  10
ATOM      4  C   UNL     1      -6.898   0.619  -4.430  0.00  0.00    +0.044 C 
ATOM      5  C   UNL     1      -5.832   0.495  -3.372  0.00  0.00    -0.048 A 
ATOM      6  C   UNL     1      -4.960  -0.586  -3.398  0.00  0.00    +0.007 A 
ATOM      7  C   UNL     1      -3.986  -0.717  -2.449  0.00  0.00    -0.041 A 
ATOM      8  C   UNL     1      -3.866   0.247  -1.442  0.00  0.00    +0.002 A 
ATOM      9  C   UNL     1      -2.834   0.137  -0.409  0.00  0.00    +0.017 A 
ATOM     10  C   UNL     1      -2.766   1.101   0.543  0.00  0.00    +0.001 A 
ATOM     11  C   UNL     1      -3.678   2.177   0.531  0.00  0.00    +0.251 A 
ATOM     12  O   UNL     1      -3.602   3.030   1.399  0.00  0.00    -0.268 OA
ATOM     13  N   UNL     1      -4.625   2.289  -0.416  0.00  0.00    -0.322 N 
ATOM     14  H   UNL     1      -5.234   3.045  -0.397  0.00  0.00    +0.169 HD
ATOM     15  C   UNL     1      -4.748   1.343  -1.412  0.00  0.00    +0.050 A 
ATOM     16  C   UNL     1      -5.731   1.456  -2.389  0.00  0.00    +0.029 A 
ATOM     17  C   UNL     1      -3.046  -1.893  -2.487  0.00  0.00    +0.044 C 
ENDBRANCH   3  10
ENDBRANCH   1   3
BRANCH   1  18
ATOM     18  C   UNL     1       0.268   1.107   0.235  0.00  0.00    -0.049 C 
BRANCH  18  19
ATOM     19  C   UNL     1       0.997  -0.056   0.911  0.00  0.00    +0.137 C 
BRANCH  19  20
ATOM     20  O   UNL     1       0.047  -1.049   1.304  0.00  0.00    -0.397 OA
ATOM     21  H   UNL     1       0.440  -1.817   1.740  0.00  0.00    +0.209 HD
ENDBRANCH  19  20
ENDBRANCH  18  19
ENDBRANCH   1  18
BRANCH   1  22
ATOM     22  C   UNL     1       0.255   2.188   2.402  0.00  0.00    +0.006 C 
BRANCH  22  23
ATOM     23  C   UNL     1       1.442   3.006   1.962  0.00  0.00    +0.139 A 
ATOM     24  N   UNL     1       1.433   3.998   1.104  0.00  0.00    -0.115 NA
ATOM     25  N   UNL     1       2.639   4.438   0.994  0.00  0.00    -0.023 NA
ATOM     26  N   UNL     1       3.416   3.754   1.759  0.00  0.00    -0.044 NA
ATOM     27  N   UNL     1       2.714   2.864   2.376  0.00  0.00    -0.228 N 
BRANCH  27  28
ATOM     28  C   UNL     1       3.210   1.882   3.344  0.00  0.00    +0.111 C 
ATOM     29  C   UNL     1       3.892   2.603   4.526  0.00  0.00    +0.027 C 
ATOM     30  C   UNL     1       5.091   1.689   4.885  0.00  0.00    +0.002 C 
ATOM     31  C   UNL     1       5.581   1.205   3.498  0.00  0.00    +0.002 C 
ATOM     32  C   UNL     1       4.283   0.994   2.691  0.00  0.00    +0.027 C 
ENDBRANCH  27  28
ENDBRANCH  22  23
BRANCH  22  33
ATOM     33  C   UNL     1      -0.601   3.010   3.368  0.00  0.00    -0.024 C 
ATOM     34  C   UNL     1       0.235   3.394   4.590  0.00  0.00    +0.006 C 
ATOM     35  C   UNL     1      -1.089   4.277   2.664  0.00  0.00    +0.006 C 
ENDBRANCH  22  33
ENDBRANCH   1  22
TORSDOF 9
