REMARK  Name = ZINC10970133
REMARK  6 active torsions:
REMARK  status: ('A' for Active; 'I' for Inactive)
REMARK    1  A    between atoms: C_1  and  N_2
REMARK    2  A    between atoms: N_11  and  C_25
REMARK    3  A    between atoms: C_14  and  C_17
REMARK    4  A    between atoms: C_22  and  O_23
REMARK    5  A    between atoms: C_25  and  C_26
REMARK    6  A    between atoms: C_26  and  N_53
REMARK                            x       y       z     vdW  Elec       q    Type
REMARK                         _______ _______ _______ _____ _____    ______ ____
ROOT
ATOM      1  C   UNL     1      -1.093   2.776  -6.173  0.00  0.00    +0.155 C 
ATOM      2  N   UNL     1      -0.016   2.523  -5.212  0.00  0.00    -0.281 N 
ATOM      3  C   UNL     1      -0.304   1.935  -3.999  0.00  0.00    +0.155 A 
ATOM      4  C   UNL     1       0.709   1.706  -3.112  0.00  0.00    +0.151 A 
ATOM      5  C   UNL     1       2.027   2.078  -3.458  0.00  0.00    +0.280 A 
ATOM      6  O   UNL     1       2.946   1.883  -2.682  0.00  0.00    -0.265 OA
ATOM      7  N   UNL     1       2.259   2.651  -4.658  0.00  0.00    -0.273 N 
ATOM      8  H   UNL     1       3.190   2.916  -4.909  0.00  0.00    +0.173 HD
ATOM      9  C   UNL     1       1.248   2.868  -5.518  0.00  0.00    +0.331 A 
ATOM     10  O   UNL     1       1.481   3.386  -6.593  0.00  0.00    -0.246 OA
ATOM     11  N   UNL     1       0.155   1.108  -1.978  0.00  0.00    -0.304 N 
ATOM     12  C   UNL     1      -1.196   0.977  -2.197  0.00  0.00    +0.239 A 
ATOM     13  N   UNL     1      -1.475   1.490  -3.434  0.00  0.00    -0.244 N 
ATOM     14  C   UNL     1      -2.833   1.341  -3.604  0.00  0.00    +0.175 A 
ATOM     15  N   UNL     1      -3.296   0.777  -2.511  0.00  0.00    -0.127 NA
ATOM     16  N   UNL     1      -2.336   0.566  -1.683  0.00  0.00    -0.110 NA
ENDROOT
BRANCH  14  17
ATOM     17  C   UNL     1      -3.620   1.741  -4.788  0.00  0.00    +0.062 A 
ATOM     18  C   UNL     1      -4.026   3.067  -4.945  0.00  0.00    +0.030 A 
ATOM     19  C   UNL     1      -4.758   3.435  -6.057  0.00  0.00    +0.019 A 
ATOM     20  C   UNL     1      -5.098   2.491  -7.012  0.00  0.00    +0.019 A 
ATOM     21  C   UNL     1      -4.704   1.174  -6.863  0.00  0.00    +0.047 A 
ATOM     22  C   UNL     1      -3.966   0.790  -5.756  0.00  0.00    +0.128 A 
ATOM     23 BR   UNL     1      -5.304   5.232  -6.272  0.00  0.00    -0.050 Br
BRANCH  22  24
ATOM     24  O   UNL     1      -3.579  -0.504  -5.610  0.00  0.00    -0.506 OA
ATOM     25  H   UNL     1      -4.214  -1.052  -5.130  0.00  0.00    +0.292 HD
ENDBRANCH  22  24
ENDBRANCH  14  17
BRANCH  11  26
ATOM     26  C   UNL     1       0.882   0.692  -0.776  0.00  0.00    +0.107 C 
BRANCH  26  27
ATOM     27  C   UNL     1       0.920   1.849   0.224  0.00  0.00    -0.057 C 
BRANCH  27  33
ATOM     28  C   UNL     1       0.924   0.371   2.141  0.00  0.00    -0.079 C 
ATOM     29  C   UNL     1       1.777  -0.139   3.305  0.00  0.00    -0.019 C 
ATOM     30  C   UNL     1       2.084   1.023   4.254  0.00  0.00    -0.004 C 
ATOM     31  C   UNL     1       2.795   2.133   3.477  0.00  0.00    -0.019 C 
ATOM     32  C   UNL     1       1.912   2.578   2.308  0.00  0.00    -0.079 C 
ATOM     33  N   UNL     1       1.675   1.421   1.419  0.00  0.00    +0.381 N 
ATOM     34  H   UNL     1       2.580   1.038   1.122  0.00  0.00    -0.082 HD
ENDBRANCH  27  33
ENDBRANCH  26  27
ENDBRANCH  11  26
TORSDOF 5
