REMARK  Name = ZINC62329593
REMARK  6 active torsions:
REMARK  status: ('A' for Active; 'I' for Inactive)
REMARK    1  A    between atoms: C_1  and  C_2
REMARK    2  A    between atoms: C_5  and  C_9
REMARK    3  A    between atoms: C_6  and  N_8
REMARK    4  A    between atoms: C_15  and  C_19
REMARK    5  A    between atoms: C_19  and  C_20
REMARK    6  A    between atoms: C_19  and  C_21
REMARK                            x       y       z     vdW  Elec       q    Type
REMARK                         _______ _______ _______ _____ _____    ______ ____
ROOT
ATOM      1  C   UNL     1       0.059  -4.165  -0.042  0.00  0.00    +0.114 A 
ATOM      2  N   UNL     1       0.070  -5.016   0.971  0.00  0.00    -0.244 NA
ATOM      3  C   UNL     1       0.088  -6.331   0.796  0.00  0.00    +0.052 A 
ATOM      4  C   UNL     1       0.094  -6.787  -0.489  0.00  0.00    +0.013 A 
ATOM      5  S   UNL     1       0.067  -5.287  -1.436  0.00  0.00    -0.072 S 
ATOM      6  C   UNL     1       0.111  -8.201  -0.961  0.00  0.00    +0.048 C 
ATOM      7  C   UNL     1      -0.243  -9.110   0.227  0.00  0.00    -0.003 C 
ATOM      8  C   UNL     1       0.589  -8.679   1.439  0.00  0.00    +0.010 C 
ATOM      9  C   UNL     1       0.102  -7.324   1.955  0.00  0.00    +0.056 C 
ENDROOT
BRANCH   1  14
ATOM     10  C   UNL     1      -0.018   1.503   0.010  0.00  0.00    +0.088 C 
ATOM     11  C   UNL     1       0.002  -0.004   0.002  0.00  0.00    +0.128 A 
ATOM     12  N   UNL     1       0.005  -0.635  -1.156  0.00  0.00    -0.240 NA
ATOM     13  C   UNL     1       0.023  -1.957  -1.215  0.00  0.00    +0.126 A 
ATOM     14  C   UNL     1       0.039  -2.688  -0.026  0.00  0.00    +0.065 A 
ATOM     15  C   UNL     1       0.035  -1.975   1.189  0.00  0.00    +0.129 A 
ATOM     16  N   UNL     1       0.022  -0.647   1.152  0.00  0.00    -0.217 NA
BRANCH  15  17
ATOM     17  N   UNL     1       0.050  -2.646   2.399  0.00  0.00    -0.343 N 
ATOM     18  H   UNL     1       0.064  -3.615   2.416  0.00  0.00    +0.144 HD
ATOM     19  H   UNL     1       0.047  -2.146   3.230  0.00  0.00    +0.144 HD
ENDBRANCH  15  17
ENDBRANCH   1  14
BRANCH   7  20
ATOM     20  C   UNL     1       0.074 -10.564  -0.127  0.00  0.00    -0.014 C 
ATOM     21  C   UNL     1      -0.279 -11.466   1.057  0.00  0.00    +0.007 C 
ATOM     22  C   UNL     1      -0.745 -10.982  -1.349  0.00  0.00    +0.007 C 
ENDBRANCH   7  20
TORSDOF 3
