REMARK  Name = ZINC33502044
REMARK  7 active torsions:
REMARK  status: ('A' for Active; 'I' for Inactive)
REMARK    1  A    between atoms: C_1  and  C_2
REMARK    2  A    between atoms: C_2  and  C_3
REMARK    3  A    between atoms: N_7  and  C_21
REMARK    4  A    between atoms: C_10  and  C_15
REMARK    5  A    between atoms: C_15  and  C_17
REMARK    6  A    between atoms: C_15  and  N_20
REMARK    7  A    between atoms: C_21  and  C_22
REMARK                            x       y       z     vdW  Elec       q    Type
REMARK                         _______ _______ _______ _____ _____    ______ ____
ROOT
ATOM      1  C   UNL     1       2.452   1.317   0.123  0.00  0.00    +0.259 C 
ATOM      2  C   UNL     1       1.152   2.072   0.002  0.00  0.00    +0.261 C 
ATOM      3  O   UNL     1       1.157   3.280  -0.102  0.00  0.00    -0.271 OA
ATOM      4  N   UNL     1      -0.017   1.397   0.010  0.00  0.00    -0.256 N 
ATOM      5  C   UNL     1       0.002  -0.004   0.002  0.00  0.00    +0.079 A 
ATOM      6  C   UNL     1      -1.158  -0.726   0.236  0.00  0.00    +0.029 A 
ATOM      7  C   UNL     1      -1.119  -2.108   0.239  0.00  0.00    -0.060 A 
ATOM      8  C   UNL     1       0.072  -2.771   0.009  0.00  0.00    +0.005 A 
ATOM      9  C   UNL     1       1.232  -2.057  -0.231  0.00  0.00    +0.048 A 
ATOM     10  C   UNL     1       1.200  -0.672  -0.241  0.00  0.00    +0.143 A 
ATOM     11  O   UNL     1       2.327   0.040  -0.508  0.00  0.00    -0.478 OA
ENDROOT
BRANCH   1  13
ATOM     12  C   UNL     1       4.170   0.473   1.728  0.00  0.00    +0.008 C 
ATOM     13  C   UNL     1       2.791   1.123   1.602  0.00  0.00    +0.051 C 
ENDBRANCH   1  13
BRANCH   7  14
ATOM     14  C   UNL     1      -2.380  -2.894   0.492  0.00  0.00    -0.041 C 
BRANCH  14  15
ATOM     15  N   UNL     1      -2.417  -4.060  -0.400  0.00  0.00    +0.383 N 
ATOM     16  H   UNL     1      -3.337  -4.634  -0.214  0.00  0.00    -0.089 HD
ATOM     17  H   UNL     1      -1.542  -4.698  -0.206  0.00  0.00    -0.089 HD
ATOM     18  H   UNL     1      -2.400  -3.723  -1.446  0.00  0.00    -0.089 HD
ENDBRANCH  14  15
BRANCH  14  19
ATOM     19  C   UNL     1      -2.404  -3.364   1.948  0.00  0.00    -0.021 C 
ATOM     20  C   UNL     1      -2.255  -4.864   2.209  0.00  0.00    +0.002 C 
ATOM     21  C   UNL     1      -3.611  -4.184   2.406  0.00  0.00    +0.002 C 
ENDBRANCH  14  19
ENDBRANCH   7  14
BRANCH   4  22
ATOM     22  C   UNL     1      -1.290   2.121   0.020  0.00  0.00    +0.209 C 
BRANCH  22  23
ATOM     23  C   UNL     1      -1.720   2.362   1.444  0.00  0.00    +0.228 C 
ATOM     24  O   UNL     1      -1.031   1.968   2.360  0.00  0.00    -0.274 OA
ATOM     25  N   UNL     1      -2.871   3.016   1.699  0.00  0.00    -0.328 N 
ATOM     26  H   UNL     1      -3.185   3.191   2.739  0.00  0.00    +0.145 HD
ATOM     27  H   UNL     1      -3.497   3.373   0.868  0.00  0.00    +0.145 HD
ENDBRANCH  22  23
ENDBRANCH   4  22
TORSDOF 6
