REMARK  Name = ZINC13063880
REMARK  13 active torsions:
REMARK  status: ('A' for Active; 'I' for Inactive)
REMARK    1  A    between atoms: C_1  and  C_2
REMARK    2  A    between atoms: C_2  and  C_3
REMARK    3  A    between atoms: C_3  and  C_5
REMARK    4  A    between atoms: C_3  and  N_70
REMARK    5  A    between atoms: N_9  and  C_10
REMARK    6  A    between atoms: C_10  and  C_11
REMARK    7  A    between atoms: C_14  and  O_17
REMARK    8  A    between atoms: O_17  and  C_18
REMARK    9  A    between atoms: C_19  and  C_20
REMARK   10  A    between atoms: C_19  and  N_70
REMARK   11  A    between atoms: C_27  and  C_28
REMARK   12  A    between atoms: C_27  and  N_70
REMARK   13  A    between atoms: C_33  and  C_40
REMARK                            x       y       z     vdW  Elec       q    Type
REMARK                         _______ _______ _______ _____ _____    ______ ____
ROOT
ATOM      1  N   UNL     1       1.484  -2.696  -2.494  0.00  0.00    +0.392 N 
ATOM      2  H   UNL     1       2.270  -2.149  -2.863  0.00  0.00    -0.080 HD
ENDROOT
BRANCH   1   3
ATOM      3  C   UNL     1       1.789  -4.135  -2.642  0.00  0.00    +0.003 C 
BRANCH   3   4
ATOM      4  C   UNL     1       3.280  -4.323  -2.532  0.00  0.00    +0.138 A 
ATOM      5  N   UNL     1       4.108  -3.609  -1.808  0.00  0.00    -0.115 NA
ATOM      6  N   UNL     1       5.294  -4.082  -1.979  0.00  0.00    -0.023 NA
ATOM      7  N   UNL     1       5.246  -5.073  -2.799  0.00  0.00    -0.044 NA
ATOM      8  N   UNL     1       4.021  -5.253  -3.162  0.00  0.00    -0.226 N 
BRANCH   8   9
ATOM      9  C   UNL     1       3.530  -6.277  -4.088  0.00  0.00    +0.182 C 
BRANCH   9  10
ATOM     10  C   UNL     1       3.554  -5.736  -5.494  0.00  0.00    -0.026 A 
ATOM     11  C   UNL     1       2.446  -5.083  -6.002  0.00  0.00    +0.009 A 
ATOM     12  C   UNL     1       2.468  -4.581  -7.289  0.00  0.00    +0.046 A 
ATOM     13  C   UNL     1       3.599  -4.744  -8.076  0.00  0.00    +0.120 A 
ATOM     14  C   UNL     1       4.707  -5.404  -7.567  0.00  0.00    +0.046 A 
ATOM     15  C   UNL     1       4.682  -5.899  -6.277  0.00  0.00    +0.009 A 
BRANCH  13  16
ATOM     16  O   UNL     1       3.621  -4.255  -9.344  0.00  0.00    -0.495 OA
ATOM     17  C   UNL     1       2.444  -3.586  -9.802  0.00  0.00    +0.277 C 
ENDBRANCH  13  16
ENDBRANCH   9  10
ENDBRANCH   8   9
ENDBRANCH   3   4
BRANCH   3  19
ATOM     18  C   UNL     1      -0.426  -4.829  -1.717  0.00  0.00    +0.002 C 
ATOM     19  C   UNL     1       1.091  -4.944  -1.547  0.00  0.00    -0.011 C 
ENDBRANCH   3  19
ENDBRANCH   1   3
BRANCH   1  20
ATOM     20  C   UNL     1       1.297  -2.364  -1.066  0.00  0.00    -0.042 C 
BRANCH  20  21
ATOM     21  C   UNL     1       2.652  -2.259  -0.413  0.00  0.00    -0.064 A 
ATOM     22  C   UNL     1       3.414  -1.119  -0.585  0.00  0.00    +0.004 A 
ATOM     23  C   UNL     1       4.657  -1.022   0.013  0.00  0.00    +0.038 A 
ATOM     24  C   UNL     1       5.137  -2.067   0.783  0.00  0.00    +0.123 A 
ATOM     25  C   UNL     1       4.372  -3.208   0.955  0.00  0.00    +0.038 A 
ATOM     26  C   UNL     1       3.130  -3.303   0.356  0.00  0.00    +0.004 A 
ATOM     27  F   UNL     1       6.352  -1.973   1.368  0.00  0.00    -0.205 F 
ENDBRANCH  20  21
ENDBRANCH   1  20
BRANCH   1  28
ATOM     28  C   UNL     1       0.263  -2.357  -3.255  0.00  0.00    -0.036 C 
BRANCH  28  29
ATOM     29  C   UNL     1       0.234  -0.868  -3.482  0.00  0.00    +0.001 A 
ATOM     30  C   UNL     1       0.760  -0.347  -4.619  0.00  0.00    +0.017 A 
ATOM     31  C   UNL     1       0.716   1.103  -4.809  0.00  0.00    -0.001 A 
ATOM     32  C   UNL     1       1.241   1.698  -5.961  0.00  0.00    +0.010 A 
ATOM     33  C   UNL     1       1.184   3.055  -6.109  0.00  0.00    +0.004 A 
ATOM     34  C   UNL     1       0.609   3.849  -5.126  0.00  0.00    -0.048 A 
ATOM     35  C   UNL     1       0.084   3.285  -3.983  0.00  0.00    +0.029 A 
ATOM     36  C   UNL     1       0.131   1.905  -3.811  0.00  0.00    +0.049 A 
ATOM     37  N   UNL     1      -0.386   1.314  -2.678  0.00  0.00    -0.322 N 
ATOM     38  H   UNL     1      -0.788   1.868  -1.991  0.00  0.00    +0.169 HD
ATOM     39  C   UNL     1      -0.346  -0.020  -2.514  0.00  0.00    +0.251 A 
ATOM     40  O   UNL     1      -0.817  -0.509  -1.502  0.00  0.00    -0.268 OA
ATOM     41  C   UNL     1       0.557   5.344  -5.311  0.00  0.00    +0.044 C 
ENDBRANCH  28  29
ENDBRANCH   1  28
TORSDOF 10
