REMARK  Name = ZINC13023325
REMARK  10 active torsions:
REMARK  status: ('A' for Active; 'I' for Inactive)
REMARK    1  A    between atoms: C_1  and  C_2
REMARK    2  A    between atoms: C_4  and  C_40
REMARK    3  A    between atoms: C_7  and  C_14
REMARK    4  A    between atoms: C_14  and  C_16
REMARK    5  A    between atoms: C_14  and  N_70
REMARK    6  A    between atoms: N_20  and  C_21
REMARK    7  A    between atoms: C_21  and  C_22
REMARK    8  A    between atoms: N_29  and  C_32
REMARK    9  A    between atoms: C_37  and  O_38
REMARK   10  A    between atoms: O_38  and  C_39
REMARK                            x       y       z     vdW  Elec       q    Type
REMARK                         _______ _______ _______ _____ _____    ______ ____
ROOT
ATOM      1  C   UNL     1       4.753   4.130  -0.150  0.00  0.00    +0.039 C 
ENDROOT
BRANCH   1   8
ATOM      2  C   UNL     1      -0.544  -1.792  -0.855  0.00  0.00    +0.044 C 
ATOM      3  C   UNL     1       0.617  -0.842  -0.707  0.00  0.00    -0.048 A 
ATOM      4  C   UNL     1       1.903  -1.346  -0.567  0.00  0.00    +0.007 A 
ATOM      5  C   UNL     1       2.969  -0.503  -0.430  0.00  0.00    -0.041 A 
ATOM      6  C   UNL     1       2.763   0.881  -0.431  0.00  0.00    +0.002 A 
ATOM      7  C   UNL     1       3.883   1.813  -0.287  0.00  0.00    +0.018 A 
ATOM      8  C   UNL     1       3.623   3.143  -0.296  0.00  0.00    +0.011 A 
ATOM      9  C   UNL     1       2.299   3.608  -0.441  0.00  0.00    +0.251 A 
ATOM     10  O   UNL     1       2.087   4.809  -0.447  0.00  0.00    -0.268 OA
ATOM     11  N   UNL     1       1.264   2.760  -0.574  0.00  0.00    -0.322 N 
ATOM     12  H   UNL     1       0.366   3.113  -0.672  0.00  0.00    +0.169 HD
ATOM     13  C   UNL     1       1.461   1.395  -0.573  0.00  0.00    +0.050 A 
ATOM     14  C   UNL     1       0.391   0.517  -0.711  0.00  0.00    +0.029 A 
ATOM     15  C   UNL     1       4.360  -1.061  -0.278  0.00  0.00    +0.044 C 
ENDBRANCH   1   8
BRANCH   1  21
ATOM     16  C   UNL     1       4.798   4.354  -2.561  0.00  0.00    -0.058 C 
ATOM     17  C   UNL     1       4.694   5.360  -3.709  0.00  0.00    +0.086 C 
ATOM     18  N   UNL     1       5.784   6.339  -3.600  0.00  0.00    -0.331 N 
ATOM     19  C   UNL     1       5.719   7.055  -2.318  0.00  0.00    +0.086 C 
ATOM     20  C   UNL     1       5.823   6.049  -1.169  0.00  0.00    -0.058 C 
ATOM     21  N   UNL     1       4.708   5.084  -1.278  0.00  0.00    +0.391 N 
ATOM     22  H   UNL     1       3.819   5.596  -1.247  0.00  0.00    -0.080 HD
BRANCH  18  23
ATOM     23  C   UNL     1       5.764   7.234  -4.675  0.00  0.00    +0.072 A 
ATOM     24  C   UNL     1       4.683   7.254  -5.545  0.00  0.00    +0.027 A 
ATOM     25  C   UNL     1       4.664   8.142  -6.603  0.00  0.00    +0.002 A 
ATOM     26  C   UNL     1       5.725   9.006  -6.805  0.00  0.00    +0.004 A 
ATOM     27  C   UNL     1       6.808   8.988  -5.946  0.00  0.00    +0.047 A 
ATOM     28  C   UNL     1       6.833   8.105  -4.880  0.00  0.00    +0.141 A 
BRANCH  28  29
ATOM     29  O   UNL     1       7.899   8.086  -4.034  0.00  0.00    -0.493 OA
ATOM     30  C   UNL     1       8.958   9.006  -4.305  0.00  0.00    +0.277 C 
ENDBRANCH  28  29
ENDBRANCH  18  23
ENDBRANCH   1  21
BRANCH   1  31
ATOM     31  C   UNL     1       4.591   4.891   1.141  0.00  0.00    +0.143 A 
ATOM     32  N   UNL     1       3.733   5.853   1.379  0.00  0.00    -0.115 NA
ATOM     33  N   UNL     1       3.903   6.246   2.594  0.00  0.00    -0.023 NA
ATOM     34  N   UNL     1       4.853   5.566   3.134  0.00  0.00    -0.044 NA
ATOM     35  N   UNL     1       5.303   4.720   2.270  0.00  0.00    -0.223 N 
BRANCH  35  36
ATOM     36  C   UNL     1       6.384   3.754   2.479  0.00  0.00    +0.221 C 
BRANCH  36  37
ATOM     37  C   UNL     1       7.700   4.384   2.100  0.00  0.00    +0.126 A 
ATOM     38  C   UNL     1       8.507   5.076   2.925  0.00  0.00    +0.046 A 
ATOM     39  C   UNL     1       9.625   5.480   2.160  0.00  0.00    +0.041 A 
ATOM     40  C   UNL     1       9.431   5.018   0.912  0.00  0.00    +0.195 A 
ATOM     41  O   UNL     1       8.263   4.355   0.881  0.00  0.00    -0.466 OA
ENDBRANCH  36  37
ENDBRANCH  35  36
ENDBRANCH   1  31
TORSDOF 7
