REMARK  Name = ZINC39857265
REMARK  6 active torsions:
REMARK  status: ('A' for Active; 'I' for Inactive)
REMARK    1  A    between atoms: C_1  and  C_2
REMARK    2  A    between atoms: C_2  and  C_3
REMARK    3  A    between atoms: C_8  and  N_9
REMARK    4  A    between atoms: C_13  and  C_14
REMARK    5  A    between atoms: C_13  and  C_15
REMARK    6  A    between atoms: C_19  and  N_21
REMARK                            x       y       z     vdW  Elec       q    Type
REMARK                         _______ _______ _______ _____ _____    ______ ____
ROOT
ATOM      1  N   UNL     1      -1.311  -0.338   2.505  0.00  0.00    -0.196 N 
ATOM      2  C   UNL     1      -2.207  -1.280   2.262  0.00  0.00    +0.265 C 
ATOM      3  O   UNL     1      -1.878  -2.415   1.970  0.00  0.00    -0.269 OA
ATOM      4  C   UNL     1      -3.627  -0.885   2.363  0.00  0.00    +0.083 C 
ATOM      5  C   UNL     1      -4.746  -1.626   2.171  0.00  0.00    -0.024 C 
ATOM      6  C   UNL     1      -4.632  -3.081   1.797  0.00  0.00    +0.045 C 
ATOM      7  S   UNL     1      -3.464   0.839   2.807  0.00  0.00    -0.025 S 
ATOM      8  C   UNL     1      -1.680   0.917   2.833  0.00  0.00    +0.290 C 
ATOM      9  O   UNL     1      -0.970   1.871   3.085  0.00  0.00    -0.262 OA
ENDROOT
BRANCH   1  15
ATOM     10  C   UNL     1       0.731  -0.503   1.223  0.00  0.00    -0.026 A 
ATOM     11  C   UNL     1       2.076  -0.808   1.149  0.00  0.00    +0.005 A 
ATOM     12  C   UNL     1       2.746  -1.266   2.268  0.00  0.00    +0.000 A 
ATOM     13  C   UNL     1       2.071  -1.421   3.466  0.00  0.00    +0.002 A 
ATOM     14  C   UNL     1       0.726  -1.118   3.546  0.00  0.00    +0.024 A 
ATOM     15  C   UNL     1       0.052  -0.652   2.425  0.00  0.00    +0.048 A 
BRANCH  10  17
ATOM     16  C   UNL     1      -0.019   1.526   0.010  0.00  0.00    +0.009 C 
ATOM     17  C   UNL     1       0.002  -0.004   0.002  0.00  0.00    +0.033 C 
ENDBRANCH  10  17
ENDBRANCH   1  15
BRANCH   5  18
ATOM     18  C   UNL     1      -6.072  -1.010   2.329  0.00  0.00    -0.019 A 
ATOM     19  C   UNL     1      -6.482  -0.537   3.581  0.00  0.00    +0.008 A 
ATOM     20  C   UNL     1      -7.726   0.041   3.725  0.00  0.00    +0.002 A 
ATOM     21  C   UNL     1      -8.572   0.156   2.636  0.00  0.00    +0.023 A 
ATOM     22  C   UNL     1      -8.175  -0.311   1.388  0.00  0.00    +0.025 A 
ATOM     23  C   UNL     1      -6.925  -0.889   1.229  0.00  0.00    +0.031 A 
BRANCH  22  24
ATOM     24  N   UNL     1      -9.034  -0.193   0.293  0.00  0.00    -0.358 N 
ATOM     25  H   UNL     1      -9.908   0.214   0.403  0.00  0.00    +0.142 HD
ATOM     26  H   UNL     1      -8.758  -0.519  -0.578  0.00  0.00    +0.142 HD
ENDBRANCH  22  24
ENDBRANCH   5  18
TORSDOF 4
