REMARK  Name = ZINC01789604
REMARK  4 active torsions:
REMARK  status: ('A' for Active; 'I' for Inactive)
REMARK    1  A    between atoms: C_4  and  N_7
REMARK    2  A    between atoms: C_17  and  S_18
REMARK    3  A    between atoms: S_18  and  C_19
REMARK    4  A    between atoms: C_19  and  C_20
REMARK                            x       y       z     vdW  Elec       q    Type
REMARK                         _______ _______ _______ _____ _____    ______ ____
ROOT
ATOM      1  C   UNL     1       1.342  -5.466   0.425  0.00  0.00    +0.121 A 
ATOM      2  N   UNL     1       1.475  -6.805   0.519  0.00  0.00    -0.310 N 
ATOM      3  H   UNL     1       2.359  -7.202   0.524  0.00  0.00    +0.170 HD
ATOM      4  C   UNL     1       0.382  -7.595   0.606  0.00  0.00    +0.256 A 
ATOM      5  O   UNL     1       0.492  -8.808   0.667  0.00  0.00    -0.267 OA
ATOM      6  C   UNL     1      -0.883  -6.984   0.626  0.00  0.00    +0.049 A 
ATOM      7  C   UNL     1      -0.954  -5.606   0.557  0.00  0.00    +0.082 A 
ATOM      8  N   UNL     1       0.173  -4.886   0.446  0.00  0.00    -0.233 NA
ATOM      9  C   UNL     1      -2.276  -4.947   0.644  0.00  0.00    +0.004 A 
ATOM     10  C   UNL     1      -2.432  -3.612   0.279  0.00  0.00    +0.010 A 
ATOM     11  C   UNL     1      -3.680  -3.026   0.348  0.00  0.00    +0.001 A 
ATOM     12  C   UNL     1      -4.770  -3.762   0.778  0.00  0.00    +0.000 A 
ATOM     13  C   UNL     1      -4.617  -5.086   1.150  0.00  0.00    +0.004 A 
ATOM     14  C   UNL     1      -3.373  -5.681   1.094  0.00  0.00    -0.037 A 
ATOM     15  C   UNL     1      -3.193  -7.105   1.548  0.00  0.00    +0.047 C 
ATOM     16  C   UNL     1      -2.136  -7.812   0.702  0.00  0.00    +0.007 C 
ATOM     17  C   UNL     1      -2.684  -8.036  -0.711  0.00  0.00    +0.012 C 
ATOM     18  C   UNL     1      -3.956  -8.882  -0.636  0.00  0.00    +0.001 C 
ATOM     19  C   UNL     1      -3.632 -10.235   0.001  0.00  0.00    +0.000 C 
ATOM     20  C   UNL     1      -3.079 -10.016   1.410  0.00  0.00    +0.001 C 
ATOM     21  C   UNL     1      -1.808  -9.169   1.333  0.00  0.00    +0.012 C 
ENDROOT
BRANCH   1  22
ATOM     22  C   UNL     1       2.580  -4.615   0.299  0.00  0.00    +0.151 C 
BRANCH  22  23
ATOM     23  S   UNL     1       2.104  -2.868   0.200  0.00  0.00    -0.079 S 
BRANCH  23  34
ATOM     24  N   UNL     1       3.623  -0.651  -0.037  0.00  0.00    -0.255 N 
ATOM     25  C   UNL     1       4.779   0.045  -0.142  0.00  0.00    +0.267 A 
ATOM     26  O   UNL     1       4.778   1.259  -0.224  0.00  0.00    -0.267 OA
ATOM     27  C   UNL     1       6.033  -0.719  -0.154  0.00  0.00    +0.065 A 
ATOM     28  C   UNL     1       7.275  -0.094  -0.258  0.00  0.00    +0.015 A 
ATOM     29  C   UNL     1       8.413  -0.852  -0.264  0.00  0.00    +0.001 A 
ATOM     30  C   UNL     1       8.344  -2.236  -0.167  0.00  0.00    +0.002 A 
ATOM     31  C   UNL     1       7.140  -2.875  -0.065  0.00  0.00    +0.028 A 
ATOM     32  C   UNL     1       5.959  -2.127  -0.056  0.00  0.00    +0.079 A 
ATOM     33  N   UNL     1       4.746  -2.719   0.045  0.00  0.00    -0.223 NA
ATOM     34  C   UNL     1       3.640  -2.016   0.059  0.00  0.00    +0.177 A 
BRANCH  24  38
ATOM     35  C   UNL     1      -0.016   1.380   0.011  0.00  0.00    +0.000 A 
ATOM     36  C   UNL     1       0.648   1.126   1.197  0.00  0.00    +0.002 A 
ATOM     37  C   UNL     1       1.855   0.453   1.184  0.00  0.00    +0.026 A 
ATOM     38  C   UNL     1       2.400   0.031  -0.021  0.00  0.00    +0.052 A 
ATOM     39  C   UNL     1       1.730   0.287  -1.210  0.00  0.00    +0.026 A 
ATOM     40  C   UNL     1       0.524   0.960  -1.191  0.00  0.00    +0.002 A 
ENDBRANCH  24  38
ENDBRANCH  23  34
ENDBRANCH  22  23
ENDBRANCH   1  22
TORSDOF 4
