REMARK  Name = ZINC20565412
REMARK  6 active torsions:
REMARK  status: ('A' for Active; 'I' for Inactive)
REMARK    1  A    between atoms: C_1  and  C_2
REMARK    2  A    between atoms: C_2  and  C_3
REMARK    3  A    between atoms: C_2  and  C_4
REMARK    4  A    between atoms: C_2  and  C_5
REMARK    5  A    between atoms: C_7  and  C_10
REMARK    6  A    between atoms: C_14  and  N_16
REMARK                            x       y       z     vdW  Elec       q    Type
REMARK                         _______ _______ _______ _____ _____    ______ ____
ROOT
ATOM      1  C   UNL     1       0.002  -0.004   0.002  0.00  0.00    +0.041 A 
ATOM      2  C   UNL     1       1.219  -0.688  -0.019  0.00  0.00    +0.015 A 
ATOM      3  C   UNL     1       1.236  -2.067  -0.021  0.00  0.00    +0.022 A 
ATOM      4  C   UNL     1       0.049  -2.778  -0.013  0.00  0.00    +0.062 A 
ATOM      5  C   UNL     1      -1.169  -2.106   0.002  0.00  0.00    +0.044 A 
ATOM      6  C   UNL     1      -1.195  -0.720   0.010  0.00  0.00    +0.037 A 
ATOM      7 CL   UNL     1       0.079  -4.514  -0.023  0.00  0.00    -0.082 Cl
ENDROOT
BRANCH   1  10
ATOM      8  C   UNL     1       0.530   3.522   0.016  0.00  0.00    +0.177 A 
ATOM      9  N   UNL     1       1.031   2.277   0.004  0.00  0.00    -0.191 NA
ATOM     10  C   UNL     1      -0.018   1.474   0.010  0.00  0.00    +0.259 A 
ATOM     11  O   UNL     1      -1.105   2.260   0.019  0.00  0.00    -0.333 OA
ATOM     12  N   UNL     1      -0.766   3.425   0.028  0.00  0.00    -0.060 NA
BRANCH   8  14
ATOM     13  C   UNL     1       2.196   4.860  -1.243  0.00  0.00    +0.019 C 
ATOM     14  C   UNL     1       1.327   4.802   0.015  0.00  0.00    +0.025 C 
ATOM     15  C   UNL     1       0.372   5.997   0.030  0.00  0.00    +0.019 C 
ATOM     16  C   UNL     1       2.221   4.847   1.256  0.00  0.00    +0.019 C 
ENDBRANCH   8  14
ENDBRANCH   1  10
BRANCH   5  17
ATOM     17  N   UNL     1      -2.366  -2.828   0.010  0.00  0.00    -0.357 N 
ATOM     18  H   UNL     1      -3.329  -2.296   0.022  0.00  0.00    +0.142 HD
ATOM     19  H   UNL     1      -2.345  -3.928   0.004  0.00  0.00    +0.142 HD
ENDBRANCH   5  17
TORSDOF 3
