REMARK  Name = ZINC20368024
REMARK  11 active torsions:
REMARK  status: ('A' for Active; 'I' for Inactive)
REMARK    1  A    between atoms: C_1  and  C_2
REMARK    2  A    between atoms: C_5  and  S_8
REMARK    3  A    between atoms: S_8  and  N_11
REMARK    4  A    between atoms: N_11  and  C_12
REMARK    5  A    between atoms: N_11  and  C_20
REMARK    6  A    between atoms: C_12  and  C_13
REMARK    7  A    between atoms: C_13  and  C_14
REMARK    8  A    between atoms: C_20  and  C_21
REMARK    9  A    between atoms: N_23  and  N_24
REMARK   10  A    between atoms: C_25  and  C_26
REMARK   11  A    between atoms: C_35  and  O_36
REMARK                            x       y       z     vdW  Elec       q    Type
REMARK                         _______ _______ _______ _____ _____    ______ ____
ROOT
ATOM      1  N   UNL     1       1.223  -2.923  -1.606  0.00  0.00    -0.167 NA
ENDROOT
BRANCH   1   2
ATOM      2  S   UNL     1       1.232  -2.441  -0.022  0.00  0.00    +0.061 S 
ATOM      3  O   UNL     1       2.489  -2.832   0.515  0.00  0.00    -0.153 OA
ATOM      4  O   UNL     1      -0.002  -2.866   0.539  0.00  0.00    -0.153 OA
BRANCH   2   9
ATOM      5  C   UNL     1       1.151   3.592   0.010  0.00  0.00    +0.044 C 
ATOM      6  C   UNL     1       1.171   2.086   0.002  0.00  0.00    -0.050 A 
ATOM      7  C   UNL     1      -0.017   1.378   0.010  0.00  0.00    +0.005 A 
ATOM      8  C   UNL     1       0.002  -0.004   0.002  0.00  0.00    +0.029 A 
ATOM      9  C   UNL     1       1.208  -0.679  -0.013  0.00  0.00    +0.106 A 
ATOM     10  C   UNL     1       2.396   0.029  -0.021  0.00  0.00    +0.029 A 
ATOM     11  C   UNL     1       2.377   1.411  -0.015  0.00  0.00    +0.005 A 
ENDBRANCH   2   9
ENDBRANCH   1   2
BRANCH   1  12
ATOM     12  C   UNL     1      -0.049  -3.153  -2.294  0.00  0.00    +0.114 C 
BRANCH  12  13
ATOM     13  C   UNL     1      -0.453  -1.890  -3.057  0.00  0.00    +0.052 C 
BRANCH  13  14
ATOM     14  C   UNL     1      -1.762  -2.127  -3.765  0.00  0.00    -0.046 A 
ATOM     15  C   UNL     1      -1.770  -2.623  -5.055  0.00  0.00    +0.003 A 
ATOM     16  C   UNL     1      -2.971  -2.845  -5.703  0.00  0.00    +0.000 A 
ATOM     17  C   UNL     1      -4.164  -2.562  -5.064  0.00  0.00    +0.000 A 
ATOM     18  C   UNL     1      -4.155  -2.061  -3.775  0.00  0.00    +0.000 A 
ATOM     19  C   UNL     1      -2.955  -1.843  -3.126  0.00  0.00    +0.003 A 
ENDBRANCH  13  14
ENDBRANCH  12  13
ENDBRANCH   1  12
BRANCH   1  20
ATOM     20  C   UNL     1       2.488  -3.119  -2.319  0.00  0.00    +0.206 C 
BRANCH  20  21
ATOM     21  C   UNL     1       2.881  -4.572  -2.254  0.00  0.00    +0.248 C 
ATOM     22  O   UNL     1       2.175  -5.366  -1.669  0.00  0.00    -0.273 OA
ATOM     23  N   UNL     1       4.018  -4.990  -2.845  0.00  0.00    -0.206 N 
ATOM     24  H   UNL     1       4.659  -4.270  -3.376  0.00  0.00    +0.177 HD
BRANCH  23  25
ATOM     25  N   UNL     1       4.384  -6.341  -2.785  0.00  0.00    -0.188 NA
ATOM     26  C   UNL     1       5.480  -6.743  -3.355  0.00  0.00    +0.142 C 
BRANCH  26  27
ATOM     27  C   UNL     1       5.864  -8.161  -3.291  0.00  0.00    +0.044 A 
ATOM     28  C   UNL     1       7.094  -8.630  -3.927  0.00  0.00    -0.006 A 
ATOM     29  C   UNL     1       7.942  -7.754  -4.614  0.00  0.00    +0.009 A 
ATOM     30  C   UNL     1       9.080  -8.232  -5.193  0.00  0.00    +0.001 A 
ATOM     31  C   UNL     1       9.411  -9.583  -5.110  0.00  0.00    +0.001 A 
ATOM     32  C   UNL     1       8.608 -10.462  -4.450  0.00  0.00    +0.008 A 
ATOM     33  C   UNL     1       7.427 -10.004  -3.842  0.00  0.00    -0.017 A 
ATOM     34  C   UNL     1       6.574 -10.883  -3.151  0.00  0.00    +0.012 A 
ATOM     35  C   UNL     1       5.434 -10.429  -2.565  0.00  0.00    +0.046 A 
ATOM     36  C   UNL     1       5.066  -9.085  -2.618  0.00  0.00    +0.126 A 
BRANCH  36  37
ATOM     37  O   UNL     1       3.922  -8.675  -2.014  0.00  0.00    -0.506 OA
ATOM     38  H   UNL     1       3.290  -9.401  -1.482  0.00  0.00    +0.292 HD
ENDBRANCH  36  37
ENDBRANCH  26  27
ENDBRANCH  23  25
ENDBRANCH  20  21
ENDBRANCH   1  20
TORSDOF 10
