REMARK  Name = ZINC02717980
REMARK  5 active torsions:
REMARK  status: ('A' for Active; 'I' for Inactive)
REMARK    1  A    between atoms: C_6  and  N_7
REMARK    2  A    between atoms: C_10  and  S_17
REMARK    3  A    between atoms: S_17  and  C_18
REMARK    4  A    between atoms: C_18  and  C_19
REMARK    5  A    between atoms: N_21  and  C_22
REMARK                            x       y       z     vdW  Elec       q    Type
REMARK                         _______ _______ _______ _____ _____    ______ ____
ROOT
ATOM      1  N   UNL     1      -1.201  -0.722   0.010  0.00  0.00    -0.214 N 
ATOM      2  C   UNL     1      -1.429  -1.910  -0.624  0.00  0.00    +0.171 A 
ATOM      3  N   UNL     1      -0.694  -2.720  -1.383  0.00  0.00    -0.202 NA
ATOM      4  C   UNL     1      -1.208  -3.837  -1.869  0.00  0.00    +0.194 A 
ATOM      5  N   UNL     1      -2.463  -4.206  -1.632  0.00  0.00    -0.183 NA
ATOM      6  C   UNL     1      -3.267  -3.462  -0.887  0.00  0.00    +0.285 A 
ATOM      7  O   UNL     1      -4.543  -3.846  -0.650  0.00  0.00    -0.265 OA
ATOM      8  C   UNL     1      -2.765  -2.263  -0.347  0.00  0.00    +0.105 A 
ATOM      9  C   UNL     1      -3.302  -1.242   0.468  0.00  0.00    +0.150 A 
ATOM     10  N   UNL     1      -2.376  -0.348   0.675  0.00  0.00    -0.172 NA
ENDROOT
BRANCH   1  16
ATOM     11  C   UNL     1      -0.017   1.384   0.010  0.00  0.00    +0.030 A 
ATOM     12  C   UNL     1       1.170   2.090   0.002  0.00  0.00    +0.040 A 
ATOM     13  C   UNL     1       2.379   1.414  -0.013  0.00  0.00    +0.124 A 
ATOM     14  C   UNL     1       2.400   0.029  -0.021  0.00  0.00    +0.040 A 
ATOM     15  C   UNL     1       1.215  -0.680  -0.013  0.00  0.00    +0.030 A 
ATOM     16  C   UNL     1       0.002  -0.004   0.002  0.00  0.00    +0.068 A 
ATOM     17  F   UNL     1       3.539   2.106  -0.022  0.00  0.00    -0.205 F 
ENDBRANCH   1  16
BRANCH   4  18
ATOM     18  S   UNL     1      -0.193  -4.874  -2.869  0.00  0.00    -0.077 S 
BRANCH  18  19
ATOM     19  C   UNL     1      -1.278  -6.260  -3.307  0.00  0.00    +0.173 C 
BRANCH  19  20
ATOM     20  C   UNL     1      -0.523  -7.235  -4.173  0.00  0.00    +0.224 C 
ATOM     21  O   UNL     1       0.633  -7.016  -4.466  0.00  0.00    -0.275 OA
ATOM     22  N   UNL     1      -1.133  -8.350  -4.622  0.00  0.00    -0.312 N 
ATOM     23  H   UNL     1      -2.058  -8.524  -4.388  0.00  0.00    +0.149 HD
BRANCH  22  24
ATOM     24  C   UNL     1      -0.399  -9.297  -5.465  0.00  0.00    +0.073 C 
ATOM     25  C   UNL     1      -0.472  -8.845  -6.924  0.00  0.00    +0.022 C 
ATOM     26  C   UNL     1       0.295  -9.835  -7.804  0.00  0.00    +0.002 C 
ATOM     27  C   UNL     1      -0.328 -11.226  -7.669  0.00  0.00    +0.000 C 
ATOM     28  C   UNL     1      -0.255 -11.678  -6.209  0.00  0.00    +0.002 C 
ATOM     29  C   UNL     1      -1.022 -10.688  -5.329  0.00  0.00    +0.022 C 
ENDBRANCH  22  24
ENDBRANCH  19  20
ENDBRANCH  18  19
ENDBRANCH   4  18
TORSDOF 5
