REMARK  Name = ZINC11882281
REMARK  12 active torsions:
REMARK  status: ('A' for Active; 'I' for Inactive)
REMARK    1  A    between atoms: C_1  and  C_2
REMARK    2  A    between atoms: C_2  and  C_4
REMARK    3  A    between atoms: C_8  and  C_11
REMARK    4  A    between atoms: C_11  and  N_74
REMARK    5  A    between atoms: C_14  and  C_17
REMARK    6  A    between atoms: C_17  and  C_35
REMARK    7  A    between atoms: N_20  and  C_24
REMARK    8  A    between atoms: C_24  and  C_25
REMARK    9  A    between atoms: C_29  and  O_33
REMARK   10  A    between atoms: C_30  and  O_31
REMARK   11  A    between atoms: O_31  and  C_32
REMARK   12  A    between atoms: O_33  and  C_34
REMARK                            x       y       z     vdW  Elec       q    Type
REMARK                         _______ _______ _______ _____ _____    ______ ____
ROOT
ATOM      1  C   UNL     1       3.663   1.761  -1.321  0.00  0.00    +0.112 C 
ATOM      2  C   UNL     1       3.855   3.251  -1.117  0.00  0.00    +0.247 C 
ATOM      3  O   UNL     1       3.432   4.146  -1.816  0.00  0.00    -0.273 OA
ATOM      4  N   UNL     1       4.593   3.373   0.004  0.00  0.00    -0.220 N 
ATOM      5  C   UNL     1       4.892   2.180   0.531  0.00  0.00    +0.310 C 
ATOM      6  O   UNL     1       5.549   2.033   1.542  0.00  0.00    -0.252 OA
ATOM      7  N   UNL     1       4.383   1.160  -0.185  0.00  0.00    -0.285 N 
ATOM      8  C   UNL     1       4.279   1.316  -2.649  0.00  0.00    +0.042 C 
ATOM      9  H   UNL     1       4.473   0.214   0.009  0.00  0.00    +0.151 HD
ENDROOT
BRANCH   1  12
ATOM     10  C   UNL     1       0.133   1.361   0.163  0.00  0.00    -0.078 C 
ATOM     11  C   UNL     1       1.603   1.782   0.097  0.00  0.00    -0.013 C 
ATOM     12  C   UNL     1       2.178   1.398  -1.270  0.00  0.00    +0.018 C 
ATOM     13  C   UNL     1       2.012  -0.110  -1.478  0.00  0.00    -0.013 C 
ATOM     14  C   UNL     1       0.530  -0.476  -1.367  0.00  0.00    -0.078 C 
ATOM     15  N   UNL     1       0.044  -0.103  -0.021  0.00  0.00    +0.382 N 
ATOM     16  H   UNL     1       0.631  -0.563   0.684  0.00  0.00    -0.081 HD
BRANCH  15  17
ATOM     17  C   UNL     1      -1.354  -0.550   0.152  0.00  0.00    -0.048 C 
BRANCH  17  21
ATOM     18  C   UNL     1      -3.376   0.657  -3.444  0.00  0.00    +0.018 C 
ATOM     19  C   UNL     1      -3.888   1.271  -2.135  0.00  0.00    +0.012 C 
ATOM     20  C   UNL     1      -2.768   1.207  -1.097  0.00  0.00    +0.029 C 
ATOM     21  C   UNL     1      -2.182  -0.174  -1.050  0.00  0.00    -0.090 C 
ATOM     22  C   UNL     1      -2.348  -1.064  -1.975  0.00  0.00    -0.029 C 
ATOM     23  C   UNL     1      -3.153  -0.841  -3.222  0.00  0.00    +0.035 C 
BRANCH  18  25
ATOM     24  C   UNL     1      -5.790   0.308  -4.372  0.00  0.00    +0.039 C 
ATOM     25  C   UNL     1      -4.398   0.861  -4.533  0.00  0.00    -0.076 C 
ATOM     26  C   UNL     1      -4.075   1.518  -5.619  0.00  0.00    +0.007 C 
ENDBRANCH  18  25
ENDBRANCH  17  21
ENDBRANCH  15  17
ENDBRANCH   1  12
BRANCH   4  27
ATOM     27  C   UNL     1       5.018   4.654   0.575  0.00  0.00    +0.157 C 
BRANCH  27  28
ATOM     28  C   UNL     1       3.975   5.140   1.548  0.00  0.00    +0.016 A 
ATOM     29  C   UNL     1       3.063   6.104   1.159  0.00  0.00    +0.009 A 
ATOM     30  C   UNL     1       2.105   6.551   2.050  0.00  0.00    +0.004 A 
ATOM     31  C   UNL     1       2.055   6.038   3.333  0.00  0.00    +0.049 A 
ATOM     32  C   UNL     1       2.966   5.073   3.728  0.00  0.00    +0.162 A 
ATOM     33  C   UNL     1       3.928   4.618   2.830  0.00  0.00    +0.166 A 
BRANCH  33  34
ATOM     34  O   UNL     1       4.821   3.667   3.212  0.00  0.00    -0.491 OA
ATOM     35  C   UNL     1       6.045   4.122   3.794  0.00  0.00    +0.277 C 
ENDBRANCH  33  34
BRANCH  32  36
ATOM     36  O   UNL     1       2.919   4.567   4.990  0.00  0.00    -0.491 OA
ATOM     37  C   UNL     1       1.902   5.076   5.855  0.00  0.00    +0.277 C 
ENDBRANCH  32  36
ENDBRANCH  27  28
ENDBRANCH   4  27
TORSDOF 8
