REMARK  Name = ZINC63375939
REMARK  8 active torsions:
REMARK  status: ('A' for Active; 'I' for Inactive)
REMARK    1  A    between atoms: C_1  and  C_2
REMARK    2  A    between atoms: C_2  and  C_3
REMARK    3  A    between atoms: C_3  and  C_4
REMARK    4  A    between atoms: C_4  and  N_5
REMARK    5  A    between atoms: C_6  and  O_32
REMARK    6  A    between atoms: C_8  and  C_15
REMARK    7  A    between atoms: C_22  and  O_27
REMARK    8  A    between atoms: O_27  and  C_28
REMARK                            x       y       z     vdW  Elec       q    Type
REMARK                         _______ _______ _______ _____ _____    ______ ____
ROOT
ATOM      1  C   UNL     1       1.583  -0.822  -5.001  0.00  0.00    +0.096 C 
ATOM      2  C   UNL     1       2.328  -0.424  -6.278  0.00  0.00    +0.124 C 
ATOM      3  C   UNL     1       2.522   1.086  -6.205  0.00  0.00    -0.036 C 
ATOM      4  C   UNL     1       2.021   1.584  -7.326  0.00  0.00    +0.003 A 
ATOM      5  C   UNL     1       1.989   2.951  -7.869  0.00  0.00    +0.055 A 
ATOM      6  C   UNL     1       1.367   3.117  -9.069  0.00  0.00    +0.121 A 
ATOM      7  C   UNL     1       0.771   2.076  -9.794  0.00  0.00    +0.047 A 
ATOM      8  C   UNL     1       0.747   0.780  -9.390  0.00  0.00    +0.029 A 
ATOM      9  C   UNL     1       1.394   0.472  -8.107  0.00  0.00    +0.043 A 
ATOM     10  N   UNL     1       1.546  -0.680  -7.487  0.00  0.00    -0.376 N 
ATOM     11  C   UNL     1       3.097   1.752  -4.978  0.00  0.00    +0.048 C 
ATOM     12  C   UNL     1       2.338   1.164  -3.774  0.00  0.00    +0.085 C 
ATOM     13  N   UNL     1       2.332  -0.300  -3.847  0.00  0.00    -0.310 NA
ATOM     14  H   UNL     1       1.996  -0.704  -2.985  0.00  0.00    +0.122 HD
ATOM     15  H   UNL     1       1.204  -1.542  -7.770  0.00  0.00    +0.160 HD
ENDROOT
BRANCH   1  18
ATOM     16  N   UNL     1       1.425  -2.500  -2.470  0.00  0.00    -0.286 N 
ATOM     17  C   UNL     1       0.654  -2.738  -3.692  0.00  0.00    +0.217 C 
ATOM     18  C   UNL     1       1.494  -2.347  -4.911  0.00  0.00    +0.141 C 
ATOM     19  C   UNL     1       2.878  -2.927  -4.766  0.00  0.00    +0.227 C 
ATOM     20  O   UNL     1       3.486  -3.298  -5.747  0.00  0.00    -0.275 OA
ATOM     21  N   UNL     1       3.439  -3.031  -3.547  0.00  0.00    -0.267 N 
ATOM     22  C   UNL     1       2.752  -2.703  -2.441  0.00  0.00    +0.141 C 
ATOM     23  S   UNL     1       3.588  -2.545  -0.955  0.00  0.00    -0.018 S 
ATOM     24  H   UNL     1       4.354  -3.344  -3.467  0.00  0.00    +0.157 HD
BRANCH  17  25
ATOM     25  O   UNL     1      -0.539  -1.953  -3.664  0.00  0.00    -0.373 OA
ATOM     26  H   UNL     1      -1.121  -2.148  -2.917  0.00  0.00    +0.212 HD
ENDBRANCH  17  25
BRANCH  16  27
ATOM     27  C   UNL     1       0.739  -2.027  -1.265  0.00  0.00    +0.109 C 
BRANCH  27  28
ATOM     28  C   UNL     1       0.718  -0.497  -1.257  0.00  0.00    +0.019 C 
BRANCH  28  30
ATOM     29  C   UNL     1      -0.019   1.526   0.010  0.00  0.00    +0.004 C 
ATOM     30  C   UNL     1       0.002  -0.004   0.002  0.00  0.00    -0.002 C 
ENDBRANCH  28  30
ENDBRANCH  27  28
ENDBRANCH  16  27
ENDBRANCH   1  18
BRANCH   6  31
ATOM     31  O   UNL     1       1.322   4.369  -9.596  0.00  0.00    -0.495 OA
ATOM     32  C   UNL     1       0.665   4.520 -10.855  0.00  0.00    +0.277 C 
ENDBRANCH   6  31
TORSDOF 6
