REMARK  Name = ZINC21120426
REMARK  6 active torsions:
REMARK  status: ('A' for Active; 'I' for Inactive)
REMARK    1  A    between atoms: C_6  and  C_7
REMARK    2  A    between atoms: C_12  and  S_16
REMARK    3  A    between atoms: S_16  and  C_17
REMARK    4  A    between atoms: C_17  and  C_18
REMARK    5  A    between atoms: N_20  and  N_21
REMARK    6  A    between atoms: C_22  and  C_24
REMARK                            x       y       z     vdW  Elec       q    Type
REMARK                         _______ _______ _______ _____ _____    ______ ____
ROOT
ATOM      1  S   UNL     1       6.219   2.389  -0.476  0.00  0.00    -0.096 S 
ENDROOT
BRANCH   1   7
ATOM      2  C   UNL     1       9.370   3.154  -0.070  0.00  0.00    +0.001 A 
ATOM      3  C   UNL     1      10.695   3.380   0.091  0.00  0.00    +0.056 A 
ATOM      4  S   UNL     1      11.410   1.750  -0.003  0.00  0.00    -0.076 S 
ATOM      5  C   UNL     1       9.929   0.807  -0.253  0.00  0.00    +0.113 A 
ATOM      6  C   UNL     1       8.911   1.782  -0.265  0.00  0.00    +0.047 A 
ATOM      7  C   UNL     1       7.592   1.285  -0.447  0.00  0.00    +0.109 A 
ATOM      8  N   UNL     1       7.408  -0.017  -0.600  0.00  0.00    -0.229 NA
ATOM      9  C   UNL     1       8.412  -0.875  -0.584  0.00  0.00    +0.223 A 
ATOM     10  N   UNL     1       9.656  -0.473  -0.413  0.00  0.00    -0.228 NA
BRANCH   2  16
ATOM     11  C   UNL     1       8.532   5.322  -0.971  0.00  0.00    +0.011 A 
ATOM     12  C   UNL     1       7.628   6.364  -0.957  0.00  0.00    +0.039 A 
ATOM     13  C   UNL     1       6.601   6.380  -0.026  0.00  0.00    +0.123 A 
ATOM     14  C   UNL     1       6.473   5.348   0.889  0.00  0.00    +0.039 A 
ATOM     15  C   UNL     1       7.370   4.299   0.879  0.00  0.00    +0.011 A 
ATOM     16  C   UNL     1       8.405   4.278  -0.055  0.00  0.00    -0.016 A 
ATOM     17  F   UNL     1       5.721   7.405  -0.013  0.00  0.00    -0.205 F 
ENDBRANCH   2  16
ENDBRANCH   1   7
BRANCH   1  18
ATOM     18  C   UNL     1       4.872   1.209  -0.737  0.00  0.00    +0.173 C 
BRANCH  18  19
ATOM     19  C   UNL     1       3.560   1.949  -0.798  0.00  0.00    +0.239 C 
ATOM     20  O   UNL     1       3.539   3.155  -0.676  0.00  0.00    -0.273 OA
ATOM     21  N   UNL     1       2.412   1.270  -0.987  0.00  0.00    -0.233 N 
ATOM     22  H   UNL     1       2.432   0.175  -1.097  0.00  0.00    +0.173 HD
BRANCH  21  23
ATOM     23  N   UNL     1       1.192   1.957  -1.043  0.00  0.00    -0.230 N 
ATOM     24  C   UNL     1       0.044   1.278  -1.232  0.00  0.00    +0.260 C 
ATOM     25  O   UNL     1       0.066   0.069  -1.354  0.00  0.00    -0.269 OA
ATOM     26  H   UNL     1       1.173   3.052  -0.932  0.00  0.00    +0.173 HD
BRANCH  24  27
ATOM     27  C   UNL     1      -1.241   2.004  -1.297  0.00  0.00    +0.038 A 
ATOM     28  C   UNL     1      -1.270   3.393  -1.151  0.00  0.00    +0.016 A 
ATOM     29  C   UNL     1      -2.471   4.065  -1.218  0.00  0.00    +0.039 A 
ATOM     30  C   UNL     1      -3.651   3.365  -1.418  0.00  0.00    +0.123 A 
ATOM     31  C   UNL     1      -3.629   1.985  -1.558  0.00  0.00    +0.039 A 
ATOM     32  C   UNL     1      -2.432   1.303  -1.498  0.00  0.00    +0.016 A 
ATOM     33  F   UNL     1      -4.826   4.028  -1.477  0.00  0.00    -0.205 F 
ENDBRANCH  24  27
ENDBRANCH  21  23
ENDBRANCH  18  19
ENDBRANCH   1  18
TORSDOF 6
