REMARK  Name = ZINC34875421
REMARK  7 active torsions:
REMARK  status: ('A' for Active; 'I' for Inactive)
REMARK    1  A    between atoms: C_3  and  N_14
REMARK    2  A    between atoms: C_4  and  N_11
REMARK    3  A    between atoms: C_6  and  C_7
REMARK    4  A    between atoms: N_17  and  C_20
REMARK    5  A    between atoms: C_20  and  C_21
REMARK    6  A    between atoms: N_23  and  C_24
REMARK    7  A    between atoms: C_25  and  C_29
REMARK                            x       y       z     vdW  Elec       q    Type
REMARK                         _______ _______ _______ _____ _____    ______ ____
ROOT
ATOM      1  N   UNL     1       3.348   2.456   0.052  0.00  0.00    -0.326 N 
ATOM      2  C   UNL     1       4.014   2.874  -1.191  0.00  0.00    +0.120 C 
ATOM      3  C   UNL     1       5.522   2.650  -1.035  0.00  0.00    +0.104 C 
ATOM      4  N   UNL     1       5.992   3.329   0.180  0.00  0.00    -0.291 NA
ATOM      5  C   UNL     1       5.368   2.761   1.383  0.00  0.00    +0.104 C 
ATOM      6  C   UNL     1       3.850   2.995   1.325  0.00  0.00    +0.120 C 
ENDROOT
BRANCH   1   9
ATOM      7  C   UNL     1       1.409  -0.665  -0.012  0.00  0.00    +0.014 A 
ATOM      8  C   UNL     1       2.483   0.204   0.015  0.00  0.00    +0.026 A 
ATOM      9  C   UNL     1       2.265   1.575   0.023  0.00  0.00    +0.060 A 
ATOM     10  C   UNL     1       0.966   2.069   0.003  0.00  0.00    +0.148 A 
ATOM     11  C   UNL     1      -0.103   1.196  -0.025  0.00  0.00    +0.047 A 
ATOM     12  C   UNL     1       0.118  -0.170  -0.032  0.00  0.00    +0.057 A 
BRANCH  12  13
ATOM     13  C   UNL     1      -1.051  -1.120  -0.063  0.00  0.00    +0.417 C 
ATOM     14  F   UNL     1      -0.581  -2.438  -0.065  0.00  0.00    -0.166 F 
ATOM     15  F   UNL     1      -1.851  -0.912   1.067  0.00  0.00    -0.166 F 
ATOM     16  F   UNL     1      -1.808  -0.892  -1.217  0.00  0.00    -0.166 F 
ENDBRANCH  12  13
BRANCH  10  17
ATOM     17  N   UNL     1       0.729   3.530   0.012  0.00  0.00    +0.058 N 
ATOM     18  O   UNL     1      -0.398   3.959   0.099  0.00  0.00    -0.126 OA
ATOM     19  O   UNL     1       1.663   4.295  -0.068  0.00  0.00    -0.126 OA
ENDBRANCH  10  17
ENDBRANCH   1   9
BRANCH   4  20
ATOM     20  C   UNL     1       7.457   3.284   0.276  0.00  0.00    +0.181 C 
BRANCH  20  21
ATOM     21  C   UNL     1       7.916   4.190   1.388  0.00  0.00    +0.232 C 
ATOM     22  O   UNL     1       7.103   4.812   2.038  0.00  0.00    -0.274 OA
ATOM     23  N   UNL     1       9.230   4.309   1.662  0.00  0.00    -0.278 N 
ATOM     24  H   UNL     1       9.881   3.811   1.142  0.00  0.00    +0.155 HD
BRANCH  23  25
ATOM     25  C   UNL     1       9.653   5.144   2.687  0.00  0.00    +0.089 A 
ATOM     26  C   UNL     1      10.952   5.393   3.102  0.00  0.00    +0.080 A 
ATOM     27  C   UNL     1      11.114   6.314   4.203  0.00  0.00    +0.028 A 
ATOM     28  C   UNL     1       9.977   6.831   4.707  0.00  0.00    +0.048 A 
ATOM     29  S   UNL     1       8.710   6.089   3.702  0.00  0.00    -0.081 S 
BRANCH  26  30
ATOM     30  C   UNL     1      12.076   4.768   2.472  0.00  0.00    +0.102 C 
ATOM     31  N   UNL     1      12.968   4.273   1.972  0.00  0.00    -0.191 NA
ENDBRANCH  26  30
ENDBRANCH  23  25
ENDBRANCH  20  21
ENDBRANCH   4  20
TORSDOF 7
