REMARK  Name = ZINC21672838
REMARK  14 active torsions:
REMARK  status: ('A' for Active; 'I' for Inactive)
REMARK    1  A    between atoms: C_1  and  C_2
REMARK    2  A    between atoms: C_7  and  O_8
REMARK    3  A    between atoms: O_8  and  C_9
REMARK    4  A    between atoms: C_9  and  C_10
REMARK    5  A    between atoms: C_10  and  N_11
REMARK    6  A    between atoms: N_11  and  C_12
REMARK    7  A    between atoms: N_11  and  C_13
REMARK    8  A    between atoms: C_13  and  C_14
REMARK    9  A    between atoms: N_16  and  C_17
REMARK   10  A    between atoms: C_18  and  C_26
REMARK   11  A    between atoms: N_28  and  C_29
REMARK   12  A    between atoms: C_29  and  C_30
REMARK   13  A    between atoms: C_30  and  O_31
REMARK   14  A    between atoms: O_31  and  C_32
REMARK                            x       y       z     vdW  Elec       q    Type
REMARK                         _______ _______ _______ _____ _____    ______ ____
ROOT
ATOM      1  C   UNL     1      -0.723   1.951   1.250  0.00  0.00    +0.201 C 
ATOM      2  O   UNL     1      -1.166   1.152   2.048  0.00  0.00    -0.278 OA
ATOM      3  N   UNL     1      -0.862   3.273   1.472  0.00  0.00    -0.281 N 
ATOM      4  H   UNL     1      -0.461   3.997   0.748  0.00  0.00    +0.155 HD
ENDROOT
BRANCH   3   5
ATOM      5  C   UNL     1      -1.511   3.720   2.612  0.00  0.00    +0.084 A 
ATOM      6  C   UNL     1      -1.746   5.027   3.015  0.00  0.00    +0.069 A 
ATOM      7  C   UNL     1      -2.460   5.228   4.264  0.00  0.00    -0.023 A 
ATOM      8  C   UNL     1      -2.814   4.097   4.912  0.00  0.00    -0.004 A 
ATOM      9  S   UNL     1      -2.220   2.782   3.886  0.00  0.00    -0.077 S 
ATOM     10  C   UNL     1      -3.547   3.993   6.214  0.00  0.00    +0.043 C 
ATOM     11  C   UNL     1      -3.514   5.368   6.898  0.00  0.00    +0.005 C 
ATOM     12  C   UNL     1      -3.909   6.437   5.876  0.00  0.00    +0.005 C 
ATOM     13  C   UNL     1      -2.799   6.599   4.836  0.00  0.00    +0.037 C 
BRANCH   6  14
ATOM     14  C   UNL     1      -1.293   6.164   2.207  0.00  0.00    +0.247 C 
ATOM     15  O   UNL     1      -2.021   6.632   1.352  0.00  0.00    -0.270 OA
ATOM     16  N   UNL     1      -0.069   6.691   2.412  0.00  0.00    -0.309 N 
ATOM     17  H   UNL     1       0.590   6.268   3.185  0.00  0.00    +0.149 HD
BRANCH  16  18
ATOM     18  C   UNL     1       0.384   7.827   1.605  0.00  0.00    +0.132 C 
BRANCH  18  19
ATOM     19  C   UNL     1       1.796   8.228   2.036  0.00  0.00    +0.178 C 
BRANCH  19  20
ATOM     20  O   UNL     1       2.704   7.166   1.737  0.00  0.00    -0.381 OA
ATOM     21  C   UNL     1       4.059   7.440   2.102  0.00  0.00    +0.194 C 
ENDBRANCH  19  20
ENDBRANCH  18  19
ENDBRANCH  16  18
ENDBRANCH   6  14
ENDBRANCH   3   5
BRANCH   1  22
ATOM     22  C   UNL     1      -0.018   1.465   0.010  0.00  0.00    +0.019 C 
BRANCH  22  23
ATOM     23  N   UNL     1       0.002  -0.004   0.002  0.00  0.00    +0.386 N 
ATOM     24  C   UNL     1       0.827  -0.525   1.100  0.00  0.00    -0.095 C 
ATOM     25  H   UNL     1      -1.028  -0.357   0.156  0.00  0.00    -0.081 HD
BRANCH  23  26
ATOM     26  C   UNL     1       0.466  -0.517  -1.294  0.00  0.00    -0.037 C 
BRANCH  26  27
ATOM     27  C   UNL     1       0.239  -2.029  -1.355  0.00  0.00    +0.210 C 
BRANCH  27  28
ATOM     28  O   UNL     1      -1.163  -2.302  -1.320  0.00  0.00    -0.494 OA
BRANCH  28  35
ATOM     29  C   UNL     1      -3.931  -2.864  -1.253  0.00  0.00    +0.047 C 
ATOM     30  C   UNL     1      -2.884  -3.945  -1.336  0.00  0.00    -0.009 A 
ATOM     31  C   UNL     1      -3.263  -5.273  -1.383  0.00  0.00    +0.007 A 
ATOM     32  C   UNL     1      -2.303  -6.264  -1.460  0.00  0.00    +0.000 A 
ATOM     33  C   UNL     1      -0.962  -5.931  -1.491  0.00  0.00    +0.004 A 
ATOM     34  C   UNL     1      -0.577  -4.605  -1.449  0.00  0.00    +0.046 A 
ATOM     35  C   UNL     1      -1.539  -3.607  -1.366  0.00  0.00    +0.123 A 
ENDBRANCH  28  35
ENDBRANCH  27  28
ENDBRANCH  26  27
ENDBRANCH  23  26
ENDBRANCH  22  23
ENDBRANCH   1  22
TORSDOF 11
