REMARK  Name = ZINC42445411
REMARK  7 active torsions:
REMARK  status: ('A' for Active; 'I' for Inactive)
REMARK    1  A    between atoms: C_1  and  C_2
REMARK    2  A    between atoms: C_2  and  N_3
REMARK    3  A    between atoms: N_3  and  C_4
REMARK    4  A    between atoms: C_4  and  C_5
REMARK    5  A    between atoms: C_5  and  C_7
REMARK    6  A    between atoms: C_5  and  C_8
REMARK    7  A    between atoms: N_9  and  O_10
REMARK                            x       y       z     vdW  Elec       q    Type
REMARK                         _______ _______ _______ _____ _____    ______ ____
ROOT
ATOM      1  N   UNL     1      -1.372  -0.511   0.012  0.00  0.00    -0.314 N 
ATOM      2  C   UNL     1      -1.977  -0.857   1.216  0.00  0.00    +0.135 A 
ATOM      3  C   UNL     1      -2.779   0.070   1.876  0.00  0.00    +0.058 A 
ATOM      4  C   UNL     1      -3.374  -0.288   3.073  0.00  0.00    +0.020 A 
ATOM      5  C   UNL     1      -3.147  -1.564   3.571  0.00  0.00    +0.021 A 
ATOM      6  C   UNL     1      -2.341  -2.432   2.863  0.00  0.00    +0.113 A 
ATOM      7  N   UNL     1      -1.789  -2.066   1.721  0.00  0.00    -0.239 NA
ATOM      8 BR   UNL     1      -3.050   1.794   1.149  0.00  0.00    -0.047 Br
ENDROOT
BRANCH   1  10
ATOM      9  C   UNL     1       0.024   1.497   0.029  0.00  0.00    +0.024 C 
ATOM     10  C   UNL     1       0.012  -0.033  -0.001  0.00  0.00    +0.103 C 
ENDBRANCH   1  10
BRANCH   1  11
ATOM     11  C   UNL     1      -2.120  -0.625  -1.242  0.00  0.00    +0.117 C 
BRANCH  11  12
ATOM     12  C   UNL     1      -1.914  -2.021  -1.834  0.00  0.00    +0.070 C 
ATOM     13  C   UNL     1      -0.444  -2.199  -2.221  0.00  0.00    +0.017 C 
BRANCH  12  14
ATOM     14  C   UNL     1      -2.778  -2.181  -3.058  0.00  0.00    +0.136 C 
ATOM     15  N   UNL     1      -2.288  -1.948  -4.230  0.00  0.00    -0.076 NA
ATOM     16  N   UNL     1      -4.091  -2.575  -2.926  0.00  0.00    -0.344 N 
ATOM     17  H   UNL     1      -4.460  -2.750  -2.046  0.00  0.00    +0.144 HD
ATOM     18  H   UNL     1      -4.648  -2.678  -3.714  0.00  0.00    +0.144 HD
BRANCH  15  19
ATOM     19  O   UNL     1      -3.100  -2.099  -5.380  0.00  0.00    -0.408 OA
ATOM     20  H   UNL     1      -2.646  -1.903  -6.211  0.00  0.00    +0.328 HD
ENDBRANCH  15  19
ENDBRANCH  12  14
ENDBRANCH  11  12
ENDBRANCH   1  11
TORSDOF 5
