REMARK  Name = ZINC09664320
REMARK  10 active torsions:
REMARK  status: ('A' for Active; 'I' for Inactive)
REMARK    1  A    between atoms: C_1  and  C_2
REMARK    2  A    between atoms: C_7  and  N_8
REMARK    3  A    between atoms: C_9  and  C_11
REMARK    4  A    between atoms: C_11  and  O_12
REMARK    5  A    between atoms: O_12  and  C_13
REMARK    6  A    between atoms: C_13  and  C_15
REMARK    7  A    between atoms: C_18  and  S_21
REMARK    8  A    between atoms: S_21  and  N_24
REMARK    9  A    between atoms: C_26  and  C_33
REMARK   10  A    between atoms: C_29  and  C_32
REMARK                            x       y       z     vdW  Elec       q    Type
REMARK                         _______ _______ _______ _____ _____    ______ ____
ROOT
ATOM      1  C   UNL     1       2.386   1.406  -0.042  0.00  0.00    +0.059 A 
ATOM      2  C   UNL     1       1.167   2.088  -0.018  0.00  0.00    +0.017 A 
ATOM      3  C   UNL     1      -0.016   1.378  -0.013  0.00  0.00    +0.029 A 
ATOM      4  C   UNL     1       0.003  -0.005  -0.031  0.00  0.00    +0.106 A 
ATOM      5  C   UNL     1       1.207  -0.687  -0.054  0.00  0.00    +0.029 A 
ATOM      6  C   UNL     1       2.398   0.010  -0.059  0.00  0.00    +0.017 A 
ENDROOT
BRANCH   4   7
ATOM      7  S   UNL     1      -1.513  -0.903  -0.023  0.00  0.00    +0.061 S 
ATOM      8  O   UNL     1      -1.221  -2.188   0.507  0.00  0.00    -0.153 OA
ATOM      9  O   UNL     1      -2.490  -0.046   0.551  0.00  0.00    -0.153 OA
BRANCH   7  10
ATOM     10  N   UNL     1      -1.954  -1.132  -1.603  0.00  0.00    -0.176 NA
ATOM     11  C   UNL     1      -2.802  -0.151  -2.293  0.00  0.00    +0.112 C 
ATOM     12  C   UNL     1      -2.099   0.275  -3.591  0.00  0.00    +0.002 C 
ATOM     13  C   UNL     1      -1.775  -0.969  -4.421  0.00  0.00    +0.009 C 
ATOM     14  C   UNL     1      -0.825  -1.875  -3.635  0.00  0.00    +0.002 C 
ATOM     15  C   UNL     1      -1.509  -2.323  -2.339  0.00  0.00    +0.112 C 
ATOM     16  C   UNL     1       0.453  -1.106  -3.298  0.00  0.00    +0.009 C 
ATOM     17  C   UNL     1      -3.023   1.196  -4.391  0.00  0.00    +0.009 C 
ENDBRANCH   7  10
ENDBRANCH   4   7
BRANCH   1  18
ATOM     18  C   UNL     1       3.657   2.159  -0.046  0.00  0.00    +0.340 C 
ATOM     19  O   UNL     1       4.715   1.564  -0.066  0.00  0.00    -0.245 OA
BRANCH  18  20
ATOM     20  O   UNL     1       3.642   3.506  -0.029  0.00  0.00    -0.452 OA
BRANCH  20  21
ATOM     21  C   UNL     1       4.928   4.180  -0.036  0.00  0.00    +0.328 C 
BRANCH  21  23
ATOM     22  N   UNL     1       5.774   6.504  -0.016  0.00  0.00    -0.282 N 
ATOM     23  C   UNL     1       4.714   5.671  -0.014  0.00  0.00    +0.255 C 
ATOM     24  O   UNL     1       3.589   6.122   0.004  0.00  0.00    -0.272 OA
ATOM     25  H   UNL     1       6.673   6.146   0.050  0.00  0.00    +0.155 HD
BRANCH  22  32
ATOM     26  C   UNL     1       7.791   8.224   1.018  0.00  0.00    +0.045 C 
ATOM     27  C   UNL     1       6.537   8.761   0.379  0.00  0.00    -0.029 A 
ATOM     28  C   UNL     1       6.339  10.125   0.282  0.00  0.00    +0.005 A 
ATOM     29  C   UNL     1       5.189  10.619  -0.305  0.00  0.00    +0.000 A 
ATOM     30  C   UNL     1       4.232   9.750  -0.796  0.00  0.00    +0.002 A 
ATOM     31  C   UNL     1       4.425   8.385  -0.707  0.00  0.00    +0.023 A 
ATOM     32  C   UNL     1       5.577   7.886  -0.113  0.00  0.00    +0.036 A 
ENDBRANCH  22  32
ENDBRANCH  21  23
ENDBRANCH  20  21
ENDBRANCH  18  20
ENDBRANCH   1  18
TORSDOF 7
