REMARK  Name = ZINC25250329
REMARK  6 active torsions:
REMARK  status: ('A' for Active; 'I' for Inactive)
REMARK    1  A    between atoms: C_4  and  C_7
REMARK    2  A    between atoms: C_7  and  C_13
REMARK    3  A    between atoms: C_13  and  N_14
REMARK    4  A    between atoms: C_15  and  C_17
REMARK    5  A    between atoms: C_20  and  N_26
REMARK    6  A    between atoms: C_21  and  N_23
REMARK                            x       y       z     vdW  Elec       q    Type
REMARK                         _______ _______ _______ _____ _____    ______ ____
ROOT
ATOM      1  N   UNL     1       4.646   1.052  -1.438  0.00  0.00    -0.310 N 
ATOM      2  C   UNL     1       5.432   1.499  -2.438  0.00  0.00    +0.244 C 
ATOM      3  O   UNL     1       5.885   0.716  -3.251  0.00  0.00    -0.270 OA
ATOM      4  H   UNL     1       4.285   1.677  -0.790  0.00  0.00    +0.149 HD
ENDROOT
BRANCH   2   5
ATOM      5  C   UNL     1       5.743   2.937  -2.546  0.00  0.00    +0.039 A 
ATOM      6  C   UNL     1       5.228   3.837  -1.608  0.00  0.00    +0.015 A 
ATOM      7  C   UNL     1       5.520   5.178  -1.711  0.00  0.00    +0.026 A 
ATOM      8  C   UNL     1       6.327   5.638  -2.748  0.00  0.00    +0.055 A 
ATOM      9  C   UNL     1       6.842   4.744  -3.683  0.00  0.00    +0.147 A 
ATOM     10  C   UNL     1       6.558   3.401  -3.582  0.00  0.00    +0.047 A 
BRANCH   9  11
ATOM     11  N   UNL     1       7.699   5.238  -4.784  0.00  0.00    +0.058 N 
ATOM     12  O   UNL     1       7.614   4.744  -5.884  0.00  0.00    -0.126 OA
ATOM     13  O   UNL     1       8.484   6.135  -4.583  0.00  0.00    -0.126 OA
ENDBRANCH   9  11
BRANCH   8  14
ATOM     14  N   UNL     1       6.620   6.994  -2.850  0.00  0.00    -0.356 N 
ATOM     15  H   UNL     1       6.361   7.600  -2.139  0.00  0.00    +0.142 HD
ATOM     16  H   UNL     1       7.085   7.332  -3.631  0.00  0.00    +0.142 HD
ENDBRANCH   8  14
ENDBRANCH   2   5
BRANCH   1  17
ATOM     17  C   UNL     1       4.337  -0.376  -1.331  0.00  0.00    +0.116 C 
BRANCH  17  18
ATOM     18  C   UNL     1       3.479  -0.620  -0.088  0.00  0.00    +0.011 C 
ATOM     19  C   UNL     1       4.267  -0.222   1.162  0.00  0.00    +0.013 C 
ATOM     20  C   UNL     1       5.543  -1.062   1.250  0.00  0.00    +0.001 C 
ATOM     21  C   UNL     1       5.172  -2.545   1.330  0.00  0.00    +0.000 C 
ATOM     22  C   UNL     1       4.385  -2.942   0.081  0.00  0.00    +0.001 C 
ATOM     23  C   UNL     1       3.109  -2.102  -0.007  0.00  0.00    +0.013 C 
BRANCH  18  27
ATOM     24  C   UNL     1      -0.081   1.727  -0.334  0.00  0.00    +0.000 A 
ATOM     25  C   UNL     1       0.786   1.896   0.729  0.00  0.00    +0.000 A 
ATOM     26  C   UNL     1       1.938   1.137   0.809  0.00  0.00    +0.004 A 
ATOM     27  C   UNL     1       2.223   0.207  -0.174  0.00  0.00    -0.040 A 
ATOM     28  C   UNL     1       1.355   0.038  -1.237  0.00  0.00    +0.004 A 
ATOM     29  C   UNL     1       0.203   0.798  -1.318  0.00  0.00    +0.000 A 
ENDBRANCH  18  27
ENDBRANCH  17  18
ENDBRANCH   1  17
TORSDOF 6
