REMARK  Name = ZINC15034153
REMARK  7 active torsions:
REMARK  status: ('A' for Active; 'I' for Inactive)
REMARK    1  A    between atoms: C_3  and  N_14
REMARK    2  A    between atoms: C_4  and  N_11
REMARK    3  A    between atoms: C_6  and  C_7
REMARK    4  A    between atoms: N_14  and  C_15
REMARK    5  A    between atoms: C_15  and  C_16
REMARK    6  A    between atoms: C_16  and  N_17
REMARK    7  A    between atoms: C_18  and  C_20
REMARK                            x       y       z     vdW  Elec       q    Type
REMARK                         _______ _______ _______ _____ _____    ______ ____
ROOT
ATOM      1  N   UNL     1      -6.252   1.901  -0.472  0.00  0.00    -0.341 N 
ATOM      2  H   UNL     1      -6.282   2.870  -0.477  0.00  0.00    +0.146 HD
ENDROOT
BRANCH   1   5
ATOM      3  C   UNL     1      -8.548  -0.940  -0.067  0.00  0.00    +0.014 A 
ATOM      4  C   UNL     1      -7.399  -0.217  -0.324  0.00  0.00    +0.026 A 
ATOM      5  C   UNL     1      -7.412   1.167  -0.213  0.00  0.00    +0.058 A 
ATOM      6  C   UNL     1      -8.579   1.820   0.163  0.00  0.00    +0.147 A 
ATOM      7  C   UNL     1      -9.726   1.092   0.413  0.00  0.00    +0.047 A 
ATOM      8  C   UNL     1      -9.710  -0.286   0.301  0.00  0.00    +0.057 A 
BRANCH   8   9
ATOM      9  C   UNL     1     -10.961  -1.078   0.582  0.00  0.00    +0.417 C 
ATOM     10  F   UNL     1     -10.700  -2.441   0.404  0.00  0.00    -0.166 F 
ATOM     11  F   UNL     1     -11.372  -0.849   1.899  0.00  0.00    -0.166 F 
ATOM     12  F   UNL     1     -11.973  -0.678  -0.298  0.00  0.00    -0.166 F 
ENDBRANCH   8   9
BRANCH   6  13
ATOM     13  N   UNL     1      -8.596   3.295   0.289  0.00  0.00    +0.058 N 
ATOM     14  O   UNL     1      -7.627   3.878   0.741  0.00  0.00    -0.126 OA
ATOM     15  O   UNL     1      -9.578   3.925  -0.059  0.00  0.00    -0.126 OA
ENDBRANCH   6  13
ENDBRANCH   1   5
BRANCH   1  16
ATOM     16  C   UNL     1      -4.990   1.206  -0.736  0.00  0.00    +0.120 C 
BRANCH  16  17
ATOM     17  C   UNL     1      -3.885   2.234  -0.988  0.00  0.00    +0.123 C 
BRANCH  17  18
ATOM     18  N   UNL     1      -2.622   1.539  -1.252  0.00  0.00    -0.310 N 
ATOM     19  C   UNL     1      -1.503   2.247  -1.502  0.00  0.00    +0.245 C 
ATOM     20  O   UNL     1      -1.541   3.462  -1.509  0.00  0.00    -0.270 OA
ATOM     21  H   UNL     1      -2.592   0.570  -1.246  0.00  0.00    +0.149 HD
BRANCH  19  22
ATOM     22  C   UNL     1      -0.231   1.547  -1.768  0.00  0.00    +0.051 A 
ATOM     23  C   UNL     1      -0.184   0.151  -1.762  0.00  0.00    +0.017 A 
ATOM     24  C   UNL     1       1.005  -0.498  -2.016  0.00  0.00    +0.039 A 
ATOM     25  C   UNL     1       2.155   0.233  -2.279  0.00  0.00    +0.124 A 
ATOM     26  C   UNL     1       2.115   1.618  -2.287  0.00  0.00    +0.054 A 
ATOM     27  C   UNL     1       0.930   2.278  -2.034  0.00  0.00    +0.033 A 
ATOM     28 BR   UNL     1       0.877   4.168  -2.046  0.00  0.00    -0.049 Br
ATOM     29  F   UNL     1       3.317  -0.409  -2.528  0.00  0.00    -0.205 F 
ENDBRANCH  19  22
ENDBRANCH  17  18
ENDBRANCH  16  17
ENDBRANCH   1  16
TORSDOF 7
