REMARK  Name = ZINC02154963
REMARK  7 active torsions:
REMARK  status: ('A' for Active; 'I' for Inactive)
REMARK    1  A    between atoms: C_7  and  C_11
REMARK    2  A    between atoms: C_11  and  C_12
REMARK    3  A    between atoms: C_12  and  C_14
REMARK    4  A    between atoms: C_12  and  N_52
REMARK    5  A    between atoms: C_14  and  O_16
REMARK    6  A    between atoms: O_16  and  C_17
REMARK    7  A    between atoms: C_25  and  C_28
REMARK                            x       y       z     vdW  Elec       q    Type
REMARK                         _______ _______ _______ _____ _____    ______ ____
ROOT
ATOM      1  O   UNL     1       5.819   2.608  -0.042  0.00  0.00    -0.427 OA
ENDROOT
BRANCH   1   2
ATOM      2  C   UNL     1       4.722   1.807  -0.018  0.00  0.00    +0.135 A 
ATOM      3  C   UNL     1       4.381   1.139   1.156  0.00  0.00    +0.047 A 
ATOM      4  C   UNL     1       3.281   0.330   1.194  0.00  0.00    +0.019 A 
ATOM      5  C   UNL     1       2.497   0.173   0.050  0.00  0.00    +0.065 A 
ATOM      6  C   UNL     1       2.832   0.843  -1.139  0.00  0.00    +0.142 A 
ATOM      7  C   UNL     1       3.954   1.662  -1.161  0.00  0.00    +0.093 A 
ATOM      8  O   UNL     1       2.074   0.690  -2.243  0.00  0.00    -0.462 OA
ATOM      9  C   UNL     1       0.986  -0.083  -2.284  0.00  0.00    +0.208 A 
ATOM     10  C   UNL     1       0.548  -0.786  -1.208  0.00  0.00    +0.067 A 
ATOM     11  C   UNL     1       1.303  -0.692   0.054  0.00  0.00    +0.200 A 
ATOM     12  O   UNL     1       0.958  -1.301   1.052  0.00  0.00    -0.286 OA
BRANCH  10  13
ATOM     13  C   UNL     1      -0.667  -1.632  -1.300  0.00  0.00    +0.024 A 
ATOM     14  C   UNL     1      -0.680  -2.747  -2.137  0.00  0.00    +0.011 A 
ATOM     15  C   UNL     1      -1.813  -3.531  -2.220  0.00  0.00    +0.001 A 
ATOM     16  C   UNL     1      -2.934  -3.214  -1.474  0.00  0.00    +0.003 A 
ATOM     17  C   UNL     1      -2.928  -2.110  -0.641  0.00  0.00    +0.039 A 
ATOM     18  C   UNL     1      -1.798  -1.319  -0.546  0.00  0.00    +0.131 A 
ATOM     19  F   UNL     1      -1.791  -0.244   0.272  0.00  0.00    -0.205 F 
ENDBRANCH  10  13
ENDBRANCH   1   2
BRANCH   1  20
ATOM     20  C   UNL     1       7.015   2.005   0.047  0.00  0.00    +0.298 C 
ATOM     21  O   UNL     1       7.087   0.799   0.037  0.00  0.00    -0.252 OA
BRANCH  20  22
ATOM     22  C   UNL     1       8.270   2.833   0.158  0.00  0.00    +0.041 C 
BRANCH  22  25
ATOM     23  H   UNL     1      10.274   2.572  -0.230  0.00  0.00    -0.089 HD
ATOM     24  H   UNL     1       9.522   1.212   0.361  0.00  0.00    -0.089 HD
ATOM     25  N   UNL     1       9.422   2.015  -0.258  0.00  0.00    +0.387 N 
ATOM     26  H   UNL     1       9.271   1.681  -1.217  0.00  0.00    -0.089 HD
ENDBRANCH  22  25
BRANCH  22  27
ATOM     27  C   UNL     1       8.442   3.305   1.603  0.00  0.00    +0.032 C 
BRANCH  27  34
ATOM     28  C   UNL     1       8.977   7.901   0.855  0.00  0.00    +0.001 A 
ATOM     29  C   UNL     1      10.280   8.335   1.061  0.00  0.00    +0.002 A 
ATOM     30  C   UNL     1      11.261   7.450   1.452  0.00  0.00    +0.026 A 
ATOM     31  C   UNL     1      10.949   6.107   1.633  0.00  0.00    +0.047 A 
ATOM     32  C   UNL     1       9.628   5.672   1.420  0.00  0.00    +0.003 A 
ATOM     33  C   UNL     1       8.647   6.587   1.031  0.00  0.00    +0.010 A 
ATOM     34  C   UNL     1       9.627   4.233   1.690  0.00  0.00    -0.023 A 
ATOM     35  C   UNL     1      10.882   3.896   2.026  0.00  0.00    +0.087 A 
ATOM     36  N   UNL     1      11.686   5.003   1.996  0.00  0.00    -0.360 N 
ATOM     37  H   UNL     1      12.634   5.008   2.201  0.00  0.00    +0.165 HD
ENDBRANCH  27  34
ENDBRANCH  22  27
ENDBRANCH  20  22
ENDBRANCH   1  20
TORSDOF 7
