REMARK  Name = ZINC13499613
REMARK  13 active torsions:
REMARK  status: ('A' for Active; 'I' for Inactive)
REMARK    1  A    between atoms: C_1  and  C_2
REMARK    2  A    between atoms: C_2  and  C_3
REMARK    3  A    between atoms: C_3  and  C_4
REMARK    4  A    between atoms: C_4  and  C_6
REMARK    5  A    between atoms: C_4  and  N_75
REMARK    6  A    between atoms: N_10  and  C_11
REMARK    7  A    between atoms: C_11  and  C_12
REMARK    8  A    between atoms: C_12  and  C_13
REMARK    9  A    between atoms: C_19  and  C_20
REMARK   10  A    between atoms: C_19  and  N_75
REMARK   11  A    between atoms: C_23  and  C_33
REMARK   12  A    between atoms: C_25  and  C_32
REMARK   13  A    between atoms: C_34  and  N_75
REMARK                            x       y       z     vdW  Elec       q    Type
REMARK                         _______ _______ _______ _____ _____    ______ ____
ROOT
ATOM      1  N   UNL     1      -2.160   0.644   1.339  0.00  0.00    +0.391 N 
ATOM      2  H   UNL     1      -1.968  -0.231   1.841  0.00  0.00    -0.080 HD
ENDROOT
BRANCH   1   3
ATOM      3  C   UNL     1      -3.256   1.361   2.024  0.00  0.00    -0.067 C 
ATOM      4  C   UNL     1      -2.723   2.018   3.315  0.00  0.00    -0.015 C 
ATOM      5  C   UNL     1      -3.874   1.836   4.336  0.00  0.00    -0.002 C 
ATOM      6  C   UNL     1      -4.415   0.425   3.995  0.00  0.00    -0.002 C 
ATOM      7  C   UNL     1      -4.332   0.349   2.456  0.00  0.00    -0.015 C 
ENDBRANCH   1   3
BRANCH   1   8
ATOM      8  C   UNL     1      -0.937   1.474   1.336  0.00  0.00    +0.003 C 
BRANCH   8   9
ATOM      9  C   UNL     1       0.260   0.566   1.223  0.00  0.00    +0.138 A 
ATOM     10  N   UNL     1       0.374  -0.486   0.451  0.00  0.00    -0.115 NA
ATOM     11  N   UNL     1       1.544  -0.993   0.638  0.00  0.00    -0.023 NA
ATOM     12  N   UNL     1       2.176  -0.295   1.516  0.00  0.00    -0.044 NA
ATOM     13  N   UNL     1       1.418   0.675   1.901  0.00  0.00    -0.231 N 
BRANCH  13  14
ATOM     14  C   UNL     1       1.754   1.703   2.890  0.00  0.00    +0.152 C 
BRANCH  14  15
ATOM     15  C   UNL     1       1.336   1.227   4.282  0.00  0.00    +0.058 C 
BRANCH  15  16
ATOM     16  C   UNL     1       1.681   2.284   5.299  0.00  0.00    -0.046 A 
ATOM     17  C   UNL     1       2.915   2.266   5.923  0.00  0.00    +0.004 A 
ATOM     18  C   UNL     1       3.234   3.238   6.852  0.00  0.00    +0.000 A 
ATOM     19  C   UNL     1       2.316   4.223   7.165  0.00  0.00    +0.000 A 
ATOM     20  C   UNL     1       1.080   4.237   6.546  0.00  0.00    +0.000 A 
ATOM     21  C   UNL     1       0.763   3.268   5.613  0.00  0.00    +0.004 A 
ENDBRANCH  15  16
ENDBRANCH  14  15
ENDBRANCH  13  14
ENDBRANCH   8   9
BRANCH   8  22
ATOM     22  C   UNL     1      -0.954   2.445   0.154  0.00  0.00    -0.008 C 
BRANCH  22  24
ATOM     23  C   UNL     1      -1.983   4.537  -0.745  0.00  0.00    +0.004 C 
ATOM     24  C   UNL     1      -2.060   3.482   0.360  0.00  0.00    -0.005 C 
ENDBRANCH  22  24
ENDBRANCH   8  22
ENDBRANCH   1   8
BRANCH   1  25
ATOM     25  C   UNL     1      -2.556   0.324  -0.049  0.00  0.00    -0.036 C 
BRANCH  25  26
ATOM     26  C   UNL     1      -3.543  -0.816  -0.019  0.00  0.00    +0.001 A 
ATOM     27  C   UNL     1      -4.871  -0.561  -0.114  0.00  0.00    +0.017 A 
ATOM     28  C   UNL     1      -5.803  -1.691  -0.087  0.00  0.00    +0.002 A 
ATOM     29  C   UNL     1      -7.184  -1.492  -0.186  0.00  0.00    -0.041 A 
ATOM     30  C   UNL     1      -8.027  -2.566  -0.153  0.00  0.00    +0.007 A 
ATOM     31  C   UNL     1      -7.525  -3.854  -0.021  0.00  0.00    -0.048 A 
ATOM     32  C   UNL     1      -6.168  -4.073   0.079  0.00  0.00    +0.029 A 
ATOM     33  C   UNL     1      -5.290  -2.995   0.047  0.00  0.00    +0.050 A 
ATOM     34  N   UNL     1      -3.929  -3.185   0.145  0.00  0.00    -0.322 N 
ATOM     35  H   UNL     1      -3.577  -4.085   0.237  0.00  0.00    +0.169 HD
ATOM     36  C   UNL     1      -3.080  -2.142   0.114  0.00  0.00    +0.251 A 
ATOM     37  O   UNL     1      -1.882  -2.348   0.202  0.00  0.00    -0.268 OA
ATOM     38  C   UNL     1      -8.474  -5.024   0.013  0.00  0.00    +0.044 C 
ATOM     39  C   UNL     1      -7.739  -0.098  -0.330  0.00  0.00    +0.044 C 
ENDBRANCH  25  26
ENDBRANCH   1  25
TORSDOF 10
