REMARK  Name = ZINC40375632
REMARK  4 active torsions:
REMARK  status: ('A' for Active; 'I' for Inactive)
REMARK    1  A    between atoms: C_6  and  N_7
REMARK    2  A    between atoms: N_10  and  C_11
REMARK    3  A    between atoms: C_11  and  C_16
REMARK    4  A    between atoms: N_17  and  O_18
REMARK                            x       y       z     vdW  Elec       q    Type
REMARK                         _______ _______ _______ _____ _____    ______ ____
ROOT
ATOM      1  N   UNL     1      -0.615  -0.940   0.293  0.00  0.00    -0.269 N 
ATOM      2  C   UNL     1      -0.812  -2.258   0.094  0.00  0.00    +0.305 C 
ATOM      3  O   UNL     1       0.136  -3.019   0.074  0.00  0.00    -0.252 OA
ATOM      4  N   UNL     1      -2.061  -2.733  -0.083  0.00  0.00    -0.287 N 
ATOM      5  H   UNL     1      -1.374  -0.343   0.379  0.00  0.00    +0.156 HD
ATOM      6  H   UNL     1      -2.810  -2.119  -0.138  0.00  0.00    +0.151 HD
ENDROOT
BRANCH   1  12
ATOM      7  C   UNL     1       0.979   0.824  -0.139  0.00  0.00    +0.026 A 
ATOM      8  C   UNL     1       2.264   1.323  -0.055  0.00  0.00    +0.040 A 
ATOM      9  C   UNL     1       3.262   0.572   0.543  0.00  0.00    +0.124 A 
ATOM     10  C   UNL     1       2.974  -0.681   1.058  0.00  0.00    +0.040 A 
ATOM     11  C   UNL     1       1.690  -1.184   0.975  0.00  0.00    +0.026 A 
ATOM     12  C   UNL     1       0.688  -0.432   0.377  0.00  0.00    +0.035 A 
ATOM     13  F   UNL     1       4.518   1.062   0.624  0.00  0.00    -0.205 F 
ENDBRANCH   1  12
BRANCH   4  14
ATOM     14  C   UNL     1      -2.288  -4.177  -0.191  0.00  0.00    +0.094 C 
ATOM     15  C   UNL     1      -1.755  -4.891   1.069  0.00  0.00    +0.033 C 
ATOM     16  C   UNL     1      -3.000  -5.037   1.978  0.00  0.00    +0.003 C 
ATOM     17  C   UNL     1      -4.128  -5.352   0.965  0.00  0.00    +0.003 C 
ATOM     18  C   UNL     1      -3.797  -4.470  -0.257  0.00  0.00    +0.033 C 
BRANCH  14  19
ATOM     19  C   UNL     1      -1.603  -4.716  -1.420  0.00  0.00    +0.155 C 
ATOM     20  N   UNL     1      -1.591  -5.987  -1.647  0.00  0.00    -0.075 NA
ATOM     21  N   UNL     1      -0.989  -3.853  -2.301  0.00  0.00    -0.342 N 
ATOM     22  H   UNL     1      -0.960  -2.903  -2.107  0.00  0.00    +0.144 HD
ATOM     23  H   UNL     1      -0.587  -4.195  -3.114  0.00  0.00    +0.144 HD
BRANCH  20  24
ATOM     24  O   UNL     1      -2.306  -6.865  -0.798  0.00  0.00    -0.408 OA
ATOM     25  H   UNL     1      -2.238  -7.797  -1.047  0.00  0.00    +0.328 HD
ENDBRANCH  20  24
ENDBRANCH  14  19
ENDBRANCH   4  14
TORSDOF 4
