REMARK  Name = ZINC29268560
REMARK  8 active torsions:
REMARK  status: ('A' for Active; 'I' for Inactive)
REMARK    1  A    between atoms: C_1  and  S_2
REMARK    2  A    between atoms: S_2  and  C_3
REMARK    3  A    between atoms: C_6  and  N_9
REMARK    4  A    between atoms: C_10  and  C_12
REMARK    5  A    between atoms: C_12  and  O_13
REMARK    6  A    between atoms: O_13  and  C_14
REMARK    7  A    between atoms: C_14  and  C_16
REMARK    8  A    between atoms: C_21  and  N_22
REMARK                            x       y       z     vdW  Elec       q    Type
REMARK                         _______ _______ _______ _____ _____    ______ ____
ROOT
ATOM      1  C   UNL     1      -1.543   1.841   0.698  0.00  0.00    +0.080 A 
ATOM      2  C   UNL     1      -1.632   3.186   1.052  0.00  0.00    +0.017 A 
ATOM      3  C   UNL     1      -2.833   3.719   1.483  0.00  0.00    +0.013 A 
ATOM      4  C   UNL     1      -3.968   2.918   1.567  0.00  0.00    +0.035 A 
ATOM      5  C   UNL     1      -3.897   1.558   1.214  0.00  0.00    +0.054 A 
ATOM      6  C   UNL     1      -2.682   1.018   0.772  0.00  0.00    +0.050 A 
ATOM      7  C   UNL     1      -5.096   0.707   1.302  0.00  0.00    +0.196 C 
ATOM      8  O   UNL     1      -5.032  -0.467   0.996  0.00  0.00    -0.287 OA
ATOM      9  C   UNL     1      -6.378   1.282   1.764  0.00  0.00    +0.033 A 
ATOM     10  C   UNL     1      -7.514   0.483   1.849  0.00  0.00    +0.012 A 
ATOM     11  C   UNL     1      -8.710   1.030   2.281  0.00  0.00    +0.001 A 
ATOM     12  C   UNL     1      -8.784   2.366   2.630  0.00  0.00    +0.001 A 
ATOM     13  C   UNL     1      -7.664   3.174   2.550  0.00  0.00    +0.012 A 
ATOM     14  C   UNL     1      -6.453   2.641   2.117  0.00  0.00    +0.033 A 
ATOM     15  C   UNL     1      -5.251   3.495   2.029  0.00  0.00    +0.195 C 
ATOM     16  O   UNL     1      -5.315   4.669   2.335  0.00  0.00    -0.287 OA
ENDROOT
BRANCH   6  17
ATOM     17  N   UNL     1      -2.602  -0.313   0.416  0.00  0.00    -0.357 N 
ATOM     18  H   UNL     1      -3.494  -0.953   0.475  0.00  0.00    +0.142 HD
ATOM     19  H   UNL     1      -1.645  -0.734   0.073  0.00  0.00    +0.142 HD
ENDBRANCH   6  17
BRANCH   1  20
ATOM     20  C   UNL     1      -0.257   1.282   0.239  0.00  0.00    +0.341 C 
ATOM     21  O   UNL     1      -0.203   0.140  -0.171  0.00  0.00    -0.245 OA
BRANCH  20  22
ATOM     22  O   UNL     1       0.857   2.041   0.270  0.00  0.00    -0.452 OA
BRANCH  22  23
ATOM     23  C   UNL     1       2.085   1.427  -0.203  0.00  0.00    +0.328 C 
BRANCH  23  25
ATOM     24  N   UNL     1       4.458   2.067  -0.478  0.00  0.00    -0.283 N 
ATOM     25  C   UNL     1       3.215   2.418  -0.094  0.00  0.00    +0.255 C 
ATOM     26  O   UNL     1       3.006   3.532   0.338  0.00  0.00    -0.272 OA
ATOM     27  H   UNL     1       4.635   1.085  -0.940  0.00  0.00    +0.155 HD
BRANCH  24  31
ATOM     28  C   UNL     1       7.638   4.707   0.085  0.00  0.00    +0.008 A 
ATOM     29  C   UNL     1       7.836   3.339   0.233  0.00  0.00    +0.016 A 
ATOM     30  C   UNL     1       6.783   2.466   0.046  0.00  0.00    +0.024 A 
ATOM     31  C   UNL     1       5.527   2.954  -0.289  0.00  0.00    +0.034 A 
ATOM     32  C   UNL     1       5.330   4.320  -0.442  0.00  0.00    +0.024 A 
ATOM     33  C   UNL     1       6.381   5.195  -0.251  0.00  0.00    +0.016 A 
BRANCH  28  35
ATOM     34  C   UNL     1       8.252   7.457   0.028  0.00  0.00    +0.090 C 
ATOM     35  S   UNL     1       8.982   5.822   0.323  0.00  0.00    -0.129 S 
ENDBRANCH  28  35
ENDBRANCH  24  31
ENDBRANCH  23  25
ENDBRANCH  22  23
ENDBRANCH  20  22
ENDBRANCH   1  20
TORSDOF 7
