REMARK  Name = ZINC12891196
REMARK  8 active torsions:
REMARK  status: ('A' for Active; 'I' for Inactive)
REMARK    1  A    between atoms: C_1  and  C_2
REMARK    2  A    between atoms: C_9  and  C_14
REMARK    3  A    between atoms: C_14  and  O_16
REMARK    4  A    between atoms: O_16  and  C_17
REMARK    5  A    between atoms: C_17  and  C_18
REMARK    6  A    between atoms: N_20  and  C_21
REMARK    7  A    between atoms: C_21  and  C_23
REMARK    8  A    between atoms: C_21  and  C_24
REMARK                            x       y       z     vdW  Elec       q    Type
REMARK                         _______ _______ _______ _____ _____    ______ ____
ROOT
ATOM      1  O   UNL     1       4.193   7.038  -0.947  0.00  0.00    -0.452 OA
ENDROOT
BRANCH   1   2
ATOM      2  C   UNL     1       4.002   5.704  -0.938  0.00  0.00    +0.340 C 
ATOM      3  O   UNL     1       4.882   4.961  -1.325  0.00  0.00    -0.245 OA
BRANCH   2  11
ATOM      4  C   UNL     1      -1.760   2.246  -1.414  0.00  0.00    +0.029 C 
ATOM      5  C   UNL     1      -1.350   1.901   0.019  0.00  0.00    +0.134 C 
ATOM      6  C   UNL     1      -0.014   1.209   0.009  0.00  0.00    +0.230 C 
ATOM      7  O   UNL     1       0.002  -0.004   0.002  0.00  0.00    -0.274 OA
ATOM      8  N   UNL     1       1.149   1.853   0.001  0.00  0.00    -0.284 N 
ATOM      9  C   UNL     1       1.328   3.234  -0.003  0.00  0.00    +0.048 A 
ATOM     10  C   UNL     1       2.527   3.763  -0.452  0.00  0.00    +0.039 A 
ATOM     11  C   UNL     1       2.725   5.146  -0.460  0.00  0.00    +0.061 A 
ATOM     12  C   UNL     1       1.712   6.002  -0.014  0.00  0.00    +0.016 A 
ATOM     13  C   UNL     1       0.519   5.477   0.431  0.00  0.00    +0.017 A 
ATOM     14  C   UNL     1       0.323   4.103   0.437  0.00  0.00    +0.030 A 
ATOM     15  S   UNL     1      -1.207   3.427   1.003  0.00  0.00    -0.111 S 
ATOM     16  H   UNL     1       1.952   1.307  -0.002  0.00  0.00    +0.155 HD
ENDBRANCH   2  11
ENDBRANCH   1   2
BRANCH   1  17
ATOM     17  C   UNL     1       5.476   7.516  -1.431  0.00  0.00    +0.328 C 
BRANCH  17  18
ATOM     18  C   UNL     1       5.506   9.022  -1.368  0.00  0.00    +0.251 C 
ATOM     19  O   UNL     1       4.543   9.631  -0.954  0.00  0.00    -0.272 OA
ATOM     20  N   UNL     1       6.605   9.691  -1.770  0.00  0.00    -0.303 N 
ATOM     21  H   UNL     1       7.376   9.203  -2.101  0.00  0.00    +0.149 HD
BRANCH  20  22
ATOM     22  C   UNL     1       6.635  11.154  -1.708  0.00  0.00    +0.136 C 
ATOM     23  C   UNL     1       7.059  11.597  -0.306  0.00  0.00    +0.036 C 
BRANCH  22  24
ATOM     24  C   UNL     1       7.621  11.680  -2.719  0.00  0.00    +0.126 A 
ATOM     25  C   UNL     1       7.431  12.763  -3.485  0.00  0.00    +0.055 A 
ATOM     26  C   UNL     1       8.638  12.899  -4.308  0.00  0.00    +0.020 A 
ATOM     27  C   UNL     1       9.056  13.803  -5.284  0.00  0.00    +0.011 A 
ATOM     28  C   UNL     1      10.275  13.640  -5.882  0.00  0.00    +0.001 A 
ATOM     29  C   UNL     1      11.098  12.581  -5.523  0.00  0.00    +0.004 A 
ATOM     30  C   UNL     1      10.701  11.678  -4.560  0.00  0.00    +0.047 A 
ATOM     31  C   UNL     1       9.467  11.825  -3.940  0.00  0.00    +0.135 A 
ATOM     32  O   UNL     1       8.816  11.126  -2.989  0.00  0.00    -0.458 OA
ENDBRANCH  22  24
ENDBRANCH  20  22
ENDBRANCH  17  18
ENDBRANCH   1  17
TORSDOF 6
