REMARK  Name = ZINC14544856
REMARK  1 active torsions:
REMARK  status: ('A' for Active; 'I' for Inactive)
REMARK    1  A    between atoms: C_7  and  C_11
REMARK                            x       y       z     vdW  Elec       q    Type
REMARK                         _______ _______ _______ _____ _____    ______ ____
ROOT
ATOM      1  C   UNL     1      -1.197  -0.917   0.008  0.00  0.00    +0.107 C 
ATOM      2  C   UNL     1      -1.435  -1.429   1.420  0.00  0.00    +0.029 C 
ATOM      3  C   UNL     1      -2.814  -2.125   1.515  0.00  0.00    +0.033 C 
ATOM      4  C   UNL     1      -3.234  -1.838   2.958  0.00  0.00    -0.030 C 
ATOM      5  C   UNL     1      -2.573  -0.817   3.442  0.00  0.00    -0.023 C 
ATOM      6  C   UNL     1      -1.624  -0.252   2.398  0.00  0.00    +0.050 C 
ATOM      7  C   UNL     1      -2.305   0.913   1.729  0.00  0.00    +0.000 A 
ATOM      8  C   UNL     1      -2.605   2.021   2.513  0.00  0.00    +0.047 A 
ATOM      9  C   UNL     1      -3.228   3.123   1.963  0.00  0.00    +0.022 A 
ATOM     10  C   UNL     1      -3.561   3.132   0.620  0.00  0.00    +0.023 A 
ATOM     11  C   UNL     1      -3.267   2.037  -0.165  0.00  0.00    +0.062 A 
ATOM     12  C   UNL     1      -2.636   0.922   0.388  0.00  0.00    +0.051 A 
ATOM     13  N   UNL     1      -2.372  -0.179  -0.460  0.00  0.00    -0.335 N 
ATOM     14 CL   UNL     1      -3.683   2.046  -1.851  0.00  0.00    -0.082 Cl
ATOM     15 CL   UNL     1      -2.192   2.019   4.199  0.00  0.00    -0.083 Cl
ATOM     16  H   UNL     1      -2.251   0.125  -1.414  0.00  0.00    +0.147 HD
ENDROOT
BRANCH   1  23
ATOM     17  C   UNL     1       3.425  -1.693   0.110  0.00  0.00    +0.001 A 
ATOM     18  C   UNL     1       4.170  -0.522   0.089  0.00  0.00    +0.002 A 
ATOM     19  C   UNL     1       3.549   0.706   0.041  0.00  0.00    +0.026 A 
ATOM     20  C   UNL     1       2.159   0.777   0.016  0.00  0.00    +0.047 A 
ATOM     21  C   UNL     1       1.408  -0.412   0.038  0.00  0.00    +0.005 A 
ATOM     22  C   UNL     1       2.060  -1.647   0.086  0.00  0.00    +0.010 A 
ATOM     23  C   UNL     1       0.002  -0.004   0.002  0.00  0.00    -0.002 A 
ATOM     24  C   UNL     1      -0.016   1.338  -0.038  0.00  0.00    +0.089 A 
ATOM     25  N   UNL     1       1.264   1.822  -0.031  0.00  0.00    -0.360 N 
ATOM     26  H   UNL     1       1.504   2.761  -0.054  0.00  0.00    +0.165 HD
ENDBRANCH   1  23
TORSDOF 1
