REMARK  Name = ZINC40375000
REMARK  6 active torsions:
REMARK  status: ('A' for Active; 'I' for Inactive)
REMARK    1  A    between atoms: C_1  and  C_2
REMARK    2  A    between atoms: C_2  and  N_3
REMARK    3  A    between atoms: N_6  and  C_7
REMARK    4  A    between atoms: C_7  and  C_9
REMARK    5  A    between atoms: C_7  and  C_15
REMARK    6  A    between atoms: N_16  and  O_17
REMARK                            x       y       z     vdW  Elec       q    Type
REMARK                         _______ _______ _______ _____ _____    ______ ____
ROOT
ATOM      1  C   UNL     1       1.616  -3.674  -2.768  0.00  0.00    +0.144 C 
ENDROOT
BRANCH   1   5
ATOM      2  N   UNL     1       0.698  -0.309  -1.603  0.00  0.00    -0.300 N 
ATOM      3  C   UNL     1       0.819  -1.650  -1.670  0.00  0.00    +0.300 C 
ATOM      4  O   UNL     1       0.326  -2.348  -0.805  0.00  0.00    -0.253 OA
ATOM      5  N   UNL     1       1.485  -2.216  -2.696  0.00  0.00    -0.289 N 
ATOM      6  H   UNL     1       1.091   0.248  -2.293  0.00  0.00    +0.150 HD
ATOM      7  H   UNL     1       1.877  -1.659  -3.386  0.00  0.00    +0.151 HD
BRANCH   2   9
ATOM      8  C   UNL     1      -0.015   1.828  -0.651  0.00  0.00    +0.024 C 
ATOM      9  C   UNL     1      -0.026   0.307  -0.488  0.00  0.00    +0.102 C 
ENDBRANCH   2   9
ENDBRANCH   1   5
BRANCH   1  10
ATOM     10  C   UNL     1       2.858  -4.034  -3.586  0.00  0.00    +0.017 C 
ATOM     11  C   UNL     1       3.030  -5.554  -3.608  0.00  0.00    +0.006 C 
ATOM     12  C   UNL     1       4.272  -5.914  -4.426  0.00  0.00    +0.000 C 
ATOM     13  C   UNL     1       5.506  -5.271  -3.789  0.00  0.00    +0.000 C 
ATOM     14  C   UNL     1       5.334  -3.751  -3.766  0.00  0.00    +0.000 C 
ATOM     15  C   UNL     1       4.091  -3.390  -2.949  0.00  0.00    +0.006 C 
ENDBRANCH   1  10
BRANCH   1  16
ATOM     16  C   UNL     1       0.393  -4.255  -3.430  0.00  0.00    +0.152 C 
ATOM     17  N   UNL     1      -0.397  -5.029  -2.761  0.00  0.00    -0.075 NA
ATOM     18  N   UNL     1       0.118  -3.963  -4.747  0.00  0.00    -0.342 N 
ATOM     19  H   UNL     1       0.747  -3.441  -5.270  0.00  0.00    +0.144 HD
ATOM     20  H   UNL     1      -0.704  -4.280  -5.153  0.00  0.00    +0.144 HD
BRANCH  17  21
ATOM     21  O   UNL     1      -1.546  -5.575  -3.383  0.00  0.00    -0.408 OA
ATOM     22  H   UNL     1      -2.075  -6.141  -2.804  0.00  0.00    +0.328 HD
ENDBRANCH  17  21
ENDBRANCH   1  16
TORSDOF 5
