REMARK  Name = ZINC09726864
REMARK  12 active torsions:
REMARK  status: ('A' for Active; 'I' for Inactive)
REMARK    1  A    between atoms: C_1  and  C_2
REMARK    2  A    between atoms: C_2  and  C_3
REMARK    3  A    between atoms: C_3  and  N_4
REMARK    4  A    between atoms: C_8  and  S_29
REMARK    5  A    between atoms: C_12  and  C_13
REMARK    6  A    between atoms: C_13  and  C_14
REMARK    7  A    between atoms: C_14  and  C_15
REMARK    8  A    between atoms: N_17  and  C_18
REMARK    9  A    between atoms: C_18  and  C_19
REMARK   10  A    between atoms: C_20  and  C_28
REMARK   11  A    between atoms: C_22  and  C_27
REMARK   12  A    between atoms: S_29  and  N_32
REMARK                            x       y       z     vdW  Elec       q    Type
REMARK                         _______ _______ _______ _____ _____    ______ ____
ROOT
ATOM      1  N   UNL     1      -3.189   2.765   4.775  0.00  0.00    -0.328 N 
ATOM      2  C   UNL     1      -2.343   2.685   3.686  0.00  0.00    +0.069 A 
ATOM      3  C   UNL     1      -1.418   3.548   3.115  0.00  0.00    +0.030 A 
ATOM      4  C   UNL     1      -0.711   3.151   2.000  0.00  0.00    +0.030 A 
ATOM      5  C   UNL     1      -0.927   1.900   1.439  0.00  0.00    +0.108 A 
ATOM      6  C   UNL     1      -1.833   1.038   1.988  0.00  0.00    +0.058 A 
ATOM      7  C   UNL     1      -2.557   1.417   3.121  0.00  0.00    +0.091 A 
ATOM      8  N   UNL     1      -3.502   0.801   3.878  0.00  0.00    -0.232 NA
ATOM      9  C   UNL     1      -3.871   1.590   4.844  0.00  0.00    +0.111 A 
ENDROOT
BRANCH   5  10
ATOM     10  S   UNL     1      -0.017   1.417   0.010  0.00  0.00    +0.061 S 
ATOM     11  O   UNL     1       0.002  -0.004   0.002  0.00  0.00    -0.153 OA
ATOM     12  O   UNL     1       1.172   2.195   0.003  0.00  0.00    -0.153 OA
BRANCH  10  13
ATOM     13  N   UNL     1      -0.897   1.885  -1.312  0.00  0.00    -0.177 NA
ATOM     14  C   UNL     1      -1.909   1.071  -2.000  0.00  0.00    +0.109 C 
ATOM     15  C   UNL     1      -2.444   1.906  -3.183  0.00  0.00    +0.018 C 
ATOM     16  C   UNL     1      -1.295   2.918  -3.438  0.00  0.00    +0.018 C 
ATOM     17  C   UNL     1      -0.792   3.186  -1.998  0.00  0.00    +0.109 C 
ENDBRANCH  10  13
ENDBRANCH   5  10
BRANCH   1  18
ATOM     18  C   UNL     1      -3.326   3.904   5.686  0.00  0.00    +0.123 C 
BRANCH  18  20
ATOM     19  C   UNL     1      -2.484   4.941   7.797  0.00  0.00    +0.005 C 
ATOM     20  C   UNL     1      -2.341   3.751   6.846  0.00  0.00    +0.018 C 
ENDBRANCH  18  20
ENDBRANCH   1  18
BRANCH   9  21
ATOM     21  C   UNL     1      -4.904   1.252   5.888  0.00  0.00    +0.083 C 
BRANCH  21  22
ATOM     22  C   UNL     1      -4.220   0.588   7.085  0.00  0.00    +0.103 C 
BRANCH  22  23
ATOM     23  C   UNL     1      -5.253   0.250   8.130  0.00  0.00    +0.214 C 
ATOM     24  O   UNL     1      -6.421   0.514   7.935  0.00  0.00    -0.276 OA
ATOM     25  N   UNL     1      -4.879  -0.346   9.279  0.00  0.00    -0.311 N 
ATOM     26  H   UNL     1      -3.945  -0.557   9.434  0.00  0.00    +0.149 HD
BRANCH  25  27
ATOM     27  C   UNL     1      -5.883  -0.674  10.294  0.00  0.00    +0.145 C 
BRANCH  27  28
ATOM     28  C   UNL     1      -5.210  -1.329  11.473  0.00  0.00    +0.037 A 
ATOM     29  C   UNL     1      -4.832  -0.584  12.552  0.00  0.00    -0.039 A 
ATOM     30  C   UNL     1      -4.211  -1.216  13.638  0.00  0.00    +0.024 A 
ATOM     31  C   UNL     1      -3.985  -2.550  13.604  0.00  0.00    +0.016 A 
ATOM     32  N   UNL     1      -4.357  -3.289  12.527  0.00  0.00    -0.326 N 
ATOM     33  H   UNL     1      -4.188  -4.244  12.520  0.00  0.00    +0.169 HD
ATOM     34  C   UNL     1      -4.960  -2.712  11.471  0.00  0.00    +0.254 A 
ATOM     35  O   UNL     1      -5.289  -3.389  10.510  0.00  0.00    -0.268 OA
ATOM     36  C   UNL     1      -3.313  -3.222  14.773  0.00  0.00    +0.063 C 
ATOM     37  C   UNL     1      -5.084   0.902  12.577  0.00  0.00    +0.044 C 
ENDBRANCH  27  28
ENDBRANCH  25  27
ENDBRANCH  22  23
ENDBRANCH  21  22
ENDBRANCH   9  21
TORSDOF 9
