REMARK  Name = ZINC02664069
REMARK  11 active torsions:
REMARK  status: ('A' for Active; 'I' for Inactive)
REMARK    1  A    between atoms: C_7  and  C_11
REMARK    2  A    between atoms: C_11  and  C_13
REMARK    3  A    between atoms: C_11  and  C_30
REMARK    4  A    between atoms: C_13  and  N_60
REMARK    5  A    between atoms: C_14  and  C_15
REMARK    6  A    between atoms: C_14  and  N_60
REMARK    7  A    between atoms: C_15  and  C_17
REMARK    8  A    between atoms: C_15  and  O_29
REMARK    9  A    between atoms: C_17  and  O_18
REMARK   10  A    between atoms: O_18  and  C_19
REMARK   11  A    between atoms: C_19  and  C_20
REMARK                            x       y       z     vdW  Elec       q    Type
REMARK                         _______ _______ _______ _____ _____    ______ ____
ROOT
ATOM      1  C   UNL     1       2.520   4.223  -1.249  0.00  0.00    -0.070 C 
ENDROOT
BRANCH   1   2
ATOM      2  N   UNL     1       3.329   5.455  -1.305  0.00  0.00    +0.381 N 
ATOM      3  H   UNL     1       3.925   5.507  -0.470  0.00  0.00    -0.086 HD
ATOM      4  H   UNL     1       2.705   6.270  -1.331  0.00  0.00    -0.086 HD
BRANCH   2   5
ATOM      5  C   UNL     1       4.180   5.455  -2.510  0.00  0.00    -0.049 C 
BRANCH   5   6
ATOM      6  C   UNL     1       5.007   6.741  -2.540  0.00  0.00    +0.123 C 
BRANCH   6   7
ATOM      7  O   UNL     1       5.912   6.753  -1.435  0.00  0.00    -0.391 OA
ATOM      8  H   UNL     1       6.535   6.013  -1.429  0.00  0.00    +0.210 HD
ENDBRANCH   6   7
BRANCH   6   9
ATOM      9  C   UNL     1       5.799   6.808  -3.848  0.00  0.00    +0.189 C 
BRANCH   9  10
ATOM     10  O   UNL     1       6.480   8.062  -3.929  0.00  0.00    -0.373 OA
BRANCH  10  11
ATOM     11  C   UNL     1       7.253   8.227  -5.119  0.00  0.00    +0.195 C 
BRANCH  11  12
ATOM     12  C   UNL     1       7.924   9.576  -5.099  0.00  0.00    -0.018 A 
ATOM     13  C   UNL     1       7.284  10.673  -5.646  0.00  0.00    +0.010 A 
ATOM     14  C   UNL     1       7.892  11.914  -5.625  0.00  0.00    +0.050 A 
ATOM     15  C   UNL     1       9.152  12.059  -5.066  0.00  0.00    +0.166 A 
ATOM     16  C   UNL     1       9.799  10.953  -4.520  0.00  0.00    +0.167 A 
ATOM     17  C   UNL     1       9.180   9.714  -4.540  0.00  0.00    +0.055 A 
ATOM     18  O   UNL     1      11.012  11.352  -4.039  0.00  0.00    -0.453 OA
ATOM     19  C   UNL     1      11.273  12.625  -4.659  0.00  0.00    +0.466 C 
ATOM     20  O   UNL     1       9.960  13.150  -4.926  0.00  0.00    -0.453 OA
ENDBRANCH  11  12
ENDBRANCH  10  11
ENDBRANCH   9  10
ENDBRANCH   6   9
ENDBRANCH   5   6
ENDBRANCH   2   5
ENDBRANCH   1   2
BRANCH   1  21
ATOM     21  C   UNL     1       1.649   4.252   0.009  0.00  0.00    +0.035 C 
BRANCH  21  28
ATOM     22  C   UNL     1      -3.016   3.796   0.051  0.00  0.00    +0.001 A 
ATOM     23  C   UNL     1      -3.430   2.471   0.048  0.00  0.00    +0.002 A 
ATOM     24  C   UNL     1      -2.508   1.447   0.033  0.00  0.00    +0.026 A 
ATOM     25  C   UNL     1      -1.149   1.741   0.016  0.00  0.00    +0.047 A 
ATOM     26  C   UNL     1      -0.734   3.086   0.026  0.00  0.00    +0.003 A 
ATOM     27  C   UNL     1      -1.686   4.108   0.040  0.00  0.00    +0.010 A 
ATOM     28  C   UNL     1       0.730   3.058   0.011  0.00  0.00    -0.017 A 
ATOM     29  C   UNL     1       1.098   1.767   0.001  0.00  0.00    +0.087 A 
ATOM     30  N   UNL     1      -0.011   0.966   0.007  0.00  0.00    -0.360 N 
ATOM     31  H   UNL     1       0.002  -0.004   0.002  0.00  0.00    +0.165 HD
ENDBRANCH  21  28
BRANCH  21  32
ATOM     32  C   UNL     1       2.531   4.210   1.231  0.00  0.00    -0.023 A 
ATOM     33  C   UNL     1       3.374   3.134   1.438  0.00  0.00    +0.005 A 
ATOM     34  C   UNL     1       4.186   3.098   2.556  0.00  0.00    +0.000 A 
ATOM     35  C   UNL     1       4.148   4.132   3.473  0.00  0.00    +0.001 A 
ATOM     36  C   UNL     1       3.302   5.205   3.269  0.00  0.00    +0.020 A 
ATOM     37  C   UNL     1       2.492   5.245   2.148  0.00  0.00    +0.045 A 
ATOM     38 CL   UNL     1       1.429   6.593   1.892  0.00  0.00    -0.083 Cl
ENDBRANCH  21  32
ENDBRANCH   1  21
TORSDOF 11
