REMARK  Name = ZINC19758237
REMARK  8 active torsions:
REMARK  status: ('A' for Active; 'I' for Inactive)
REMARK    1  A    between atoms: C_1  and  C_2
REMARK    2  A    between atoms: N_5  and  C_14
REMARK    3  A    between atoms: C_8  and  N_13
REMARK    4  A    between atoms: C_14  and  C_15
REMARK    5  A    between atoms: N_17  and  C_18
REMARK    6  A    between atoms: C_18  and  C_19
REMARK    7  A    between atoms: C_19  and  C_20
REMARK    8  A    between atoms: C_19  and  C_21
REMARK                            x       y       z     vdW  Elec       q    Type
REMARK                         _______ _______ _______ _____ _____    ______ ____
ROOT
ATOM      1  C   UNL     1       0.134   1.540  -0.057  0.00  0.00    +0.053 C 
ATOM      2  C   UNL     1       0.083   0.011  -0.032  0.00  0.00    +0.188 C 
ATOM      3  C   UNL     1       0.820  -0.512   1.209  0.00  0.00    +0.150 C 
ATOM      4  N   UNL     1       0.696  -1.974   1.245  0.00  0.00    -0.315 N 
ATOM      5  C   UNL     1       1.046  -2.563   0.026  0.00  0.00    +0.074 A 
ATOM      6  C   UNL     1       1.385  -3.912   0.013  0.00  0.00    +0.049 A 
ATOM      7  C   UNL     1       1.734  -4.532  -1.177  0.00  0.00    +0.027 A 
ATOM      8  C   UNL     1       1.744  -3.805  -2.361  0.00  0.00    +0.026 A 
ATOM      9  C   UNL     1       1.409  -2.465  -2.350  0.00  0.00    +0.049 A 
ATOM     10  C   UNL     1       1.061  -1.840  -1.161  0.00  0.00    +0.142 A 
ATOM     11  O   UNL     1       0.742  -0.515  -1.188  0.00  0.00    -0.486 OA
ENDROOT
BRANCH   7  12
ATOM     12  N   UNL     1       2.075  -5.889  -1.186  0.00  0.00    -0.358 N 
ATOM     13  H   UNL     1       2.351  -6.380  -2.130  0.00  0.00    +0.142 HD
ATOM     14  H   UNL     1       2.066  -6.464  -0.248  0.00  0.00    +0.142 HD
ENDBRANCH   7  12
BRANCH   4  15
ATOM     15  C   UNL     1       1.481  -2.542   2.349  0.00  0.00    +0.201 C 
BRANCH  15  16
ATOM     16  C   UNL     1       0.867  -2.136   3.663  0.00  0.00    +0.230 C 
ATOM     17  O   UNL     1      -0.183  -1.529   3.680  0.00  0.00    -0.274 OA
ATOM     18  N   UNL     1       1.484  -2.447   4.820  0.00  0.00    -0.314 N 
ATOM     19  H   UNL     1       2.436  -2.998   4.805  0.00  0.00    +0.149 HD
BRANCH  18  20
ATOM     20  C   UNL     1       0.887  -2.053   6.098  0.00  0.00    +0.107 C 
BRANCH  20  21
ATOM     21  C   UNL     1       1.781  -2.525   7.247  0.00  0.00    -0.000 C 
ATOM     22  C   UNL     1       3.122  -1.792   7.183  0.00  0.00    +0.009 C 
ATOM     23  C   UNL     1       1.098  -2.223   8.582  0.00  0.00    +0.009 C 
ENDBRANCH  20  21
ENDBRANCH  18  20
ENDBRANCH  15  16
ENDBRANCH   4  15
TORSDOF 5
