REMARK  Name = ZINC03302259
REMARK  9 active torsions:
REMARK  status: ('A' for Active; 'I' for Inactive)
REMARK    1  A    between atoms: C_3  and  O_22
REMARK    2  A    between atoms: C_6  and  C_7
REMARK    3  A    between atoms: C_7  and  O_9
REMARK    4  A    between atoms: O_9  and  C_10
REMARK    5  A    between atoms: C_10  and  C_11
REMARK    6  A    between atoms: N_13  and  C_14
REMARK    7  A    between atoms: C_15  and  C_19
REMARK    8  A    between atoms: O_22  and  C_23
REMARK    9  A    between atoms: C_28  and  N_29
REMARK                            x       y       z     vdW  Elec       q    Type
REMARK                         _______ _______ _______ _____ _____    ______ ____
ROOT
ATOM      1  C   UNL     1      -0.062   1.128  -0.037  0.00  0.00    +0.340 C 
ATOM      2  O   UNL     1      -0.066  -0.085  -0.107  0.00  0.00    -0.245 OA
ENDROOT
BRANCH   1   8
ATOM      3  C   UNL     1      -1.334   3.265   0.072  0.00  0.00    +0.018 A 
ATOM      4  C   UNL     1      -2.526   3.954   0.086  0.00  0.00    +0.047 A 
ATOM      5  C   UNL     1      -3.731   3.263   0.026  0.00  0.00    +0.129 A 
ATOM      6  C   UNL     1      -3.738   1.875  -0.054  0.00  0.00    +0.047 A 
ATOM      7  C   UNL     1      -2.550   1.179  -0.075  0.00  0.00    +0.018 A 
ATOM      8  C   UNL     1      -1.337   1.870  -0.015  0.00  0.00    +0.059 A 
BRANCH   5   9
ATOM      9  O   UNL     1      -4.904   3.946   0.047  0.00  0.00    -0.454 OA
BRANCH   9  10
ATOM     10  C   UNL     1      -5.703   3.809   1.137  0.00  0.00    +0.159 A 
ATOM     11  C   UNL     1      -5.256   3.096   2.241  0.00  0.00    +0.050 A 
ATOM     12  C   UNL     1      -6.070   2.958   3.348  0.00  0.00    +0.024 A 
ATOM     13  C   UNL     1      -7.330   3.531   3.358  0.00  0.00    +0.043 A 
ATOM     14  C   UNL     1      -7.777   4.243   2.259  0.00  0.00    +0.056 A 
ATOM     15  C   UNL     1      -6.964   4.387   1.151  0.00  0.00    +0.170 A 
ATOM     16 CL   UNL     1      -8.350   3.357   4.752  0.00  0.00    -0.083 Cl
BRANCH  15  17
ATOM     17  N   UNL     1      -7.441   5.153  -0.022  0.00  0.00    +0.060 N 
ATOM     18  O   UNL     1      -8.548   5.660  -0.010  0.00  0.00    -0.126 OA
ATOM     19  O   UNL     1      -6.726   5.276  -1.001  0.00  0.00    -0.126 OA
ENDBRANCH  15  17
ENDBRANCH   9  10
ENDBRANCH   5   9
ENDBRANCH   1   8
BRANCH   1  20
ATOM     20  O   UNL     1       1.107   1.796   0.016  0.00  0.00    -0.452 OA
BRANCH  20  21
ATOM     21  C   UNL     1       2.322   1.002  -0.016  0.00  0.00    +0.328 C 
BRANCH  21  22
ATOM     22  C   UNL     1       3.520   1.913   0.051  0.00  0.00    +0.255 C 
ATOM     23  O   UNL     1       3.365   3.114   0.119  0.00  0.00    -0.272 OA
ATOM     24  N   UNL     1       4.764   1.394   0.036  0.00  0.00    -0.277 N 
ATOM     25  H   UNL     1       4.888   0.434  -0.018  0.00  0.00    +0.155 HD
BRANCH  24  26
ATOM     26  C   UNL     1       5.866   2.233   0.098  0.00  0.00    +0.084 A 
ATOM     27  C   UNL     1       7.213   1.890   0.099  0.00  0.00    +0.065 A 
ATOM     28  C   UNL     1       8.160   2.977   0.169  0.00  0.00    +0.022 A 
ATOM     29  C   UNL     1       7.659   4.224   0.235  0.00  0.00    +0.048 A 
ATOM     30  S   UNL     1       5.899   3.961   0.199  0.00  0.00    -0.081 S 
BRANCH  27  31
ATOM     31  C   UNL     1       7.651   0.492   0.030  0.00  0.00    +0.244 C 
ATOM     32  O   UNL     1       6.827  -0.401  -0.030  0.00  0.00    -0.270 OA
ATOM     33  N   UNL     1       8.966   0.197   0.034  0.00  0.00    -0.325 N 
ATOM     34  H   UNL     1       9.623   0.909   0.083  0.00  0.00    +0.145 HD
ATOM     35  H   UNL     1       9.255  -0.728  -0.011  0.00  0.00    +0.145 HD
ENDBRANCH  27  31
ENDBRANCH  24  26
ENDBRANCH  21  22
ENDBRANCH  20  21
ENDBRANCH   1  20
TORSDOF 9
