REMARK  Name = ZINC36065889
REMARK  11 active torsions:
REMARK  status: ('A' for Active; 'I' for Inactive)
REMARK    1  A    between atoms: C_1  and  C_2
REMARK    2  A    between atoms: C_2  and  N_3
REMARK    3  A    between atoms: C_4  and  C_6
REMARK    4  A    between atoms: C_9  and  C_11
REMARK    5  A    between atoms: C_11  and  N_12
REMARK    6  A    between atoms: N_12  and  C_13
REMARK    7  A    between atoms: N_12  and  C_23
REMARK    8  A    between atoms: C_13  and  C_14
REMARK    9  A    between atoms: C_23  and  C_24
REMARK   10  A    between atoms: C_26  and  C_31
REMARK   11  A    between atoms: C_29  and  C_30
REMARK                            x       y       z     vdW  Elec       q    Type
REMARK                         _______ _______ _______ _____ _____    ______ ____
ROOT
ATOM      1  N   UNL     1      -7.513  -2.304  -3.222  0.00  0.00    +0.391 N 
ATOM      2  H   UNL     1      -6.985  -2.383  -4.079  0.00  0.00    -0.080 HD
ENDROOT
BRANCH   1   3
ATOM      3  C   UNL     1      -7.150  -1.057  -2.536  0.00  0.00    +0.020 C 
BRANCH   3   7
ATOM      4  C   UNL     1      -3.565  -0.554  -2.662  0.00  0.00    +0.163 A 
ATOM      5  C   UNL     1      -3.667  -1.305  -1.532  0.00  0.00    +0.230 A 
ATOM      6  O   UNL     1      -4.971  -1.573  -1.357  0.00  0.00    -0.449 OA
ATOM      7  C   UNL     1      -5.655  -0.999  -2.356  0.00  0.00    +0.179 A 
ATOM      8  N   UNL     1      -4.826  -0.381  -3.143  0.00  0.00    -0.210 NA
BRANCH   4  10
ATOM      9  N   UNL     1      -2.373   0.717  -4.377  0.00  0.00    -0.310 N 
ATOM     10  C   UNL     1      -2.322  -0.022  -3.251  0.00  0.00    +0.266 C 
ATOM     11  O   UNL     1      -1.252  -0.250  -2.721  0.00  0.00    -0.268 OA
ATOM     12  H   UNL     1      -3.226   0.898  -4.800  0.00  0.00    +0.149 HD
BRANCH   9  14
ATOM     13  C   UNL     1      -1.472   2.041  -6.225  0.00  0.00    +0.024 C 
ATOM     14  C   UNL     1      -1.138   1.245  -4.963  0.00  0.00    +0.101 C 
ENDBRANCH   9  14
ENDBRANCH   4  10
ENDBRANCH   3   7
ENDBRANCH   1   3
BRANCH   1  15
ATOM     15  C   UNL     1      -8.949  -2.294  -3.530  0.00  0.00    -0.042 C 
BRANCH  15  16
ATOM     16  C   UNL     1      -9.309  -3.546  -4.288  0.00  0.00    -0.060 A 
ATOM     17  C   UNL     1      -9.168  -3.584  -5.663  0.00  0.00    +0.005 A 
ATOM     18  C   UNL     1      -9.496  -4.731  -6.363  0.00  0.00    +0.050 A 
ATOM     19  C   UNL     1      -9.968  -5.844  -5.687  0.00  0.00    +0.166 A 
ATOM     20  C   UNL     1     -10.111  -5.805  -4.302  0.00  0.00    +0.166 A 
ATOM     21  C   UNL     1      -9.774  -4.655  -3.607  0.00  0.00    +0.051 A 
ATOM     22  O   UNL     1     -10.588  -7.012  -3.878  0.00  0.00    -0.453 OA
ATOM     23  C   UNL     1     -11.121  -7.649  -5.054  0.00  0.00    +0.466 C 
ATOM     24  O   UNL     1     -10.356  -7.075  -6.131  0.00  0.00    -0.453 OA
ENDBRANCH  15  16
ENDBRANCH   1  15
BRANCH   1  25
ATOM     25  C   UNL     1      -7.207  -3.448  -2.352  0.00  0.00    -0.042 C 
BRANCH  25  26
ATOM     26  C   UNL     1      -5.719  -3.687  -2.341  0.00  0.00    -0.061 A 
ATOM     27  C   UNL     1      -4.973  -3.452  -3.481  0.00  0.00    +0.005 A 
ATOM     28  C   UNL     1      -3.608  -3.671  -3.470  0.00  0.00    -0.050 A 
ATOM     29  C   UNL     1      -2.989  -4.125  -2.320  0.00  0.00    +0.003 A 
ATOM     30  C   UNL     1      -3.735  -4.358  -1.181  0.00  0.00    +0.004 A 
ATOM     31  C   UNL     1      -5.099  -4.135  -1.189  0.00  0.00    -0.049 A 
ATOM     32  C   UNL     1      -5.912  -4.385   0.055  0.00  0.00    +0.044 C 
ATOM     33  C   UNL     1      -2.795  -3.416  -4.713  0.00  0.00    +0.044 C 
ENDBRANCH  25  26
ENDBRANCH   1  25
TORSDOF 8
