REMARK  Name = ZINC20347472
REMARK  13 active torsions:
REMARK  status: ('A' for Active; 'I' for Inactive)
REMARK    1  A    between atoms: C_1  and  C_2
REMARK    2  A    between atoms: C_2  and  O_3
REMARK    3  A    between atoms: O_3  and  C_4
REMARK    4  A    between atoms: C_4  and  C_6
REMARK    5  A    between atoms: C_9  and  N_12
REMARK    6  A    between atoms: C_13  and  C_15
REMARK    7  A    between atoms: C_15  and  S_16
REMARK    8  A    between atoms: S_16  and  C_17
REMARK    9  A    between atoms: C_18  and  C_35
REMARK   10  A    between atoms: C_19  and  C_28
REMARK   11  A    between atoms: C_21  and  C_25
REMARK   12  A    between atoms: C_22  and  C_24
REMARK   13  A    between atoms: C_25  and  C_27
REMARK                            x       y       z     vdW  Elec       q    Type
REMARK                         _______ _______ _______ _____ _____    ______ ____
ROOT
ATOM      1  C   UNL     1       1.002  -0.723  -0.683  0.00  0.00    +0.080 C 
ATOM      2  C   UNL     1      -0.161  -0.044  -0.494  0.00  0.00    +0.069 C 
ATOM      3  C   UNL     1      -0.189   1.458  -0.446  0.00  0.00    +0.096 C 
ATOM      4  C   UNL     1       1.192   2.010  -0.236  0.00  0.00    +0.024 C 
ATOM      5  C   UNL     1       2.294   1.257  -0.433  0.00  0.00    +0.013 C 
ATOM      6  N   UNL     1       2.192  -0.045  -0.826  0.00  0.00    -0.312 N 
ATOM      7  C   UNL     1       3.656   1.863  -0.216  0.00  0.00    +0.061 C 
ATOM      8  H   UNL     1       3.066  -0.554  -1.260  0.00  0.00    +0.152 HD
ENDROOT
BRANCH   3   9
ATOM      9  C   UNL     1      -0.742   1.985  -1.745  0.00  0.00    -0.035 A 
ATOM     10  C   UNL     1      -0.099   1.702  -2.935  0.00  0.00    +0.006 A 
ATOM     11  C   UNL     1      -0.609   2.181  -4.127  0.00  0.00    +0.020 A 
ATOM     12  C   UNL     1      -1.757   2.953  -4.128  0.00  0.00    +0.041 A 
ATOM     13  C   UNL     1      -2.397   3.241  -2.935  0.00  0.00    +0.020 A 
ATOM     14  C   UNL     1      -1.889   2.757  -1.744  0.00  0.00    +0.006 A 
ATOM     15 CL   UNL     1      -2.395   3.561  -5.624  0.00  0.00    -0.084 Cl
ENDBRANCH   3   9
BRANCH   4  16
ATOM     16  C   UNL     1       1.339   3.344   0.175  0.00  0.00    +0.159 C 
ATOM     17  O   UNL     1       2.449   3.807   0.350  0.00  0.00    -0.293 OA
ATOM     18  C   UNL     1       0.121   4.202   0.401  0.00  0.00    +0.091 C 
ENDBRANCH   4  16
BRANCH   2  19
ATOM     19  C   UNL     1      -1.383  -0.774  -0.339  0.00  0.00    +0.098 C 
ATOM     20  N   UNL     1      -2.352  -1.353  -0.216  0.00  0.00    -0.191 NA
ENDBRANCH   2  19
BRANCH   1  21
ATOM     21  S   UNL     1       0.986  -2.483  -0.743  0.00  0.00    -0.100 S 
BRANCH  21  22
ATOM     22  C   UNL     1       2.748  -2.805  -1.003  0.00  0.00    +0.171 C 
BRANCH  22  24
ATOM     23  N   UNL     1       4.225  -4.769  -1.282  0.00  0.00    -0.285 N 
ATOM     24  C   UNL     1       2.980  -4.292  -1.089  0.00  0.00    +0.227 C 
ATOM     25  O   UNL     1       2.046  -5.058  -0.984  0.00  0.00    -0.275 OA
ATOM     26  H   UNL     1       5.059  -4.075  -1.463  0.00  0.00    +0.155 HD
BRANCH  23  30
ATOM     27  C   UNL     1       4.918  -8.876  -1.189  0.00  0.00    +0.059 A 
ATOM     28  C   UNL     1       5.667  -8.058  -2.041  0.00  0.00    +0.017 A 
ATOM     29  C   UNL     1       5.435  -6.701  -2.069  0.00  0.00    +0.024 A 
ATOM     30  C   UNL     1       4.457  -6.144  -1.251  0.00  0.00    +0.033 A 
ATOM     31  C   UNL     1       3.713  -6.954  -0.399  0.00  0.00    +0.024 A 
ATOM     32  C   UNL     1       3.936  -8.312  -0.369  0.00  0.00    +0.017 A 
BRANCH  27  33
ATOM     33  C   UNL     1       5.164 -10.329  -1.157  0.00  0.00    +0.339 C 
ATOM     34  O   UNL     1       6.017 -10.818  -1.871  0.00  0.00    -0.245 OA
BRANCH  33  35
ATOM     35  O   UNL     1       4.441 -11.116  -0.336  0.00  0.00    -0.461 OA
BRANCH  35  37
ATOM     36  C   UNL     1       3.823 -13.263   0.633  0.00  0.00    +0.048 C 
ATOM     37  C   UNL     1       4.737 -12.538  -0.356  0.00  0.00    +0.229 C 
ENDBRANCH  35  37
ENDBRANCH  33  35
ENDBRANCH  27  33
ENDBRANCH  23  30
ENDBRANCH  22  24
ENDBRANCH  21  22
ENDBRANCH   1  21
TORSDOF 10
