REMARK  Name = ZINC39324362
REMARK  4 active torsions:
REMARK  status: ('A' for Active; 'I' for Inactive)
REMARK    1  A    between atoms: C_3  and  C_8
REMARK    2  A    between atoms: C_16  and  N_29
REMARK    3  A    between atoms: C_17  and  C_27
REMARK    4  A    between atoms: C_18  and  C_20
REMARK                            x       y       z     vdW  Elec       q    Type
REMARK                         _______ _______ _______ _____ _____    ______ ____
ROOT
ATOM      1  C   UNL     1       3.654   2.159  -0.022  0.00  0.00    +0.015 C 
ATOM      2  C   UNL     1       4.824   1.503   0.065  0.00  0.00    -0.004 C 
ATOM      3  C   UNL     1       4.870  -0.009   0.053  0.00  0.00    +0.039 C 
ATOM      4  C   UNL     1       5.903  -0.433   1.108  0.00  0.00    +0.009 C 
ATOM      5  C   UNL     1       7.270   0.111   0.703  0.00  0.00    +0.036 C 
ATOM      6  C   UNL     1       7.229   1.600   0.475  0.00  0.00    -0.014 C 
ATOM      7  C   UNL     1       6.100   2.240   0.169  0.00  0.00    +0.133 C 
ATOM      8  O   UNL     1       6.076   3.580  -0.052  0.00  0.00    -0.441 OA
ATOM      9  C   UNL     1       7.055   4.360   0.437  0.00  0.00    +0.199 C 
ATOM     10  C   UNL     1       8.262   3.833   0.764  0.00  0.00    +0.098 C 
ATOM     11  C   UNL     1       8.527   2.365   0.597  0.00  0.00    +0.094 C 
ENDROOT
BRANCH   1  14
ATOM     12  C   UNL     1       1.272  -0.417  -1.352  0.00  0.00    +0.002 A 
ATOM     13  C   UNL     1       2.439   0.274  -1.101  0.00  0.00    +0.008 A 
ATOM     14  C   UNL     1       2.411   1.415  -0.294  0.00  0.00    -0.023 A 
ATOM     15  C   UNL     1       1.200   1.846   0.254  0.00  0.00    +0.028 A 
ATOM     16  C   UNL     1       0.041   1.144  -0.006  0.00  0.00    +0.042 A 
ATOM     17  C   UNL     1       0.076   0.015  -0.807  0.00  0.00    +0.020 A 
ATOM     18 CL   UNL     1      -1.465   1.677   0.673  0.00  0.00    -0.084 Cl
ENDBRANCH   1  14
BRANCH  11  19
ATOM     19  C   UNL     1       9.343   2.162  -0.655  0.00  0.00    -0.035 A 
ATOM     20  C   UNL     1       8.838   2.557  -1.879  0.00  0.00    +0.006 A 
ATOM     21  C   UNL     1       9.586   2.372  -3.027  0.00  0.00    +0.020 A 
ATOM     22  C   UNL     1      10.839   1.791  -2.950  0.00  0.00    +0.041 A 
ATOM     23  C   UNL     1      11.344   1.396  -1.724  0.00  0.00    +0.020 A 
ATOM     24  C   UNL     1      10.598   1.587  -0.576  0.00  0.00    +0.006 A 
ATOM     25 CL   UNL     1      11.778   1.558  -4.391  0.00  0.00    -0.084 Cl
ENDBRANCH  11  19
BRANCH   9  26
ATOM     26  N   UNL     1       6.832   5.703   0.608  0.00  0.00    -0.328 N 
ATOM     27  H   UNL     1       5.971   6.085   0.376  0.00  0.00    +0.145 HD
ATOM     28  H   UNL     1       7.535   6.271   0.960  0.00  0.00    +0.145 HD
ENDBRANCH   9  26
BRANCH  10  29
ATOM     29  C   UNL     1       9.290   4.683   1.284  0.00  0.00    +0.101 C 
ATOM     30  N   UNL     1      10.106   5.357   1.697  0.00  0.00    -0.191 NA
ENDBRANCH  10  29
TORSDOF 4
