REMARK  Name = ZINC02387297
REMARK  5 active torsions:
REMARK  status: ('A' for Active; 'I' for Inactive)
REMARK    1  A    between atoms: C_1  and  C_2
REMARK    2  A    between atoms: C_2  and  C_3
REMARK    3  A    between atoms: C_2  and  C_4
REMARK    4  A    between atoms: C_2  and  S_5
REMARK    5  A    between atoms: S_5  and  N_7
REMARK                            x       y       z     vdW  Elec       q    Type
REMARK                         _______ _______ _______ _____ _____    ______ ____
ROOT
ATOM      1  S   UNL     1      -0.017   1.417   0.010  0.00  0.00    +0.096 S 
ATOM      2  O   UNL     1       0.002  -0.004   0.002  0.00  0.00    -0.241 OA
ENDROOT
BRANCH   1   4
ATOM      3  C   UNL     1       1.668   3.558  -0.229  0.00  0.00    +0.026 C 
ATOM      4  C   UNL     1       1.685   2.045  -0.003  0.00  0.00    +0.052 C 
ATOM      5  C   UNL     1       2.352   1.737   1.339  0.00  0.00    +0.026 C 
ATOM      6  C   UNL     1       2.469   1.369  -1.130  0.00  0.00    +0.026 C 
ENDBRANCH   1   4
BRANCH   1   7
ATOM      7  N   UNL     1      -0.604   1.818  -1.486  0.00  0.00    -0.251 NA
ATOM      8  H   UNL     1      -1.044   2.671  -1.621  0.00  0.00    +0.134 HD
ATOM      9  H   UNL     1      -0.506   1.199  -2.227  0.00  0.00    +0.134 HD
ENDBRANCH   1   7
TORSDOF 2
