REMARK  Name = ZINC36580441
REMARK  14 active torsions:
REMARK  status: ('A' for Active; 'I' for Inactive)
REMARK    1  A    between atoms: C_1  and  C_2
REMARK    2  A    between atoms: C_5  and  S_8
REMARK    3  A    between atoms: S_8  and  C_11
REMARK    4  A    between atoms: C_11  and  N_12
REMARK    5  A    between atoms: C_13  and  C_15
REMARK    6  A    between atoms: C_15  and  C_17
REMARK    7  A    between atoms: C_15  and  N_25
REMARK    8  A    between atoms: C_20  and  O_23
REMARK    9  A    between atoms: O_23  and  C_24
REMARK   10  A    between atoms: N_25  and  C_34
REMARK   11  A    between atoms: C_26  and  C_28
REMARK   12  A    between atoms: C_34  and  C_35
REMARK   13  A    between atoms: C_34  and  C_36
REMARK   14  A    between atoms: C_34  and  C_37
REMARK                            x       y       z     vdW  Elec       q    Type
REMARK                         _______ _______ _______ _____ _____    ______ ____
ROOT
ATOM      1  C   UNL     1       1.994  -5.170   4.045  0.00  0.00    +0.193 C 
ENDROOT
BRANCH   1   2
ATOM      2  C   UNL     1       1.342  -4.346   5.125  0.00  0.00    -0.018 A 
ATOM      3  C   UNL     1       0.957  -4.943   6.311  0.00  0.00    +0.009 A 
ATOM      4  C   UNL     1       0.358  -4.190   7.303  0.00  0.00    +0.046 A 
ATOM      5  C   UNL     1       0.145  -2.833   7.108  0.00  0.00    +0.120 A 
ATOM      6  C   UNL     1       0.534  -2.236   5.917  0.00  0.00    +0.046 A 
ATOM      7  C   UNL     1       1.136  -2.993   4.931  0.00  0.00    +0.009 A 
BRANCH   5   8
ATOM      8  O   UNL     1      -0.444  -2.090   8.082  0.00  0.00    -0.495 OA
ATOM      9  C   UNL     1      -0.631  -0.699   7.812  0.00  0.00    +0.277 C 
ENDBRANCH   5   8
ENDBRANCH   1   2
BRANCH   1  11
ATOM     10  N   UNL     1       0.101  -4.810   2.495  0.00  0.00    -0.294 N 
ATOM     11  C   UNL     1       0.940  -5.677   3.095  0.00  0.00    +0.239 C 
ATOM     12  O   UNL     1       0.847  -6.865   2.870  0.00  0.00    -0.273 OA
ATOM     13  H   UNL     1       0.175  -3.860   2.674  0.00  0.00    +0.150 HD
BRANCH  10  14
ATOM     14  C   UNL     1      -0.924  -5.303   1.571  0.00  0.00    +0.278 C 
BRANCH  14  15
ATOM     15  S   UNL     1      -2.486  -5.526   2.465  0.00  0.00    +0.013 S 
ATOM     16  O   UNL     1      -2.259  -6.226   3.681  0.00  0.00    -0.168 OA
ATOM     17  O   UNL     1      -3.507  -5.944   1.569  0.00  0.00    -0.168 OA
BRANCH  15  22
ATOM     18  C   UNL     1      -4.111   0.030   4.166  0.00  0.00    +0.044 C 
ATOM     19  C   UNL     1      -3.705  -1.358   3.741  0.00  0.00    -0.050 A 
ATOM     20  C   UNL     1      -4.123  -1.857   2.522  0.00  0.00    +0.005 A 
ATOM     21  C   UNL     1      -3.751  -3.130   2.132  0.00  0.00    +0.027 A 
ATOM     22  C   UNL     1      -2.960  -3.903   2.961  0.00  0.00    +0.090 A 
ATOM     23  C   UNL     1      -2.541  -3.404   4.180  0.00  0.00    +0.027 A 
ATOM     24  C   UNL     1      -2.910  -2.129   4.568  0.00  0.00    +0.005 A 
ENDBRANCH  15  22
ENDBRANCH  14  15
ENDBRANCH  10  14
ENDBRANCH   1  11
BRANCH   1  25
ATOM     25  N   UNL     1       2.692  -6.307   4.652  0.00  0.00    -0.281 N 
ATOM     26  C   UNL     1       1.987  -7.339   5.157  0.00  0.00    +0.220 C 
ATOM     27  O   UNL     1       0.776  -7.282   5.200  0.00  0.00    -0.275 OA
BRANCH  26  28
ATOM     28  C   UNL     1       2.703  -8.562   5.667  0.00  0.00    +0.075 C 
ATOM     29  C   UNL     1       3.541  -9.170   4.540  0.00  0.00    +0.013 C 
ATOM     30  C   UNL     1       4.268 -10.413   5.058  0.00  0.00    +0.001 C 
ATOM     31  C   UNL     1       3.242 -11.440   5.541  0.00  0.00    +0.000 C 
ATOM     32  C   UNL     1       2.404 -10.832   6.668  0.00  0.00    +0.001 C 
ATOM     33  C   UNL     1       1.677  -9.589   6.150  0.00  0.00    +0.013 C 
ENDBRANCH  26  28
BRANCH  25  34
ATOM     34  C   UNL     1       4.155  -6.321   4.711  0.00  0.00    +0.030 C 
ATOM     35  C   UNL     1       4.675  -4.888   4.838  0.00  0.00    +0.031 C 
ATOM     36  C   UNL     1       4.609  -7.138   5.923  0.00  0.00    +0.031 C 
ATOM     37  C   UNL     1       4.711  -6.954   3.433  0.00  0.00    +0.031 C 
ENDBRANCH  25  34
ENDBRANCH   1  25
TORSDOF 9
