REMARK  Name = ZINC05024993
REMARK  5 active torsions:
REMARK  status: ('A' for Active; 'I' for Inactive)
REMARK    1  A    between atoms: C_1  and  C_2
REMARK    2  A    between atoms: C_8  and  C_10
REMARK    3  A    between atoms: N_11  and  N_12
REMARK    4  A    between atoms: C_28  and  C_32
REMARK    5  A    between atoms: C_28  and  C_33
REMARK                            x       y       z     vdW  Elec       q    Type
REMARK                         _______ _______ _______ _____ _____    ______ ____
ROOT
ATOM      1  N   UNL     1       0.002  -0.004   0.001  0.00  0.00    -0.184 N 
ATOM      2  C   UNL     1       1.184  -0.676  -0.008  0.00  0.00    +0.227 A 
ATOM      3  N   UNL     1       2.329  -0.055  -0.015  0.00  0.00    -0.233 NA
ATOM      4  C   UNL     1       2.393   1.289  -0.016  0.00  0.00    +0.103 A 
ATOM      5  C   UNL     1       3.500   2.253  -0.023  0.00  0.00    +0.029 A 
ATOM      6  C   UNL     1       4.890   2.122  -0.033  0.00  0.00    +0.050 A 
ATOM      7  C   UNL     1       5.684   3.249  -0.038  0.00  0.00    +0.124 A 
ATOM      8  C   UNL     1       5.105   4.513  -0.034  0.00  0.00    +0.040 A 
ATOM      9  C   UNL     1       3.736   4.657  -0.025  0.00  0.00    +0.029 A 
ATOM     10  C   UNL     1       2.916   3.532  -0.019  0.00  0.00    +0.049 A 
ATOM     11  N   UNL     1       1.545   3.379  -0.010  0.00  0.00    -0.349 N 
ATOM     12  H   UNL     1       0.905   4.107  -0.005  0.00  0.00    +0.166 HD
ATOM     13  C   UNL     1       1.217   2.037  -0.007  0.00  0.00    +0.133 A 
ATOM     14  C   UNL     1      -0.016   1.346   0.001  0.00  0.00    +0.298 A 
ATOM     15  O   UNL     1      -1.073   1.956   0.004  0.00  0.00    -0.263 OA
ATOM     16  F   UNL     1       7.029   3.125  -0.047  0.00  0.00    -0.205 F 
ENDROOT
BRANCH   1  18
ATOM     17  C   UNL     1      -1.194  -1.993  -0.094  0.00  0.00    +0.110 C 
ATOM     18  N   UNL     1      -1.204  -0.717   0.009  0.00  0.00    -0.175 NA
BRANCH  17  25
ATOM     19  C   UNL     1      -2.245  -2.591  -2.691  0.00  0.00    +0.008 C 
ATOM     20  C   UNL     1      -2.534  -3.532  -1.520  0.00  0.00    -0.001 C 
ATOM     21  C   UNL     1      -3.933  -4.119  -1.662  0.00  0.00    +0.034 C 
ATOM     22  C   UNL     1      -4.353  -4.865  -0.412  0.00  0.00    -0.069 C 
ATOM     23  C   UNL     1      -3.766  -4.703   0.735  0.00  0.00    -0.064 C 
ATOM     24  C   UNL     1      -2.596  -3.762   0.934  0.00  0.00    +0.040 C 
ATOM     25  C   UNL     1      -2.493  -2.750  -0.200  0.00  0.00    +0.039 C 
ATOM     26  C   UNL     1      -4.186  -5.449   1.986  0.00  0.00    -0.014 C 
ATOM     27  C   UNL     1      -5.586  -6.032   1.845  0.00  0.00    +0.011 C 
ATOM     28  C   UNL     1      -5.630  -6.815   0.525  0.00  0.00    +0.005 C 
ATOM     29  C   UNL     1      -5.524  -5.805  -0.611  0.00  0.00    +0.031 C 
ATOM     30  C   UNL     1      -3.195  -6.585   2.245  0.00  0.00    +0.015 C 
ATOM     31  C   UNL     1      -4.162  -4.486   3.174  0.00  0.00    +0.015 C 
ENDBRANCH  17  25
ENDBRANCH   1  18
TORSDOF 2
