REMARK  Name = ZINC36222137
REMARK  3 active torsions:
REMARK  status: ('A' for Active; 'I' for Inactive)
REMARK    1  A    between atoms: C_1  and  C_2
REMARK    2  A    between atoms: C_8  and  N_19
REMARK    3  A    between atoms: C_9  and  C_11
REMARK                            x       y       z     vdW  Elec       q    Type
REMARK                         _______ _______ _______ _____ _____    ______ ____
ROOT
ATOM      1  C   UNL     1      -0.563   1.478   0.113  0.00  0.00    +0.064 C 
ATOM      2  C   UNL     1      -0.453  -0.025   0.088  0.00  0.00    +0.024 A 
ATOM      3  C   UNL     1      -0.718  -0.695  -1.051  0.00  0.00    +0.021 A 
ATOM      4  C   UNL     1      -0.619  -2.097  -1.090  0.00  0.00    +0.005 A 
ATOM      5  C   UNL     1      -0.254  -2.780   0.027  0.00  0.00    +0.047 A 
ATOM      6  C   UNL     1       0.022  -2.069   1.214  0.00  0.00    +0.140 A 
ATOM      7  N   UNL     1      -0.078  -0.697   1.220  0.00  0.00    -0.285 N 
ATOM      8  C   UNL     1       0.245  -0.271   2.479  0.00  0.00    +0.129 A 
ATOM      9  C   UNL     1       0.543  -1.397   3.217  0.00  0.00    +0.111 A 
ATOM     10  N   UNL     1       0.390  -2.470   2.420  0.00  0.00    -0.226 NA
ENDROOT
BRANCH   9  11
ATOM     11  C   UNL     1       0.950  -1.422   4.642  0.00  0.00    +0.005 A 
ATOM     12  C   UNL     1       1.734  -0.394   5.163  0.00  0.00    +0.011 A 
ATOM     13  C   UNL     1       2.111  -0.421   6.490  0.00  0.00    +0.022 A 
ATOM     14  C   UNL     1       1.711  -1.467   7.305  0.00  0.00    +0.059 A 
ATOM     15  C   UNL     1       0.932  -2.492   6.792  0.00  0.00    +0.060 A 
ATOM     16  C   UNL     1       0.545  -2.470   5.466  0.00  0.00    +0.031 A 
ATOM     17 CL   UNL     1       0.436  -3.800   7.819  0.00  0.00    -0.082 Cl
ATOM     18 CL   UNL     1       2.188  -1.495   8.973  0.00  0.00    -0.082 Cl
ENDBRANCH   9  11
BRANCH   8  19
ATOM     19  N   UNL     1       0.271   1.049   2.929  0.00  0.00    -0.342 N 
ATOM     20  H   UNL     1       0.127   1.778   2.305  0.00  0.00    +0.144 HD
ATOM     21  H   UNL     1       0.432   1.239   3.867  0.00  0.00    +0.144 HD
ENDBRANCH   8  19
TORSDOF 2
