REMARK  Name = ZINC35757918
REMARK  13 active torsions:
REMARK  status: ('A' for Active; 'I' for Inactive)
REMARK    1  A    between atoms: C_1  and  C_2
REMARK    2  A    between atoms: C_2  and  C_3
REMARK    3  A    between atoms: C_3  and  C_5
REMARK    4  A    between atoms: C_3  and  N_6
REMARK    5  A    between atoms: C_7  and  C_9
REMARK    6  A    between atoms: C_11  and  C_25
REMARK    7  A    between atoms: N_16  and  C_17
REMARK    8  A    between atoms: C_17  and  C_18
REMARK    9  A    between atoms: C_21  and  C_24
REMARK   10  A    between atoms: C_29  and  N_31
REMARK   11  A    between atoms: C_32  and  C_34
REMARK   12  A    between atoms: C_39  and  O_40
REMARK   13  A    between atoms: O_40  and  C_41
REMARK                            x       y       z     vdW  Elec       q    Type
REMARK                         _______ _______ _______ _____ _____    ______ ____
ROOT
ATOM      1  C   UNL     1      -4.426   0.777  -2.693  0.00  0.00    +0.210 C 
ATOM      2  C   UNL     1      -4.151   2.298  -2.607  0.00  0.00    +0.238 C 
ATOM      3  O   UNL     1      -5.217   2.747  -1.748  0.00  0.00    -0.440 OA
ATOM      4  C   UNL     1      -6.242   1.887  -1.872  0.00  0.00    +0.405 C 
ATOM      5  O   UNL     1      -7.383   2.149  -1.547  0.00  0.00    -0.226 OA
ATOM      6  N   UNL     1      -5.870   0.699  -2.398  0.00  0.00    -0.248 N 
ENDROOT
BRANCH   2   7
ATOM      7  C   UNL     1      -2.806   2.567  -1.984  0.00  0.00    -0.003 A 
ATOM      8  C   UNL     1      -2.670   2.568  -0.608  0.00  0.00    +0.007 A 
ATOM      9  C   UNL     1      -1.437   2.815  -0.032  0.00  0.00    +0.002 A 
ATOM     10  C   UNL     1      -0.338   3.062  -0.831  0.00  0.00    +0.023 A 
ATOM     11  C   UNL     1      -0.471   3.062  -2.213  0.00  0.00    +0.034 A 
ATOM     12  C   UNL     1      -1.710   2.808  -2.788  0.00  0.00    +0.030 A 
BRANCH  11  13
ATOM     13  N   UNL     1       0.641   3.312  -3.024  0.00  0.00    -0.281 N 
ATOM     14  C   UNL     1       1.579   4.195  -2.628  0.00  0.00    +0.252 C 
ATOM     15  O   UNL     1       1.504   4.710  -1.529  0.00  0.00    -0.270 OA
ATOM     16  H   UNL     1       0.736   2.850  -3.872  0.00  0.00    +0.155 HD
BRANCH  14  17
ATOM     17  C   UNL     1       2.697   4.536  -3.528  0.00  0.00    +0.079 A 
ATOM     18  C   UNL     1       2.784   3.951  -4.794  0.00  0.00    +0.017 A 
ATOM     19  C   UNL     1       3.830   4.275  -5.630  0.00  0.00    +0.001 A 
ATOM     20  C   UNL     1       4.798   5.178  -5.221  0.00  0.00    +0.004 A 
ATOM     21  C   UNL     1       4.725   5.762  -3.972  0.00  0.00    +0.046 A 
ATOM     22  C   UNL     1       3.675   5.453  -3.120  0.00  0.00    +0.132 A 
BRANCH  22  23
ATOM     23  O   UNL     1       3.598   6.032  -1.896  0.00  0.00    -0.494 OA
ATOM     24  C   UNL     1       4.631   6.957  -1.549  0.00  0.00    +0.277 C 
ENDBRANCH  22  23
ENDBRANCH  14  17
ENDBRANCH  11  13
ENDBRANCH   2   7
BRANCH   1  26
ATOM     25  N   UNL     1      -2.445  -0.529  -1.994  0.00  0.00    -0.311 N 
ATOM     26  C   UNL     1      -3.626   0.029  -1.659  0.00  0.00    +0.238 C 
ATOM     27  O   UNL     1      -4.044  -0.072  -0.525  0.00  0.00    -0.274 OA
ATOM     28  H   UNL     1      -2.144  -0.509  -2.916  0.00  0.00    +0.149 HD
BRANCH  25  29
ATOM     29  C   UNL     1      -1.617  -1.165  -0.966  0.00  0.00    +0.070 C 
ATOM     30  C   UNL     1      -2.154  -2.567  -0.674  0.00  0.00    +0.028 C 
BRANCH  29  32
ATOM     31  C   UNL     1       0.412   0.141  -1.615  0.00  0.00    +0.005 C 
ATOM     32  C   UNL     1      -0.174  -1.264  -1.464  0.00  0.00    +0.018 C 
ENDBRANCH  29  32
ENDBRANCH  25  29
ENDBRANCH   1  26
BRANCH   6  33
ATOM     33  C   UNL     1      -6.739  -0.457  -2.635  0.00  0.00    +0.147 C 
BRANCH  33  34
ATOM     34  C   UNL     1      -6.744  -1.340  -1.413  0.00  0.00    -0.030 A 
ATOM     35  C   UNL     1      -5.811  -2.352  -1.288  0.00  0.00    +0.005 A 
ATOM     36  C   UNL     1      -5.816  -3.161  -0.167  0.00  0.00    +0.003 A 
ATOM     37  C   UNL     1      -6.753  -2.959   0.828  0.00  0.00    -0.050 A 
ATOM     38  C   UNL     1      -7.686  -1.946   0.703  0.00  0.00    +0.003 A 
ATOM     39  C   UNL     1      -7.678  -1.134  -0.416  0.00  0.00    +0.005 A 
ATOM     40  C   UNL     1      -6.759  -3.842   2.049  0.00  0.00    +0.044 C 
ENDBRANCH  33  34
ENDBRANCH   6  33
TORSDOF 9
