REMARK  Name = ZINC33147658
REMARK  7 active torsions:
REMARK  status: ('A' for Active; 'I' for Inactive)
REMARK    1  A    between atoms: C_1  and  C_2
REMARK    2  A    between atoms: C_2  and  C_3
REMARK    3  A    between atoms: C_6  and  C_9
REMARK    4  A    between atoms: C_11  and  C_15
REMARK    5  A    between atoms: N_17  and  N_18
REMARK    6  A    between atoms: C_19  and  C_20
REMARK    7  A    between atoms: C_23  and  O_26
REMARK                            x       y       z     vdW  Elec       q    Type
REMARK                         _______ _______ _______ _____ _____    ______ ____
ROOT
ATOM      1  C   UNL     1      -0.919   1.820  -1.809  0.00  0.00    +0.093 A 
ATOM      2  C   UNL     1       0.096   1.054  -1.207  0.00  0.00    +0.062 A 
ATOM      3  C   UNL     1       1.207   1.875  -1.183  0.00  0.00    +0.122 A 
ATOM      4  N   UNL     1       0.825   3.060  -1.747  0.00  0.00    -0.272 N 
ATOM      5  H   UNL     1       1.548   3.884  -1.841  0.00  0.00    +0.189 HD
ATOM      6  N   UNL     1      -0.410   2.999  -2.095  0.00  0.00    -0.173 NA
ENDROOT
BRANCH   1  10
ATOM      7  C   UNL     1      -4.910   0.557  -2.558  0.00  0.00    -0.048 A 
ATOM      8  C   UNL     1      -4.512   1.832  -2.919  0.00  0.00    +0.004 A 
ATOM      9  C   UNL     1      -3.218   2.247  -2.678  0.00  0.00    +0.010 A 
ATOM     10  C   UNL     1      -2.312   1.379  -2.071  0.00  0.00    +0.002 A 
ATOM     11  C   UNL     1      -2.718   0.095  -1.715  0.00  0.00    +0.010 A 
ATOM     12  C   UNL     1      -4.016  -0.308  -1.955  0.00  0.00    +0.004 A 
BRANCH   7  14
ATOM     13  C   UNL     1      -6.405  -0.533  -4.209  0.00  0.00    +0.009 C 
ATOM     14  C   UNL     1      -6.325   0.110  -2.823  0.00  0.00    +0.032 C 
ENDBRANCH   7  14
ENDBRANCH   1  10
BRANCH   3  15
ATOM     15  C   UNL     1       2.539   1.541  -0.654  0.00  0.00    +0.281 C 
ATOM     16  O   UNL     1       2.744   0.441  -0.175  0.00  0.00    -0.267 OA
ATOM     17  N   UNL     1       3.531   2.452  -0.701  0.00  0.00    -0.202 N 
ATOM     18  H   UNL     1       3.345   3.446  -1.134  0.00  0.00    +0.178 HD
BRANCH  17  19
ATOM     19  N   UNL     1       4.799   2.133  -0.197  0.00  0.00    -0.187 NA
ATOM     20  C   UNL     1       5.720   3.046  -0.133  0.00  0.00    +0.138 C 
BRANCH  20  21
ATOM     21  C   UNL     1       5.345   4.471  -0.123  0.00  0.00    -0.005 A 
ATOM     22  C   UNL     1       6.318   5.453  -0.331  0.00  0.00    +0.013 A 
ATOM     23  C   UNL     1       5.962   6.784  -0.326  0.00  0.00    +0.046 A 
ATOM     24  C   UNL     1       4.641   7.152  -0.103  0.00  0.00    +0.117 A 
ATOM     25  C   UNL     1       3.672   6.180   0.110  0.00  0.00    +0.046 A 
ATOM     26  C   UNL     1       4.018   4.846   0.101  0.00  0.00    +0.013 A 
BRANCH  24  27
ATOM     27  O   UNL     1       4.296   8.466  -0.093  0.00  0.00    -0.507 OA
ATOM     28  H   UNL     1       3.251   8.758   0.083  0.00  0.00    +0.292 HD
ENDBRANCH  24  27
ENDBRANCH  20  21
ENDBRANCH  17  19
ENDBRANCH   3  15
TORSDOF 6
