REMARK  Name = ZINC10577404
REMARK  6 active torsions:
REMARK  status: ('A' for Active; 'I' for Inactive)
REMARK    1  A    between atoms: C_1  and  C_2
REMARK    2  A    between atoms: C_5  and  O_29
REMARK    3  A    between atoms: C_6  and  C_8
REMARK    4  A    between atoms: C_14  and  C_16
REMARK    5  A    between atoms: C_25  and  C_28
REMARK    6  A    between atoms: O_29  and  C_30
REMARK                            x       y       z     vdW  Elec       q    Type
REMARK                         _______ _______ _______ _____ _____    ______ ____
ROOT
ATOM      1  C   UNL     1      -0.017   1.363   0.009  0.00  0.00    +0.084 A 
ATOM      2  C   UNL     1       0.002  -0.004   0.002  0.00  0.00    +0.077 A 
ATOM      3  S   UNL     1       1.763  -0.311  -0.017  0.00  0.00    -0.060 S 
ATOM      4  C   UNL     1       2.288   1.397  -0.012  0.00  0.00    +0.165 A 
ATOM      5  N   UNL     1       1.129   2.028   0.002  0.00  0.00    -0.224 NA
ATOM      6  N   UNL     1       3.574   1.921  -0.021  0.00  0.00    -0.261 N 
ATOM      7  C   UNL     1       4.638   1.095  -0.035  0.00  0.00    +0.250 C 
ATOM      8  O   UNL     1       4.473  -0.110  -0.041  0.00  0.00    -0.270 OA
ATOM      9  H   UNL     1       3.706   2.882  -0.017  0.00  0.00    +0.157 HD
ENDROOT
BRANCH   7  10
ATOM     10  C   UNL     1       6.004   1.652  -0.045  0.00  0.00    +0.039 A 
ATOM     11  C   UNL     1       6.192   3.037  -0.039  0.00  0.00    +0.014 A 
ATOM     12  C   UNL     1       7.469   3.554  -0.046  0.00  0.00    +0.017 A 
ATOM     13  C   UNL     1       8.565   2.701  -0.058  0.00  0.00    +0.030 A 
ATOM     14  C   UNL     1       8.391   1.312  -0.068  0.00  0.00    +0.048 A 
ATOM     15  C   UNL     1       7.106   0.794  -0.054  0.00  0.00    +0.037 A 
ATOM     16  N   UNL     1       9.479   0.443  -0.088  0.00  0.00    -0.284 N 
ATOM     17  C   UNL     1      10.720   0.726   0.298  0.00  0.00    +0.230 C 
ATOM     18  O   UNL     1      11.555  -0.151   0.228  0.00  0.00    -0.274 OA
ATOM     19  C   UNL     1      11.145   2.072   0.817  0.00  0.00    +0.134 C 
ATOM     20  S   UNL     1      10.203   3.360  -0.057  0.00  0.00    -0.111 S 
ATOM     21  C   UNL     1      12.641   2.270   0.564  0.00  0.00    +0.029 C 
ATOM     22  H   UNL     1       9.315  -0.456  -0.414  0.00  0.00    +0.155 HD
ENDBRANCH   7  10
BRANCH   1  28
ATOM     23  C   UNL     1      -5.008   1.314   0.031  0.00  0.00    +0.044 C 
ATOM     24  C   UNL     1      -3.708   2.075   0.030  0.00  0.00    -0.050 A 
ATOM     25  C   UNL     1      -3.719   3.459   0.038  0.00  0.00    +0.007 A 
ATOM     26  C   UNL     1      -2.532   4.167   0.036  0.00  0.00    +0.046 A 
ATOM     27  C   UNL     1      -1.322   3.492   0.027  0.00  0.00    +0.129 A 
ATOM     28  C   UNL     1      -1.307   2.094   0.020  0.00  0.00    +0.043 A 
ATOM     29  C   UNL     1      -2.509   1.391   0.016  0.00  0.00    +0.017 A 
BRANCH  27  30
ATOM     30  O   UNL     1      -0.154   4.186   0.026  0.00  0.00    -0.494 OA
ATOM     31  C   UNL     1      -0.247   5.612   0.034  0.00  0.00    +0.277 C 
ENDBRANCH  27  30
ENDBRANCH   1  28
TORSDOF 3
