REMARK  Name = ZINC66633282
REMARK  6 active torsions:
REMARK  status: ('A' for Active; 'I' for Inactive)
REMARK    1  A    between atoms: C_1  and  C_2
REMARK    2  A    between atoms: C_2  and  C_3
REMARK    3  A    between atoms: C_3  and  N_4
REMARK    4  A    between atoms: N_7  and  N_8
REMARK    5  A    between atoms: C_9  and  C_11
REMARK    6  A    between atoms: C_23  and  C_25
REMARK                            x       y       z     vdW  Elec       q    Type
REMARK                         _______ _______ _______ _____ _____    ______ ____
ROOT
ATOM      1  C   UNL     1       0.224  -6.816  -0.501  0.00  0.00    +0.164 C 
ATOM      2  C   UNL     1      -1.288  -6.889  -0.850  0.00  0.00    +0.037 C 
ATOM      3  C   UNL     1      -1.686  -8.242  -0.241  0.00  0.00    +0.012 C 
ATOM      4  C   UNL     1      -2.883  -8.917  -0.888  0.00  0.00    +0.005 C 
ATOM      5  C   UNL     1      -3.038 -10.299  -0.234  0.00  0.00    +0.000 C 
ATOM      6  C   UNL     1      -1.777 -11.141  -0.400  0.00  0.00    +0.002 C 
ATOM      7  C   UNL     1      -0.537 -10.403   0.132  0.00  0.00    +0.023 C 
ATOM      8  C   UNL     1      -0.430  -9.084  -0.596  0.00  0.00    +0.080 C 
ATOM      9  N   UNL     1       0.689  -8.205  -0.276  0.00  0.00    -0.283 N 
ATOM     10  C   UNL     1       1.914  -8.581   0.144  0.00  0.00    +0.247 C 
ATOM     11  O   UNL     1       2.147  -9.753   0.366  0.00  0.00    -0.270 OA
ENDROOT
BRANCH  10  12
ATOM     12  C   UNL     1       2.974  -7.568   0.333  0.00  0.00    +0.037 A 
ATOM     13  C   UNL     1       2.684  -6.361   0.971  0.00  0.00    +0.013 A 
ATOM     14  C   UNL     1       3.677  -5.420   1.145  0.00  0.00    +0.001 A 
ATOM     15  C   UNL     1       4.959  -5.671   0.689  0.00  0.00    +0.000 A 
ATOM     16  C   UNL     1       5.253  -6.865   0.055  0.00  0.00    +0.001 A 
ATOM     17  C   UNL     1       4.270  -7.817  -0.120  0.00  0.00    +0.013 A 
ENDBRANCH  10  12
BRANCH   1  19
ATOM     18  N   UNL     1       1.005  -4.859  -1.797  0.00  0.00    -0.232 N 
ATOM     19  C   UNL     1       0.986  -6.198  -1.645  0.00  0.00    +0.250 C 
ATOM     20  O   UNL     1       1.583  -6.906  -2.429  0.00  0.00    -0.272 OA
ATOM     21  H   UNL     1       0.528  -4.293  -1.171  0.00  0.00    +0.173 HD
BRANCH  18  25
ATOM     22  N   UNL     1       1.069  -2.160  -2.142  0.00  0.00    -0.298 N 
ATOM     23  C   UNL     1       1.732  -2.946  -3.013  0.00  0.00    +0.316 C 
ATOM     24  O   UNL     1       2.347  -2.448  -3.936  0.00  0.00    -0.251 OA
ATOM     25  N   UNL     1       1.713  -4.285  -2.861  0.00  0.00    -0.218 N 
ATOM     26  H   UNL     1       0.579  -2.557  -1.406  0.00  0.00    +0.150 HD
ATOM     27  H   UNL     1       2.190  -4.851  -3.488  0.00  0.00    +0.174 HD
BRANCH  22  28
ATOM     28  C   UNL     1       1.090  -0.704  -2.308  0.00  0.00    +0.105 C 
BRANCH  28  30
ATOM     29  C   UNL     1       0.288   1.467  -1.368  0.00  0.00    +0.005 C 
ATOM     30  C   UNL     1       0.266  -0.053  -1.195  0.00  0.00    +0.015 C 
ENDBRANCH  28  30
ENDBRANCH  22  28
ENDBRANCH  18  25
ENDBRANCH   1  19
TORSDOF 5
