REMARK  Name = ZINC00659112
REMARK  5 active torsions:
REMARK  status: ('A' for Active; 'I' for Inactive)
REMARK    1  A    between atoms: C_3  and  C_6
REMARK    2  A    between atoms: C_6  and  N_7
REMARK    3  A    between atoms: C_8  and  C_10
REMARK    4  A    between atoms: C_16  and  C_25
REMARK    5  A    between atoms: C_19  and  C_21
REMARK                            x       y       z     vdW  Elec       q    Type
REMARK                         _______ _______ _______ _____ _____    ______ ____
ROOT
ATOM      1  C   UNL     1       5.957   2.609   2.970  0.00  0.00    +0.096 A 
ATOM      2  C   UNL     1       5.226   2.330   4.152  0.00  0.00    +0.149 A 
ATOM      3  N   UNL     1       5.990   2.597   5.177  0.00  0.00    -0.177 NA
ATOM      4  N   UNL     1       7.226   3.052   4.722  0.00  0.00    -0.238 N 
ATOM      5  C   UNL     1       7.204   3.053   3.368  0.00  0.00    +0.130 A 
ATOM      6  N   UNL     1       8.283   3.451   2.598  0.00  0.00    -0.322 N 
ATOM      7  C   UNL     1       9.373   4.145   3.313  0.00  0.00    +0.104 C 
ATOM      8  C   UNL     1       9.639   3.404   4.628  0.00  0.00    +0.063 C 
ATOM      9  C   UNL     1       8.388   3.464   5.516  0.00  0.00    +0.215 C 
ATOM     10  H   UNL     1       8.321   3.284   1.643  0.00  0.00    +0.148 HD
ENDROOT
BRANCH   7  11
ATOM     11  C   UNL     1       8.965   5.567   3.601  0.00  0.00    -0.027 A 
ATOM     12  C   UNL     1       7.672   5.847   4.003  0.00  0.00    +0.006 A 
ATOM     13  C   UNL     1       7.298   7.151   4.268  0.00  0.00    +0.015 A 
ATOM     14  C   UNL     1       8.217   8.175   4.131  0.00  0.00    +0.018 A 
ATOM     15  C   UNL     1       9.510   7.895   3.728  0.00  0.00    +0.015 A 
ATOM     16  C   UNL     1       9.885   6.590   3.469  0.00  0.00    +0.006 A 
ATOM     17 BR   UNL     1       7.705   9.960   4.492  0.00  0.00    -0.050 Br
ENDBRANCH   7  11
BRANCH   1  19
ATOM     18  N   UNL     1       4.234   2.004   1.353  0.00  0.00    -0.307 N 
ATOM     19  C   UNL     1       5.483   2.450   1.589  0.00  0.00    +0.249 C 
ATOM     20  O   UNL     1       6.218   2.723   0.659  0.00  0.00    -0.270 OA
ATOM     21  H   UNL     1       3.648   1.787   2.095  0.00  0.00    +0.149 HD
BRANCH  18  22
ATOM     22  C   UNL     1       3.761   1.845  -0.024  0.00  0.00    +0.147 C 
BRANCH  22  25
ATOM     23  C   UNL     1      -0.016   1.351   0.009  0.00  0.00    +0.008 A 
ATOM     24  C   UNL     1       1.183   2.038   0.002  0.00  0.00    +0.013 A 
ATOM     25  C   UNL     1       2.343   1.336  -0.013  0.00  0.00    +0.007 A 
ATOM     26  S   UNL     1       1.754  -0.349  -0.017  0.00  0.00    -0.100 S 
ATOM     27  C   UNL     1       0.002  -0.004   0.002  0.00  0.00    +0.045 A 
ENDBRANCH  22  25
ENDBRANCH  18  22
ENDBRANCH   1  19
BRANCH   9  28
ATOM     28  C   UNL     1       8.566   2.509   6.698  0.00  0.00    +0.412 C 
ATOM     29  F   UNL     1       8.766   1.209   6.221  0.00  0.00    -0.168 F 
ATOM     30  F   UNL     1       9.675   2.904   7.454  0.00  0.00    -0.168 F 
ATOM     31  F   UNL     1       7.420   2.540   7.499  0.00  0.00    -0.168 F 
ENDBRANCH   9  28
TORSDOF 5
