REMARK  Name = ZINC09944422
REMARK  12 active torsions:
REMARK  status: ('A' for Active; 'I' for Inactive)
REMARK    1  A    between atoms: C_1  and  C_2
REMARK    2  A    between atoms: C_2  and  C_3
REMARK    3  A    between atoms: C_2  and  C_4
REMARK    4  A    between atoms: C_4  and  C_6
REMARK    5  A    between atoms: C_4  and  S_12
REMARK    6  A    between atoms: S_12  and  C_13
REMARK    7  A    between atoms: C_16  and  C_19
REMARK    8  A    between atoms: N_17  and  C_18
REMARK    9  A    between atoms: C_26  and  C_29
REMARK   10  A    between atoms: C_29  and  C_30
REMARK   11  A    between atoms: C_29  and  C_31
REMARK   12  A    between atoms: C_29  and  C_32
REMARK                            x       y       z     vdW  Elec       q    Type
REMARK                         _______ _______ _______ _____ _____    ______ ____
ROOT
ATOM      1  C   UNL     1      -5.050   0.529  -0.660  0.00  0.00    +0.192 A 
ATOM      2  N   UNL     1      -4.936  -0.738  -0.333  0.00  0.00    -0.122 NA
ATOM      3  N   UNL     1      -6.030  -1.361  -0.586  0.00  0.00    -0.128 NA
ATOM      4  C   UNL     1      -6.911  -0.531  -1.100  0.00  0.00    +0.171 A 
ATOM      5  N   UNL     1      -6.309   0.706  -1.163  0.00  0.00    -0.305 N 
ATOM      6  C   UNL     1      -6.896   1.951  -1.664  0.00  0.00    +0.153 C 
ENDROOT
BRANCH   4   7
ATOM      7  C   UNL     1      -8.280  -0.862  -1.527  0.00  0.00    +0.057 A 
ATOM      8  C   UNL     1      -8.842  -2.090  -1.750  0.00  0.00    +0.023 A 
ATOM      9  C   UNL     1     -10.169  -2.178  -2.153  0.00  0.00    -0.036 A 
ATOM     10  C   UNL     1     -10.843  -1.002  -2.303  0.00  0.00    -0.006 A 
ATOM     11  S   UNL     1      -9.646   0.235  -1.880  0.00  0.00    -0.090 S 
ATOM     12  C   UNL     1     -12.265  -0.816  -2.723  0.00  0.00    +0.043 C 
ATOM     13  C   UNL     1     -12.769  -2.138  -3.322  0.00  0.00    +0.009 C 
ATOM     14  C   UNL     1     -12.383  -3.282  -2.381  0.00  0.00    -0.001 C 
ATOM     15  C   UNL     1     -10.871  -3.507  -2.422  0.00  0.00    +0.040 C 
BRANCH  14  16
ATOM     16  C   UNL     1     -13.098  -4.562  -2.818  0.00  0.00    -0.035 C 
ATOM     17  C   UNL     1     -12.684  -4.915  -4.248  0.00  0.00    +0.011 C 
ATOM     18  C   UNL     1     -12.713  -5.707  -1.879  0.00  0.00    +0.011 C 
ATOM     19  C   UNL     1     -14.611  -4.345  -2.764  0.00  0.00    +0.011 C 
ENDBRANCH  14  16
ENDBRANCH   4   7
BRANCH   1  20
ATOM     20  S   UNL     1      -3.809   1.769  -0.490  0.00  0.00    -0.073 S 
BRANCH  20  21
ATOM     21  C   UNL     1      -2.431   0.755   0.099  0.00  0.00    +0.143 C 
BRANCH  21  22
ATOM     22  C   UNL     1      -1.975  -0.165  -1.005  0.00  0.00    +0.234 C 
ATOM     23  O   UNL     1      -2.173   0.135  -2.163  0.00  0.00    -0.274 OA
ATOM     24  N   UNL     1      -1.349  -1.319  -0.705  0.00  0.00    -0.239 N 
ATOM     25  C   UNL     1      -0.946  -2.144  -1.693  0.00  0.00    +0.303 C 
ATOM     26  O   UNL     1      -1.144  -1.844  -2.853  0.00  0.00    -0.253 OA
ATOM     27  N   UNL     1      -0.325  -3.301  -1.392  0.00  0.00    -0.313 N 
ATOM     28  H   UNL     1      -1.191  -1.559   0.221  0.00  0.00    +0.159 HD
ATOM     29  H   UNL     1      -0.167  -3.541  -0.466  0.00  0.00    +0.146 HD
ATOM     30  H   UNL     1      -0.035  -3.895  -2.103  0.00  0.00    +0.146 HD
ENDBRANCH  21  22
BRANCH  21  32
ATOM     31  C   UNL     1      -1.735   2.596   1.637  0.00  0.00    +0.009 C 
ATOM     32  C   UNL     1      -1.272   1.662   0.517  0.00  0.00    +0.005 C 
ATOM     33  C   UNL     1      -0.107   0.805   1.016  0.00  0.00    +0.009 C 
ENDBRANCH  21  32
ENDBRANCH  20  21
ENDBRANCH   1  20
TORSDOF 6
