REMARK  Name = ZINC12560456
REMARK  7 active torsions:
REMARK  status: ('A' for Active; 'I' for Inactive)
REMARK    1  A    between atoms: C_1  and  C_2
REMARK    2  A    between atoms: C_7  and  C_9
REMARK    3  A    between atoms: C_7  and  C_10
REMARK    4  A    between atoms: N_11  and  C_13
REMARK    5  A    between atoms: C_13  and  C_14
REMARK    6  A    between atoms: C_15  and  O_34
REMARK    7  A    between atoms: C_23  and  C_25
REMARK                            x       y       z     vdW  Elec       q    Type
REMARK                         _______ _______ _______ _____ _____    ______ ____
ROOT
ATOM      1  C   UNL     1       1.356  -2.430  -3.408  0.00  0.00    +0.020 A 
ATOM      2  C   UNL     1       0.799  -2.592  -4.668  0.00  0.00    +0.122 A 
ATOM      3  C   UNL     1       1.510  -2.220  -5.808  0.00  0.00    +0.046 A 
ATOM      4  C   UNL     1       2.768  -1.705  -5.702  0.00  0.00    +0.015 A 
ATOM      5  C   UNL     1       3.358  -1.557  -4.438  0.00  0.00    +0.019 A 
ATOM      6  C   UNL     1       2.628  -1.896  -3.281  0.00  0.00    +0.144 A 
ATOM      7  O   UNL     1       3.162  -1.685  -2.054  0.00  0.00    -0.421 OA
ATOM      8  C   UNL     1       4.512  -1.699  -1.964  0.00  0.00    +0.348 A 
ATOM      9  O   UNL     1       5.074  -2.196  -1.006  0.00  0.00    -0.244 OA
ATOM     10  C   UNL     1       5.279  -1.092  -3.066  0.00  0.00    +0.102 A 
ATOM     11  C   UNL     1       4.678  -1.055  -4.314  0.00  0.00    +0.030 A 
ENDROOT
BRANCH  10  12
ATOM     12  C   UNL     1       6.636  -0.555  -2.851  0.00  0.00    +0.146 A 
ATOM     13  N   UNL     1       7.383   0.000  -3.776  0.00  0.00    -0.228 NA
ATOM     14  C   UNL     1       8.567   0.381  -3.236  0.00  0.00    +0.089 A 
ATOM     15  C   UNL     1       9.703   1.007  -3.760  0.00  0.00    +0.030 A 
ATOM     16  C   UNL     1      10.777   1.270  -2.940  0.00  0.00    +0.002 A 
ATOM     17  C   UNL     1      10.741   0.921  -1.597  0.00  0.00    +0.002 A 
ATOM     18  C   UNL     1       9.629   0.303  -1.065  0.00  0.00    +0.028 A 
ATOM     19  C   UNL     1       8.536   0.030  -1.875  0.00  0.00    +0.066 A 
ATOM     20  N   UNL     1       7.303  -0.556  -1.655  0.00  0.00    -0.338 N 
ATOM     21  H   UNL     1       6.973  -0.904  -0.812  0.00  0.00    +0.167 HD
ENDBRANCH  10  12
BRANCH   2  22
ATOM     22  O   UNL     1      -0.446  -3.116  -4.791  0.00  0.00    -0.506 OA
ATOM     23  H   UNL     1      -1.154  -2.457  -4.778  0.00  0.00    +0.292 HD
ENDBRANCH   2  22
BRANCH   1  24
ATOM     24  C   UNL     1       0.577  -2.827  -2.181  0.00  0.00    -0.035 C 
BRANCH  24  34
ATOM     25  C   UNL     1      -0.019   1.532   0.011  0.00  0.00    +0.009 C 
ATOM     26  C   UNL     1       0.002  -0.004   0.002  0.00  0.00    -0.048 C 
ATOM     27  C   UNL     1      -1.426  -0.615   0.003  0.00  0.00    -0.011 C 
ATOM     28  C   UNL     1      -1.100  -2.018  -0.584  0.00  0.00    -0.067 C 
ATOM     29  C   UNL     1      -0.396  -2.818   0.494  0.00  0.00    -0.009 C 
ATOM     30  C   UNL     1       0.654  -2.101   1.313  0.00  0.00    -0.036 C 
ATOM     31  C   UNL     1       0.727  -0.591   1.214  0.00  0.00    +0.011 C 
ATOM     32  C   UNL     1       2.041  -2.692   0.990  0.00  0.00    +0.011 C 
ATOM     33  C   UNL     1       0.383  -2.444   2.801  0.00  0.00    +0.011 C 
ATOM     34  N   UNL     1      -0.211  -1.692  -1.717  0.00  0.00    +0.385 N 
ATOM     35  C   UNL     1       0.649  -0.577  -1.280  0.00  0.00    -0.071 C 
ATOM     36  H   UNL     1      -0.788  -1.358  -2.491  0.00  0.00    -0.081 HD
ENDBRANCH  24  34
ENDBRANCH   1  24
TORSDOF 4
