REMARK  Name = ZINC04340370
REMARK  6 active torsions:
REMARK  status: ('A' for Active; 'I' for Inactive)
REMARK    1  A    between atoms: C_1  and  C_2
REMARK    2  A    between atoms: C_6  and  O_28
REMARK    3  A    between atoms: C_7  and  C_20
REMARK    4  A    between atoms: C_12  and  C_13
REMARK    5  A    between atoms: C_20  and  N_52
REMARK    6  A    between atoms: C_24  and  C_27
REMARK                            x       y       z     vdW  Elec       q    Type
REMARK                         _______ _______ _______ _____ _____    ______ ____
ROOT
ATOM      1  C   UNL     1      -0.750   3.007   2.286  0.00  0.00    +0.045 C 
ATOM      2  C   UNL     1      -1.664   2.885   1.095  0.00  0.00    -0.025 A 
ATOM      3  C   UNL     1      -2.909   3.566   1.069  0.00  0.00    +0.022 A 
ATOM      4  C   UNL     1      -3.300   4.362   2.156  0.00  0.00    +0.015 A 
ATOM      5  C   UNL     1      -4.497   5.014   2.126  0.00  0.00    +0.046 A 
ATOM      6  C   UNL     1      -5.338   4.896   1.020  0.00  0.00    +0.122 A 
ATOM      7  C   UNL     1      -4.968   4.115  -0.062  0.00  0.00    +0.020 A 
ATOM      8  C   UNL     1      -3.753   3.444  -0.049  0.00  0.00    +0.144 A 
ATOM      9  O   UNL     1      -3.393   2.682  -1.106  0.00  0.00    -0.421 OA
ATOM     10  C   UNL     1      -2.220   2.026  -1.123  0.00  0.00    +0.345 A 
ATOM     11  O   UNL     1      -1.917   1.351  -2.090  0.00  0.00    -0.244 OA
ATOM     12  C   UNL     1      -1.308   2.116   0.020  0.00  0.00    +0.070 A 
ENDROOT
BRANCH  12  13
ATOM     13  C   UNL     1      -0.017   1.390   0.010  0.00  0.00    -0.011 A 
ATOM     14  C   UNL     1       1.184   2.099   0.002  0.00  0.00    +0.010 A 
ATOM     15  C   UNL     1       2.384   1.418  -0.013  0.00  0.00    +0.020 A 
ATOM     16  C   UNL     1       2.397   0.034  -0.021  0.00  0.00    +0.041 A 
ATOM     17  C   UNL     1       1.208  -0.675  -0.013  0.00  0.00    +0.020 A 
ATOM     18  C   UNL     1       0.002  -0.004   0.002  0.00  0.00    +0.010 A 
ATOM     19 CL   UNL     1       3.910  -0.817  -0.041  0.00  0.00    -0.084 Cl
ENDBRANCH  12  13
BRANCH   6  20
ATOM     20  O   UNL     1      -6.526   5.551   1.004  0.00  0.00    -0.506 OA
ATOM     21  H   UNL     1      -6.480   6.441   0.627  0.00  0.00    +0.292 HD
ENDBRANCH   6  20
BRANCH   7  22
ATOM     22  C   UNL     1      -5.884   3.994  -1.253  0.00  0.00    -0.036 C 
BRANCH  22  29
ATOM     23  C   UNL     1      -5.875   6.378  -1.672  0.00  0.00    -0.078 C 
ATOM     24  C   UNL     1      -5.401   7.458  -2.647  0.00  0.00    -0.018 C 
ATOM     25  C   UNL     1      -6.106   7.268  -3.994  0.00  0.00    -0.001 C 
ATOM     26  C   UNL     1      -5.810   5.861  -4.522  0.00  0.00    -0.031 C 
ATOM     27  C   UNL     1      -6.272   4.828  -3.492  0.00  0.00    -0.075 C 
ATOM     28  C   UNL     1      -6.558   5.641  -5.838  0.00  0.00    +0.005 C 
ATOM     29  N   UNL     1      -5.540   5.050  -2.227  0.00  0.00    +0.383 N 
ATOM     30  H   UNL     1      -4.531   5.013  -2.416  0.00  0.00    -0.081 HD
ENDBRANCH  22  29
ENDBRANCH   7  22
TORSDOF 4
