REMARK  Name = ZINC36302669
REMARK  19 active torsions:
REMARK  status: ('A' for Active; 'I' for Inactive)
REMARK    1  A    between atoms: C_1  and  C_2
REMARK    2  A    between atoms: C_2  and  C_3
REMARK    3  A    between atoms: C_4  and  C_23
REMARK    4  A    between atoms: C_5  and  O_14
REMARK    5  A    between atoms: N_6  and  C_8
REMARK    6  A    between atoms: O_14  and  C_15
REMARK    7  A    between atoms: C_23  and  N_24
REMARK    8  A    between atoms: N_24  and  C_25
REMARK    9  A    between atoms: N_24  and  C_29
REMARK   10  A    between atoms: C_25  and  C_26
REMARK   11  A    between atoms: C_26  and  O_27
REMARK   12  A    between atoms: O_27  and  C_28
REMARK   13  A    between atoms: C_29  and  C_30
REMARK   14  A    between atoms: C_30  and  C_32
REMARK   15  A    between atoms: C_30  and  O_37
REMARK   16  A    between atoms: C_32  and  O_33
REMARK   17  A    between atoms: O_33  and  C_34
REMARK   18  A    between atoms: C_34  and  C_35
REMARK   19  A    between atoms: C_34  and  C_36
REMARK                            x       y       z     vdW  Elec       q    Type
REMARK                         _______ _______ _______ _____ _____    ______ ____
ROOT
ATOM      1  C   UNL     1       0.952   0.357  -0.593  0.00  0.00    +0.068 A 
ATOM      2  C   UNL     1       0.412  -0.004  -1.831  0.00  0.00    +0.021 A 
ATOM      3  C   UNL     1       1.438  -0.126  -2.715  0.00  0.00    +0.225 A 
ATOM      4  N   UNL     1       2.589   0.150  -2.045  0.00  0.00    -0.200 N 
ATOM      5  N   UNL     1       2.251   0.454  -0.720  0.00  0.00    -0.168 NA
ENDROOT
BRANCH   4   6
ATOM      6  C   UNL     1       3.883   0.139  -2.585  0.00  0.00    +0.069 A 
ATOM      7  C   UNL     1       4.264  -0.875  -3.454  0.00  0.00    +0.028 A 
ATOM      8  C   UNL     1       5.539  -0.883  -3.985  0.00  0.00    +0.002 A 
ATOM      9  C   UNL     1       6.435   0.116  -3.651  0.00  0.00    +0.000 A 
ATOM     10  C   UNL     1       6.058   1.126  -2.786  0.00  0.00    +0.002 A 
ATOM     11  C   UNL     1       4.783   1.143  -2.256  0.00  0.00    +0.028 A 
ENDBRANCH   4   6
BRANCH   1  13
ATOM     12  C   UNL     1      -0.233   2.073   0.749  0.00  0.00    +0.010 C 
ATOM     13  C   UNL     1       0.170   0.599   0.672  0.00  0.00    +0.054 C 
ENDBRANCH   1  13
BRANCH   3  14
ATOM     14  O   UNL     1       1.334  -0.463  -4.025  0.00  0.00    -0.435 OA
BRANCH  14  15
ATOM     15  C   UNL     1       1.307  -1.785  -4.344  0.00  0.00    +0.166 A 
ATOM     16  C   UNL     1       1.280  -2.741  -3.340  0.00  0.00    +0.052 A 
ATOM     17  C   UNL     1       1.253  -4.084  -3.666  0.00  0.00    +0.042 A 
ATOM     18  C   UNL     1       1.254  -4.476  -4.994  0.00  0.00    +0.126 A 
ATOM     19  C   UNL     1       1.281  -3.524  -5.998  0.00  0.00    +0.080 A 
ATOM     20  C   UNL     1       1.302  -2.179  -5.676  0.00  0.00    +0.168 A 
ATOM     21  F   UNL     1       1.323  -1.249  -6.657  0.00  0.00    -0.202 F 
ATOM     22  F   UNL     1       1.228  -5.789  -5.309  0.00  0.00    -0.205 F 
ENDBRANCH  14  15
ENDBRANCH   3  14
BRANCH   2  23
ATOM     23  C   UNL     1      -1.049  -0.218  -2.133  0.00  0.00    -0.036 C 
BRANCH  23  24
ATOM     24  N   UNL     1      -1.651   1.050  -2.565  0.00  0.00    +0.386 N 
ATOM     25  H   UNL     1      -1.485   1.757  -1.865  0.00  0.00    -0.081 HD
BRANCH  24  26
ATOM     26  C   UNL     1      -1.049   1.470  -3.837  0.00  0.00    -0.050 C 
BRANCH  26  27
ATOM     27  C   UNL     1      -1.567   2.860  -4.213  0.00  0.00    +0.141 C 
BRANCH  27  28
ATOM     28  O   UNL     1      -1.141   3.808  -3.232  0.00  0.00    -0.385 OA
ATOM     29  C   UNL     1      -1.575   5.145  -3.490  0.00  0.00    +0.193 C 
ENDBRANCH  27  28
ENDBRANCH  26  27
ENDBRANCH  24  26
BRANCH  24  30
ATOM     30  C   UNL     1      -3.098   0.869  -2.744  0.00  0.00    -0.044 C 
BRANCH  30  31
ATOM     31  C   UNL     1      -3.747   0.577  -1.390  0.00  0.00    +0.124 C 
BRANCH  31  32
ATOM     32  O   UNL     1      -3.541   1.688  -0.514  0.00  0.00    -0.391 OA
ATOM     33  H   UNL     1      -3.980   2.501  -0.800  0.00  0.00    +0.210 HD
ENDBRANCH  31  32
BRANCH  31  34
ATOM     34  C   UNL     1      -5.248   0.351  -1.582  0.00  0.00    +0.189 C 
BRANCH  34  35
ATOM     35  O   UNL     1      -5.835  -0.035  -0.338  0.00  0.00    -0.375 OA
BRANCH  35  36
ATOM     36  C   UNL     1      -7.242  -0.273  -0.407  0.00  0.00    +0.112 C 
ATOM     37  C   UNL     1      -7.633  -1.328   0.629  0.00  0.00    +0.037 C 
ATOM     38  C   UNL     1      -7.993   1.028  -0.119  0.00  0.00    +0.037 C 
ENDBRANCH  35  36
ENDBRANCH  34  35
ENDBRANCH  31  34
ENDBRANCH  30  31
ENDBRANCH  24  30
ENDBRANCH  23  24
ENDBRANCH   2  23
TORSDOF 15
