REMARK  Name = ZINC18222962
REMARK  7 active torsions:
REMARK  status: ('A' for Active; 'I' for Inactive)
REMARK    1  A    between atoms: C_1  and  O_2
REMARK    2  A    between atoms: O_2  and  C_3
REMARK    3  A    between atoms: C_5  and  C_13
REMARK    4  A    between atoms: C_7  and  O_11
REMARK    5  A    between atoms: C_8  and  O_9
REMARK    6  A    between atoms: O_9  and  C_10
REMARK    7  A    between atoms: O_11  and  C_12
REMARK                            x       y       z     vdW  Elec       q    Type
REMARK                         _______ _______ _______ _____ _____    ______ ____
ROOT
ATOM      1  C   UNL     1       2.462   0.340   4.203  0.00  0.00    +0.032 C 
ATOM      2  C   UNL     1       3.958   0.063   4.230  0.00  0.00    +0.088 C 
ATOM      3  C   UNL     1       4.607   0.756   5.415  0.00  0.00    +0.167 C 
ATOM      4  C   UNL     1       3.996   0.548   6.604  0.00  0.00    +0.057 C 
ATOM      5  C   UNL     1       4.411   1.153   7.875  0.00  0.00    +0.124 C 
ATOM      6  N   UNL     1       4.618   0.390   8.905  0.00  0.00    -0.253 NA
ATOM      7  C   UNL     1       4.543  -0.969   8.925  0.00  0.00    +0.089 A 
ATOM      8  C   UNL     1       5.534  -1.632   9.666  0.00  0.00    +0.030 A 
ATOM      9  C   UNL     1       5.529  -3.005   9.783  0.00  0.00    +0.002 A 
ATOM     10  C   UNL     1       4.538  -3.750   9.170  0.00  0.00    +0.002 A 
ATOM     11  C   UNL     1       3.563  -3.121   8.426  0.00  0.00    +0.030 A 
ATOM     12  C   UNL     1       3.560  -1.726   8.277  0.00  0.00    +0.089 A 
ATOM     13  N   UNL     1       2.590  -1.214   7.464  0.00  0.00    -0.249 NA
ATOM     14  C   UNL     1       2.772  -0.285   6.603  0.00  0.00    +0.055 C 
ATOM     15  C   UNL     1       1.765   0.015   5.520  0.00  0.00    +0.064 C 
ATOM     16  O   UNL     1       5.712   1.524   5.291  0.00  0.00    -0.292 OA
ENDROOT
BRANCH   1  19
ATOM     17  C   UNL     1       0.626  -0.619   1.042  0.00  0.00    +0.165 A 
ATOM     18  C   UNL     1       1.202   0.138   2.051  0.00  0.00    +0.053 A 
ATOM     19  C   UNL     1       1.837  -0.486   3.109  0.00  0.00    -0.036 A 
ATOM     20  C   UNL     1       1.900  -1.866   3.166  0.00  0.00    +0.053 A 
ATOM     21  C   UNL     1       1.327  -2.630   2.160  0.00  0.00    +0.165 A 
ATOM     22  C   UNL     1       0.683  -2.006   1.098  0.00  0.00    +0.204 A 
BRANCH  17  24
ATOM     23  C   UNL     1      -0.017   1.425   0.010  0.00  0.00    +0.277 C 
ATOM     24  O   UNL     1       0.002  -0.004   0.002  0.00  0.00    -0.491 OA
ENDBRANCH  17  24
BRANCH  22  25
ATOM     25  O   UNL     1       0.114  -2.753   0.113  0.00  0.00    -0.488 OA
ATOM     26  C   UNL     1       0.939  -3.090  -1.004  0.00  0.00    +0.277 C 
ENDBRANCH  22  25
BRANCH  21  27
ATOM     27  O   UNL     1       1.390  -3.987   2.217  0.00  0.00    -0.491 OA
ATOM     28  C   UNL     1       2.062  -4.559   3.340  0.00  0.00    +0.277 C 
ENDBRANCH  21  27
ENDBRANCH   1  19
TORSDOF 4
