REMARK  Name = ZINC39358611
REMARK  3 active torsions:
REMARK  status: ('A' for Active; 'I' for Inactive)
REMARK    1  A    between atoms: C_4  and  C_7
REMARK    2  A    between atoms: C_10  and  C_13
REMARK    3  A    between atoms: C_16  and  O_29
REMARK                            x       y       z     vdW  Elec       q    Type
REMARK                         _______ _______ _______ _____ _____    ______ ____
ROOT
ATOM      1  C   UNL     1       7.434  -2.768  -0.085  0.00  0.00    +0.089 C 
ATOM      2  C   UNL     1       7.535  -3.666   1.111  0.00  0.00    +0.048 C 
ATOM      3  C   UNL     1       8.151  -3.591   2.271  0.00  0.00    +0.235 C 
ATOM      4  N   UNL     1       8.015  -4.763   2.951  0.00  0.00    -0.114 NA
ATOM      5  N   UNL     1       7.323  -5.612   2.375  0.00  0.00    -0.157 NA
ATOM      6  C   UNL     1       6.825  -5.023   1.131  0.00  0.00    +0.245 C 
ATOM      7  N   UNL     1       7.328  -5.703  -0.064  0.00  0.00    -0.321 N 
ATOM      8  C   UNL     1       7.445  -5.003  -1.239  0.00  0.00    +0.013 C 
ATOM      9  C   UNL     1       7.518  -3.656  -1.317  0.00  0.00    +0.023 C 
ATOM     10  C   UNL     1       7.678  -3.000  -2.550  0.00  0.00    +0.162 C 
ATOM     11  O   UNL     1       7.736  -1.787  -2.573  0.00  0.00    -0.292 OA
ATOM     12  C   UNL     1       7.782  -3.764  -3.841  0.00  0.00    +0.080 C 
ATOM     13  C   UNL     1       8.369  -5.149  -3.549  0.00  0.00    +0.014 C 
ATOM     14  C   UNL     1       7.484  -5.839  -2.503  0.00  0.00    +0.051 C 
ATOM     15  H   UNL     1       7.576  -6.640  -0.026  0.00  0.00    +0.148 HD
ENDROOT
BRANCH   1  19
ATOM     16  C   UNL     1       3.699  -0.689  -0.037  0.00  0.00    -0.018 A 
ATOM     17  C   UNL     1       4.896   0.024  -0.040  0.00  0.00    +0.009 A 
ATOM     18  C   UNL     1       6.099  -0.652  -0.055  0.00  0.00    +0.005 A 
ATOM     19  C   UNL     1       6.118  -2.035  -0.068  0.00  0.00    -0.035 A 
ATOM     20  C   UNL     1       4.932  -2.748  -0.066  0.00  0.00    +0.005 A 
ATOM     21  C   UNL     1       3.724  -2.082  -0.045  0.00  0.00    +0.009 A 
BRANCH  16  25
ATOM     22  C   UNL     1      -0.017   1.379   0.010  0.00  0.00    +0.000 A 
ATOM     23  C   UNL     1       1.169   2.092   0.002  0.00  0.00    +0.001 A 
ATOM     24  C   UNL     1       2.377   1.426  -0.013  0.00  0.00    +0.008 A 
ATOM     25  C   UNL     1       2.402   0.033  -0.021  0.00  0.00    -0.018 A 
ATOM     26  C   UNL     1       1.205  -0.680  -0.013  0.00  0.00    +0.008 A 
ATOM     27  C   UNL     1       0.002  -0.004   0.002  0.00  0.00    +0.001 A 
ENDBRANCH  16  25
ENDBRANCH   1  19
BRANCH   3  28
ATOM     28  O   UNL     1       8.825  -2.502   2.725  0.00  0.00    -0.491 OA
ATOM     29  H   UNL     1       9.218  -2.619   3.600  0.00  0.00    +0.294 HD
ENDBRANCH   3  28
TORSDOF 3
