REMARK  Name = ZINC12704224
REMARK  9 active torsions:
REMARK  status: ('A' for Active; 'I' for Inactive)
REMARK    1  A    between atoms: C_4  and  C_7
REMARK    2  A    between atoms: C_7  and  N_8
REMARK    3  A    between atoms: N_8  and  C_9
REMARK    4  A    between atoms: C_9  and  C_11
REMARK    5  A    between atoms: C_9  and  C_16
REMARK    6  A    between atoms: N_18  and  C_19
REMARK    7  A    between atoms: C_24  and  C_26
REMARK    8  A    between atoms: C_26  and  N_27
REMARK    9  A    between atoms: C_29  and  C_32
REMARK                            x       y       z     vdW  Elec       q    Type
REMARK                         _______ _______ _______ _____ _____    ______ ____
ROOT
ATOM      1  N   UNL     1       4.064  -0.946  -1.447  0.00  0.00    -0.280 N 
ATOM      2  C   UNL     1       3.299  -1.749  -2.213  0.00  0.00    +0.240 C 
ATOM      3  O   UNL     1       3.439  -1.751  -3.418  0.00  0.00    -0.273 OA
ENDROOT
BRANCH   1   4
ATOM      4  C   UNL     1       3.822  -0.862  -0.005  0.00  0.00    +0.144 C 
BRANCH   4   8
ATOM      5  C   UNL     1      -0.345  -0.240   0.704  0.00  0.00    +0.000 A 
ATOM      6  C   UNL     1       0.465   0.827   0.364  0.00  0.00    +0.000 A 
ATOM      7  C   UNL     1       1.813   0.626   0.134  0.00  0.00    +0.005 A 
ATOM      8  C   UNL     1       2.352  -0.642   0.246  0.00  0.00    -0.030 A 
ATOM      9  C   UNL     1       1.542  -1.710   0.586  0.00  0.00    +0.005 A 
ATOM     10  C   UNL     1       0.194  -1.508   0.816  0.00  0.00    +0.000 A 
ENDBRANCH   4   8
ENDBRANCH   1   4
BRANCH   1  11
ATOM     11  C   UNL     1       5.139  -0.159  -2.057  0.00  0.00    +0.199 C 
BRANCH  11  12
ATOM     12  C   UNL     1       6.434  -0.433  -1.336  0.00  0.00    +0.019 A 
ATOM     13  C   UNL     1       7.685  -0.551  -1.845  0.00  0.00    +0.013 A 
ATOM     14  C   UNL     1       8.736  -0.807  -0.984  0.00  0.00    +0.008 A 
ATOM     15  C   UNL     1       8.485  -0.933   0.342  0.00  0.00    +0.045 A 
ATOM     16  S   UNL     1       6.719  -0.680   0.409  0.00  0.00    -0.099 S 
ENDBRANCH  11  12
BRANCH  11  17
ATOM     17  C   UNL     1       4.808   1.308  -1.953  0.00  0.00    +0.239 C 
ATOM     18  O   UNL     1       3.864   1.671  -1.283  0.00  0.00    -0.273 OA
ATOM     19  N   UNL     1       5.559   2.216  -2.606  0.00  0.00    -0.311 N 
ATOM     20  H   UNL     1       6.314   1.926  -3.143  0.00  0.00    +0.149 HD
BRANCH  19  21
ATOM     21  C   UNL     1       5.237   3.642  -2.506  0.00  0.00    +0.073 C 
ATOM     22  C   UNL     1       4.213   4.030  -3.592  0.00  0.00    +0.022 C 
ATOM     23  C   UNL     1       4.649   5.449  -4.034  0.00  0.00    +0.002 C 
ATOM     24  C   UNL     1       6.194   5.358  -4.003  0.00  0.00    +0.002 C 
ATOM     25  C   UNL     1       6.497   4.486  -2.767  0.00  0.00    +0.022 C 
ENDBRANCH  19  21
ENDBRANCH  11  17
ENDBRANCH   1  11
BRANCH   2  26
ATOM     26  C   UNL     1       2.269  -2.643  -1.573  0.00  0.00    +0.264 C 
BRANCH  26  27
ATOM     27  N   UNL     1       1.726  -3.561  -2.578  0.00  0.00    -0.154 N 
ATOM     28  N   UNL     1       0.697  -3.332  -3.318  0.00  0.00    -0.130 NA
ATOM     29  C   UNL     1       0.517  -4.381  -4.095  0.00  0.00    +0.205 A 
ATOM     30  N   UNL     1       1.482  -5.259  -3.784  0.00  0.00    -0.108 NA
ATOM     31  N   UNL     1       2.200  -4.725  -2.856  0.00  0.00    -0.045 NA
BRANCH  29  32
ATOM     32  C   UNL     1      -0.549  -4.559  -5.113  0.00  0.00    +0.023 A 
ATOM     33  C   UNL     1      -1.491  -3.554  -5.320  0.00  0.00    +0.014 A 
ATOM     34  C   UNL     1      -2.477  -3.721  -6.270  0.00  0.00    +0.039 A 
ATOM     35  C   UNL     1      -2.538  -4.891  -7.010  0.00  0.00    +0.123 A 
ATOM     36  C   UNL     1      -1.606  -5.895  -6.803  0.00  0.00    +0.039 A 
ATOM     37  C   UNL     1      -0.613  -5.734  -5.859  0.00  0.00    +0.014 A 
ATOM     38  F   UNL     1      -3.509  -5.053  -7.936  0.00  0.00    -0.205 F 
ENDBRANCH  29  32
ENDBRANCH  26  27
ENDBRANCH   2  26
TORSDOF 9
