REMARK  Name = ZINC06077771
REMARK  11 active torsions:
REMARK  status: ('A' for Active; 'I' for Inactive)
REMARK    1  A    between atoms: C_1  and  C_2
REMARK    2  A    between atoms: C_2  and  C_3
REMARK    3  A    between atoms: C_3  and  C_4
REMARK    4  A    between atoms: C_3  and  C_5
REMARK    5  A    between atoms: C_3  and  N_6
REMARK    6  A    between atoms: C_7  and  C_11
REMARK    7  A    between atoms: C_11  and  C_13
REMARK    8  A    between atoms: C_11  and  N_72
REMARK    9  A    between atoms: N_30  and  C_33
REMARK   10  A    between atoms: C_36  and  O_39
REMARK   11  A    between atoms: O_39  and  C_40
REMARK                            x       y       z     vdW  Elec       q    Type
REMARK                         _______ _______ _______ _____ _____    ______ ____
ROOT
ATOM      1  C   UNL     1      -2.558   1.758   0.141  0.00  0.00    +0.039 C 
ENDROOT
BRANCH   1   2
ATOM      2  C   UNL     1      -3.188   1.834  -1.226  0.00  0.00    +0.011 A 
ATOM      3  C   UNL     1      -3.572   0.695  -1.857  0.00  0.00    +0.017 A 
ATOM      4  C   UNL     1      -4.186   0.802  -3.181  0.00  0.00    +0.002 A 
ATOM      5  C   UNL     1      -4.607  -0.339  -3.876  0.00  0.00    +0.059 A 
ATOM      6  C   UNL     1      -5.175  -0.207  -5.124  0.00  0.00    +0.167 A 
ATOM      7  C   UNL     1      -5.332   1.061  -5.698  0.00  0.00    +0.168 A 
ATOM      8  C   UNL     1      -4.919   2.193  -5.018  0.00  0.00    +0.075 A 
ATOM      9  C   UNL     1      -4.345   2.077  -3.758  0.00  0.00    +0.053 A 
ATOM     10  N   UNL     1      -3.929   3.195  -3.065  0.00  0.00    -0.322 N 
ATOM     11  H   UNL     1      -4.043   4.100  -3.476  0.00  0.00    +0.169 HD
ATOM     12  C   UNL     1      -3.372   3.086  -1.847  0.00  0.00    +0.251 A 
ATOM     13  O   UNL     1      -3.015   4.096  -1.264  0.00  0.00    -0.268 OA
ATOM     14  O   UNL     1      -5.912   0.912  -6.923  0.00  0.00    -0.453 OA
ATOM     15  C   UNL     1      -5.734  -0.474  -7.269  0.00  0.00    +0.466 C 
ATOM     16  O   UNL     1      -5.659  -1.141  -5.995  0.00  0.00    -0.453 OA
ENDBRANCH   1   2
BRANCH   1  22
ATOM     17  C   UNL     1      -2.668   2.634   2.396  0.00  0.00    -0.058 C 
ATOM     18  C   UNL     1      -3.432   3.593   3.312  0.00  0.00    +0.086 C 
ATOM     19  N   UNL     1      -4.832   3.159   3.414  0.00  0.00    -0.333 N 
ATOM     20  C   UNL     1      -5.471   3.137   2.091  0.00  0.00    +0.086 C 
ATOM     21  C   UNL     1      -4.708   2.178   1.175  0.00  0.00    -0.058 C 
ATOM     22  N   UNL     1      -3.308   2.638   1.063  0.00  0.00    +0.391 N 
ATOM     23  H   UNL     1      -3.299   3.595   0.692  0.00  0.00    -0.080 HD
BRANCH  19  24
ATOM     24  C   UNL     1      -5.546   3.972   4.302  0.00  0.00    +0.030 A 
ATOM     25  C   UNL     1      -6.692   4.629   3.875  0.00  0.00    +0.027 A 
ATOM     26  C   UNL     1      -7.399   5.426   4.753  0.00  0.00    +0.047 A 
ATOM     27  C   UNL     1      -6.957   5.581   6.059  0.00  0.00    +0.120 A 
ATOM     28  C   UNL     1      -5.809   4.929   6.485  0.00  0.00    +0.047 A 
ATOM     29  C   UNL     1      -5.104   4.127   5.610  0.00  0.00    +0.027 A 
BRANCH  27  30
ATOM     30  O   UNL     1      -7.651   6.371   6.922  0.00  0.00    -0.495 OA
ATOM     31  C   UNL     1      -8.823   7.011   6.416  0.00  0.00    +0.277 C 
ENDBRANCH  27  30
ENDBRANCH  19  24
ENDBRANCH   1  22
BRANCH   1  33
ATOM     32  N   UNL     1      -0.024   1.481   0.213  0.00  0.00    -0.225 N 
ATOM     33  C   UNL     1      -1.130   2.233   0.063  0.00  0.00    +0.143 A 
ATOM     34  N   UNL     1      -0.724   3.459  -0.162  0.00  0.00    -0.115 NA
ATOM     35  N   UNL     1       0.564   3.458  -0.158  0.00  0.00    -0.023 NA
ATOM     36  N   UNL     1       0.991   2.264   0.068  0.00  0.00    -0.043 NA
BRANCH  32  37
ATOM     37  C   UNL     1       0.019   0.042   0.485  0.00  0.00    +0.061 C 
ATOM     38  C   UNL     1      -0.644  -0.243   1.833  0.00  0.00    +0.036 C 
ATOM     39  C   UNL     1      -0.728  -0.708  -0.620  0.00  0.00    +0.036 C 
BRANCH  37  41
ATOM     40  C   UNL     1       1.521  -1.929   0.807  0.00  0.00    +0.006 C 
ATOM     41  C   UNL     1       1.475  -0.426   0.524  0.00  0.00    +0.026 C 
ENDBRANCH  37  41
ENDBRANCH  32  37
ENDBRANCH   1  33
TORSDOF 7
