REMARK  Name = ZINC39697712
REMARK  9 active torsions:
REMARK  status: ('A' for Active; 'I' for Inactive)
REMARK    1  A    between atoms: C_1  and  C_2
REMARK    2  A    between atoms: C_7  and  C_15
REMARK    3  A    between atoms: C_13  and  C_14
REMARK    4  A    between atoms: C_15  and  N_16
REMARK    5  A    between atoms: N_16  and  C_17
REMARK    6  A    between atoms: C_17  and  C_18
REMARK    7  A    between atoms: N_26  and  C_27
REMARK    8  A    between atoms: C_32  and  O_33
REMARK    9  A    between atoms: O_33  and  C_34
REMARK                            x       y       z     vdW  Elec       q    Type
REMARK                         _______ _______ _______ _____ _____    ______ ____
ROOT
ATOM      1  N   UNL     1       1.330  -6.568   2.522  0.00  0.00    -0.282 N 
ATOM      2  C   UNL     1       1.894  -6.085   3.646  0.00  0.00    +0.307 C 
ATOM      3  O   UNL     1       2.415  -4.987   3.642  0.00  0.00    -0.252 OA
ATOM      4  N   UNL     1       1.881  -6.820   4.776  0.00  0.00    -0.266 N 
ATOM      5  H   UNL     1       1.396  -7.659   4.803  0.00  0.00    +0.156 HD
ENDROOT
BRANCH   4   6
ATOM      6  C   UNL     1       2.570  -6.371   5.912  0.00  0.00    +0.077 A 
ATOM      7  C   UNL     1       3.644  -5.505   5.777  0.00  0.00    +0.027 A 
ATOM      8  C   UNL     1       4.321  -5.063   6.898  0.00  0.00    +0.002 A 
ATOM      9  C   UNL     1       3.930  -5.484   8.156  0.00  0.00    +0.004 A 
ATOM     10  C   UNL     1       2.860  -6.348   8.298  0.00  0.00    +0.047 A 
ATOM     11  C   UNL     1       2.172  -6.790   7.180  0.00  0.00    +0.141 A 
BRANCH  11  12
ATOM     12  O   UNL     1       1.116  -7.635   7.319  0.00  0.00    -0.493 OA
ATOM     13  C   UNL     1       0.766  -8.022   8.649  0.00  0.00    +0.277 C 
ENDBRANCH  11  12
ENDBRANCH   4   6
BRANCH   1  14
ATOM     14  C   UNL     1       1.344  -5.770   1.294  0.00  0.00    +0.126 C 
BRANCH  14  21
ATOM     15  C   UNL     1      -0.034   1.481  -0.021  0.00  0.00    +0.044 C 
ATOM     16  C   UNL     1      -0.004  -0.025  -0.026  0.00  0.00    -0.046 A 
ATOM     17  C   UNL     1       0.012  -0.691  -1.252  0.00  0.00    +0.004 A 
ATOM     18  C   UNL     1       0.039  -2.047  -1.321  0.00  0.00    +0.010 A 
ATOM     19  C   UNL     1       0.051  -2.816  -0.076  0.00  0.00    -0.007 A 
ATOM     20  C   UNL     1       0.079  -4.179  -0.096  0.00  0.00    -0.003 C 
ATOM     21  C   UNL     1       0.091  -4.894   1.241  0.00  0.00    +0.116 C 
ATOM     22  C   UNL     1       0.071  -4.038   2.487  0.00  0.00    +0.226 C 
ATOM     23  O   UNL     1       0.079  -4.559   3.586  0.00  0.00    -0.275 OA
ATOM     24  N   UNL     1       0.045  -2.720   2.377  0.00  0.00    -0.284 N 
ATOM     25  C   UNL     1       0.034  -2.087   1.204  0.00  0.00    +0.043 A 
ATOM     26  C   UNL     1       0.011  -0.681   1.164  0.00  0.00    -0.026 A 
ATOM     27  C   UNL     1      -0.002   0.104   2.450  0.00  0.00    +0.046 C 
ATOM     28  H   UNL     1       0.032  -2.189   3.189  0.00  0.00    +0.155 HD
ENDBRANCH  14  21
ENDBRANCH   1  14
BRANCH   1  29
ATOM     29  C   UNL     1       0.703  -7.892   2.527  0.00  0.00    +0.141 C 
BRANCH  29  30
ATOM     30  C   UNL     1       1.742  -8.951   2.155  0.00  0.00    +0.136 C 
ATOM     31  C   UNL     1       1.064 -10.333   2.040  0.00  0.00    +0.035 C 
ATOM     32  C   UNL     1       2.126 -11.274   2.672  0.00  0.00    +0.031 C 
ATOM     33  C   UNL     1       2.723 -10.353   3.765  0.00  0.00    +0.160 C 
ATOM     34  O   UNL     1       2.736  -9.038   3.183  0.00  0.00    -0.375 OA
ENDBRANCH  29  30
ENDBRANCH   1  29
TORSDOF 6
