REMARK  Name = ZINC36397534
REMARK  6 active torsions:
REMARK  status: ('A' for Active; 'I' for Inactive)
REMARK    1  A    between atoms: C_1  and  C_2
REMARK    2  A    between atoms: C_4  and  S_9
REMARK    3  A    between atoms: C_6  and  C_8
REMARK    4  A    between atoms: S_9  and  C_10
REMARK    5  A    between atoms: C_13  and  S_15
REMARK    6  A    between atoms: S_15  and  C_16
REMARK                            x       y       z     vdW  Elec       q    Type
REMARK                         _______ _______ _______ _____ _____    ______ ____
ROOT
ATOM      1  C   UNL     1      -0.018   1.503   0.010  0.00  0.00    +0.066 C 
ATOM      2  C   UNL     1       0.002  -0.004   0.002  0.00  0.00    +0.043 A 
ATOM      3  C   UNL     1       0.006  -0.696  -1.193  0.00  0.00    +0.058 A 
ATOM      4  C   UNL     1       0.025  -2.092  -1.150  0.00  0.00    +0.107 A 
ATOM      5  N   UNL     1       0.039  -2.700   0.034  0.00  0.00    -0.226 NA
ATOM      6  C   UNL     1       0.034  -1.999   1.149  0.00  0.00    +0.127 A 
ATOM      7  N   UNL     1       0.022  -0.681   1.142  0.00  0.00    -0.237 NA
ATOM      8  C   UNL     1       0.050  -2.724   2.470  0.00  0.00    +0.088 C 
ENDROOT
BRANCH   4   9
ATOM      9  S   UNL     1       0.030  -3.033  -2.640  0.00  0.00    -0.041 S 
BRANCH   9  10
ATOM     10  C   UNL     1       0.056  -4.706  -2.087  0.00  0.00    +0.165 A 
ATOM     11  N   UNL     1       0.062  -5.179  -0.856  0.00  0.00    -0.134 NA
ATOM     12  N   UNL     1       0.083  -6.539  -0.645  0.00  0.00    -0.134 NA
ATOM     13  C   UNL     1       0.095  -7.363  -1.676  0.00  0.00    +0.159 A 
ATOM     14  S   UNL     1       0.071  -6.214  -3.044  0.00  0.00    -0.033 S 
BRANCH  13  15
ATOM     15  S   UNL     1       0.121  -9.124  -1.697  0.00  0.00    -0.100 S 
ATOM     16  C   UNL     1       0.127  -9.584   0.058  0.00  0.00    +0.092 C 
ENDBRANCH  13  15
ENDBRANCH   9  10
ENDBRANCH   4   9
TORSDOF 3
