REMARK  Name = ZINC46586881
REMARK  8 active torsions:
REMARK  status: ('A' for Active; 'I' for Inactive)
REMARK    1  A    between atoms: C_1  and  C_2
REMARK    2  A    between atoms: C_2  and  C_4
REMARK    3  A    between atoms: C_2  and  N_13
REMARK    4  A    between atoms: N_13  and  C_14
REMARK    5  A    between atoms: N_13  and  C_15
REMARK    6  A    between atoms: C_15  and  C_16
REMARK    7  A    between atoms: N_18  and  C_19
REMARK    8  A    between atoms: C_19  and  C_26
REMARK                            x       y       z     vdW  Elec       q    Type
REMARK                         _______ _______ _______ _____ _____    ______ ____
ROOT
ATOM      1  N   UNL     1       0.690  -0.478  -1.207  0.00  0.00    +0.390 N 
ATOM      2  C   UNL     1       2.068   0.031  -1.217  0.00  0.00    -0.095 C 
ATOM      3  H   UNL     1       0.202  -0.144  -2.024  0.00  0.00    -0.081 HD
ENDROOT
BRANCH   1   5
ATOM      4  C   UNL     1      -0.019   1.526   0.010  0.00  0.00    -0.005 C 
ATOM      5  C   UNL     1       0.002  -0.004   0.002  0.00  0.00    -0.004 C 
BRANCH   5   6
ATOM      6  C   UNL     1      -1.412  -0.526   0.013  0.00  0.00    +0.093 A 
ATOM      7  C   UNL     1      -2.057  -0.971   1.099  0.00  0.00    +0.051 A 
ATOM      8  C   UNL     1      -3.393  -1.375   0.645  0.00  0.00    +0.020 A 
ATOM      9  C   UNL     1      -4.517  -1.908   1.275  0.00  0.00    +0.011 A 
ATOM     10  C   UNL     1      -5.639  -2.180   0.542  0.00  0.00    +0.001 A 
ATOM     11  C   UNL     1      -5.665  -1.929  -0.822  0.00  0.00    +0.004 A 
ATOM     12  C   UNL     1      -4.564  -1.401  -1.462  0.00  0.00    +0.047 A 
ATOM     13  C   UNL     1      -3.414  -1.117  -0.736  0.00  0.00    +0.135 A 
ATOM     14  O   UNL     1      -2.211  -0.606  -1.066  0.00  0.00    -0.461 OA
ENDBRANCH   5   6
ENDBRANCH   1   5
BRANCH   1  15
ATOM     15  C   UNL     1       0.710  -1.947  -1.215  0.00  0.00    +0.019 C 
BRANCH  15  16
ATOM     16  C   UNL     1       1.304  -2.434  -2.511  0.00  0.00    +0.197 C 
ATOM     17  O   UNL     1       1.675  -1.636  -3.345  0.00  0.00    -0.278 OA
ATOM     18  N   UNL     1       1.424  -3.756  -2.742  0.00  0.00    -0.310 N 
ATOM     19  H   UNL     1       1.128  -4.394  -2.075  0.00  0.00    +0.149 HD
BRANCH  18  20
ATOM     20  C   UNL     1       2.003  -4.230  -4.002  0.00  0.00    +0.052 C 
ATOM     21  C   UNL     1       1.204  -3.635  -5.161  0.00  0.00    +0.049 C 
ATOM     22  C   UNL     1       1.265  -4.577  -6.396  0.00  0.00    +0.168 C 
ATOM     23  S   UNL     1       1.130  -6.210  -5.545  0.00  0.00    -0.029 S 
ATOM     24  O   UNL     1       1.890  -7.174  -6.260  0.00  0.00    -0.174 OA
ATOM     25  O   UNL     1      -0.235  -6.471  -5.248  0.00  0.00    -0.174 OA
ATOM     26  C   UNL     1       2.015  -5.771  -3.991  0.00  0.00    +0.191 C 
ATOM     27  C   UNL     1       3.445  -3.729  -4.097  0.00  0.00    +0.033 C 
ENDBRANCH  18  20
ENDBRANCH  15  16
ENDBRANCH   1  15
TORSDOF 5
