REMARK  Name = ZINC44906134
REMARK  13 active torsions:
REMARK  status: ('A' for Active; 'I' for Inactive)
REMARK    1  A    between atoms: C_1  and  C_2
REMARK    2  A    between atoms: C_5  and  S_8
REMARK    3  A    between atoms: S_8  and  N_11
REMARK    4  A    between atoms: N_14  and  C_17
REMARK    5  A    between atoms: C_17  and  C_18
REMARK    6  A    between atoms: C_22  and  C_24
REMARK    7  A    between atoms: N_26  and  C_27
REMARK    8  A    between atoms: C_27  and  C_29
REMARK    9  A    between atoms: C_27  and  C_30
REMARK   10  A    between atoms: C_33  and  C_36
REMARK   11  A    between atoms: C_36  and  C_37
REMARK   12  A    between atoms: C_36  and  C_38
REMARK   13  A    between atoms: C_36  and  C_39
REMARK                            x       y       z     vdW  Elec       q    Type
REMARK                         _______ _______ _______ _____ _____    ______ ____
ROOT
ATOM      1  C   UNL     1       6.589  -4.774   1.069  0.00  0.00    -0.033 A 
ATOM      2  C   UNL     1       6.573  -4.197   2.327  0.00  0.00    +0.005 A 
ATOM      3  C   UNL     1       7.325  -4.739   3.354  0.00  0.00    +0.001 A 
ATOM      4  C   UNL     1       8.097  -5.860   3.130  0.00  0.00    +0.013 A 
ATOM      5  C   UNL     1       8.118  -6.447   1.864  0.00  0.00    +0.037 A 
ATOM      6  C   UNL     1       7.353  -5.899   0.834  0.00  0.00    +0.018 A 
ENDROOT
BRANCH   5   7
ATOM      7  C   UNL     1       8.944  -7.649   1.617  0.00  0.00    +0.245 C 
ATOM      8  O   UNL     1       8.960  -8.159   0.513  0.00  0.00    -0.270 OA
ATOM      9  N   UNL     1       9.678  -8.179   2.615  0.00  0.00    -0.305 N 
ATOM     10  H   UNL     1       9.665  -7.772   3.495  0.00  0.00    +0.150 HD
BRANCH   9  11
ATOM     11  C   UNL     1      10.496  -9.369   2.370  0.00  0.00    +0.100 C 
ATOM     12  C   UNL     1       9.635 -10.623   2.535  0.00  0.00    +0.033 C 
BRANCH  11  13
ATOM     13  C   UNL     1      11.634  -9.408   3.357  0.00  0.00    -0.027 A 
ATOM     14  C   UNL     1      11.419  -9.051   4.675  0.00  0.00    +0.006 A 
ATOM     15  C   UNL     1      12.464  -9.087   5.580  0.00  0.00    +0.004 A 
ATOM     16  C   UNL     1      13.723  -9.480   5.167  0.00  0.00    -0.042 A 
ATOM     17  C   UNL     1      13.938  -9.838   3.849  0.00  0.00    +0.004 A 
ATOM     18  C   UNL     1      12.893  -9.807   2.945  0.00  0.00    +0.006 A 
BRANCH  16  19
ATOM     19  C   UNL     1      14.861  -9.518   6.153  0.00  0.00    -0.013 C 
ATOM     20  C   UNL     1      14.523 -10.490   7.285  0.00  0.00    +0.015 C 
ATOM     21  C   UNL     1      16.135  -9.984   5.444  0.00  0.00    +0.015 C 
ATOM     22  C   UNL     1      15.082  -8.119   6.731  0.00  0.00    +0.015 C 
ENDBRANCH  16  19
ENDBRANCH  11  13
ENDBRANCH   9  11
ENDBRANCH   5   7
BRANCH   1  23
ATOM     23  C   UNL     1       5.766  -4.177  -0.043  0.00  0.00    +0.119 C 
BRANCH  23  27
ATOM     24  N   UNL     1       1.651  -4.999  -0.034  0.00  0.00    -0.174 NA
ATOM     25  C   UNL     1       2.370  -5.200  -1.302  0.00  0.00    +0.125 C 
ATOM     26  C   UNL     1       3.680  -4.408  -1.249  0.00  0.00    +0.102 C 
ATOM     27  N   UNL     1       4.429  -4.785  -0.044  0.00  0.00    -0.296 NA
ATOM     28  C   UNL     1       3.690  -4.432   1.176  0.00  0.00    +0.102 C 
ATOM     29  C   UNL     1       2.382  -5.220   1.223  0.00  0.00    +0.125 C 
BRANCH  24  30
ATOM     30  S   UNL     1       0.063  -4.530  -0.023  0.00  0.00    +0.061 S 
ATOM     31  O   UNL     1      -0.476  -4.950   1.223  0.00  0.00    -0.153 OA
ATOM     32  O   UNL     1      -0.490  -4.937  -1.267  0.00  0.00    -0.153 OA
BRANCH  30  37
ATOM     33  C   UNL     1      -0.018   1.503   0.010  0.00  0.00    +0.044 C 
ATOM     34  C   UNL     1       0.002  -0.004   0.002  0.00  0.00    -0.050 A 
ATOM     35  C   UNL     1       0.006  -0.689  -1.199  0.00  0.00    +0.005 A 
ATOM     36  C   UNL     1       0.025  -2.071  -1.206  0.00  0.00    +0.029 A 
ATOM     37  C   UNL     1       0.040  -2.768  -0.013  0.00  0.00    +0.105 A 
ATOM     38  C   UNL     1       0.037  -2.084   1.188  0.00  0.00    +0.029 A 
ATOM     39  C   UNL     1       0.023  -0.702   1.195  0.00  0.00    +0.005 A 
ENDBRANCH  30  37
ENDBRANCH  24  30
ENDBRANCH  23  27
ENDBRANCH   1  23
TORSDOF 8
