REMARK  Name = ZINC01987136
REMARK  5 active torsions:
REMARK  status: ('A' for Active; 'I' for Inactive)
REMARK    1  A    between atoms: C_1  and  C_2
REMARK    2  A    between atoms: C_5  and  C_22
REMARK    3  A    between atoms: C_6  and  C_8
REMARK    4  A    between atoms: N_15  and  C_18
REMARK    5  A    between atoms: C_18  and  C_19
REMARK                            x       y       z     vdW  Elec       q    Type
REMARK                         _______ _______ _______ _____ _____    ______ ____
ROOT
ATOM      1  C   UNL     1      -0.018   1.454   0.010  0.00  0.00    +0.004 A 
ATOM      2  C   UNL     1       1.161   2.121   0.002  0.00  0.00    +0.056 A 
ATOM      3  S   UNL     1       2.375   0.816  -0.016  0.00  0.00    -0.076 S 
ATOM      4  C   UNL     1       1.282  -0.582  -0.013  0.00  0.00    +0.116 A 
ATOM      5  C   UNL     1       0.002  -0.004   0.002  0.00  0.00    +0.080 A 
ATOM      6  C   UNL     1      -1.094  -0.925   0.007  0.00  0.00    +0.263 A 
ATOM      7  O   UNL     1      -2.243  -0.519   0.021  0.00  0.00    -0.267 OA
ATOM      8  N   UNL     1      -0.836  -2.246  -0.003  0.00  0.00    -0.290 N 
ATOM      9  C   UNL     1       0.438  -2.716  -0.018  0.00  0.00    +0.203 A 
ATOM     10  N   UNL     1       1.458  -1.901  -0.023  0.00  0.00    -0.230 NA
ENDROOT
BRANCH   1  16
ATOM     11  C   UNL     1      -3.249   4.533  -2.226  0.00  0.00    +0.044 C 
ATOM     12  C   UNL     1      -2.860   3.672  -1.052  0.00  0.00    -0.050 A 
ATOM     13  C   UNL     1      -3.704   3.570   0.039  0.00  0.00    +0.003 A 
ATOM     14  C   UNL     1      -3.354   2.781   1.120  0.00  0.00    +0.004 A 
ATOM     15  C   UNL     1      -2.159   2.092   1.116  0.00  0.00    -0.043 A 
ATOM     16  C   UNL     1      -1.303   2.192   0.020  0.00  0.00    -0.013 A 
ATOM     17  C   UNL     1      -1.659   2.992  -1.064  0.00  0.00    +0.012 A 
ATOM     18  C   UNL     1      -1.778   1.234   2.295  0.00  0.00    +0.044 C 
ENDBRANCH   1  16
BRANCH   8  19
ATOM     19  C   UNL     1      -1.952  -3.195   0.002  0.00  0.00    +0.221 C 
BRANCH  19  20
ATOM     20  C   UNL     1      -2.348  -3.513  -1.417  0.00  0.00    +0.230 C 
ATOM     21  O   UNL     1      -1.756  -2.997  -2.341  0.00  0.00    -0.274 OA
ATOM     22  N   UNL     1      -3.359  -4.370  -1.658  0.00  0.00    -0.328 N 
ATOM     23  H   UNL     1      -3.832  -4.783  -0.919  0.00  0.00    +0.145 HD
ATOM     24  H   UNL     1      -3.614  -4.574  -2.572  0.00  0.00    +0.145 HD
ENDBRANCH  19  20
ENDBRANCH   8  19
TORSDOF 3
