REMARK  Name = ZINC12748965
REMARK  10 active torsions:
REMARK  status: ('A' for Active; 'I' for Inactive)
REMARK    1  A    between atoms: C_1  and  C_2
REMARK    2  A    between atoms: C_5  and  C_37
REMARK    3  A    between atoms: C_6  and  N_8
REMARK    4  A    between atoms: C_14  and  C_19
REMARK    5  A    between atoms: N_21  and  C_22
REMARK    6  A    between atoms: C_22  and  C_23
REMARK    7  A    between atoms: C_23  and  C_25
REMARK    8  A    between atoms: C_23  and  N_68
REMARK    9  A    between atoms: C_30  and  O_31
REMARK   10  A    between atoms: O_31  and  C_32
REMARK                            x       y       z     vdW  Elec       q    Type
REMARK                         _______ _______ _______ _____ _____    ______ ____
ROOT
ATOM      1  C   UNL     1       4.130   5.657   2.839  0.00  0.00    +0.244 C 
ATOM      2  O   UNL     1       3.503   5.308   3.820  0.00  0.00    -0.270 OA
ATOM      3  N   UNL     1       3.754   5.237   1.614  0.00  0.00    -0.313 N 
ATOM      4  H   UNL     1       4.255   5.516   0.831  0.00  0.00    +0.149 HD
ENDROOT
BRANCH   1  11
ATOM      5  N   UNL     1       8.516   9.156   5.085  0.00  0.00    -0.202 N 
ATOM      6  C   UNL     1       8.611   9.071   3.746  0.00  0.00    +0.258 C 
ATOM      7  O   UNL     1       9.454   9.613   3.059  0.00  0.00    -0.269 OA
ATOM      8  C   UNL     1       7.518   8.206   3.250  0.00  0.00    +0.050 A 
ATOM      9  C   UNL     1       7.126   7.771   1.994  0.00  0.00    +0.014 A 
ATOM     10  C   UNL     1       6.028   6.938   1.863  0.00  0.00    +0.014 A 
ATOM     11  C   UNL     1       5.306   6.543   2.989  0.00  0.00    +0.037 A 
ATOM     12  C   UNL     1       5.694   6.977   4.260  0.00  0.00    +0.027 A 
ATOM     13  C   UNL     1       6.795   7.806   4.393  0.00  0.00    +0.050 A 
ATOM     14  C   UNL     1       7.473   8.440   5.543  0.00  0.00    +0.258 C 
ATOM     15  O   UNL     1       7.145   8.332   6.707  0.00  0.00    -0.269 OA
BRANCH   5  21
ATOM     16  C   UNL     1      12.631   9.381   7.768  0.00  0.00    +0.044 C 
ATOM     17  C   UNL     1      11.390  10.027   7.210  0.00  0.00    -0.049 A 
ATOM     18  C   UNL     1      11.111  11.351   7.498  0.00  0.00    +0.004 A 
ATOM     19  C   UNL     1       9.973  11.947   6.988  0.00  0.00    +0.005 A 
ATOM     20  C   UNL     1       9.114  11.224   6.183  0.00  0.00    -0.029 A 
ATOM     21  C   UNL     1       9.388   9.894   5.896  0.00  0.00    +0.048 A 
ATOM     22  C   UNL     1      10.532   9.297   6.411  0.00  0.00    +0.027 A 
ATOM     23  C   UNL     1       7.877  11.877   5.622  0.00  0.00    +0.045 C 
ENDBRANCH   5  21
ENDBRANCH   1  11
BRANCH   3  24
ATOM     24  C   UNL     1       2.590   4.360   1.466  0.00  0.00    +0.094 C 
BRANCH  24  25
ATOM     25  C   UNL     1       2.460   3.929   0.003  0.00  0.00    -0.017 C 
BRANCH  25  26
ATOM     26  C   UNL     1       3.648   3.084  -0.379  0.00  0.00    -0.018 A 
ATOM     27  C   UNL     1       4.742   3.665  -0.992  0.00  0.00    +0.005 A 
ATOM     28  C   UNL     1       5.832   2.891  -1.342  0.00  0.00    +0.000 A 
ATOM     29  C   UNL     1       5.828   1.532  -1.085  0.00  0.00    +0.004 A 
ATOM     30  C   UNL     1       4.740   0.947  -0.468  0.00  0.00    +0.046 A 
ATOM     31  C   UNL     1       3.645   1.722  -0.115  0.00  0.00    +0.122 A 
BRANCH  31  32
ATOM     32  O   UNL     1       2.571   1.148   0.488  0.00  0.00    -0.495 OA
ATOM     33  C   UNL     1       2.636  -0.259   0.728  0.00  0.00    +0.277 C 
ENDBRANCH  31  32
ENDBRANCH  25  26
BRANCH  25  38
ATOM     34  C   UNL     1       2.228   4.741  -2.280  0.00  0.00    -0.078 C 
ATOM     35  C   UNL     1       1.680   6.039  -2.925  0.00  0.00    -0.020 C 
ATOM     36  C   UNL     1       0.753   6.606  -1.826  0.00  0.00    -0.020 C 
ATOM     37  C   UNL     1       1.249   5.971  -0.514  0.00  0.00    -0.078 C 
ATOM     38  N   UNL     1       2.397   5.137  -0.873  0.00  0.00    +0.385 N 
ATOM     39  H   UNL     1       3.264   5.676  -0.767  0.00  0.00    -0.081 HD
ENDBRANCH  25  38
ENDBRANCH  24  25
ENDBRANCH   3  24
TORSDOF 7
