REMARK  Name = ZINC08790564
REMARK  4 active torsions:
REMARK  status: ('A' for Active; 'I' for Inactive)
REMARK    1  A    between atoms: C_16  and  C_18
REMARK    2  A    between atoms: C_18  and  C_19
REMARK    3  A    between atoms: N_24  and  C_27
REMARK    4  A    between atoms: C_27  and  C_28
REMARK                            x       y       z     vdW  Elec       q    Type
REMARK                         _______ _______ _______ _____ _____    ______ ____
ROOT
ATOM      1  C   UNL     1       2.389  -4.877  -0.579  0.00  0.00    +0.002 A 
ATOM      2  C   UNL     1       2.572  -3.509  -0.478  0.00  0.00    +0.004 A 
ATOM      3  C   UNL     1       1.801  -2.652  -1.230  0.00  0.00    -0.026 A 
ATOM      4  C   UNL     1       0.831  -3.147  -2.098  0.00  0.00    +0.054 A 
ATOM      5  C   UNL     1       0.653  -4.526  -2.194  0.00  0.00    +0.062 A 
ATOM      6  C   UNL     1       1.429  -5.381  -1.438  0.00  0.00    +0.022 A 
ATOM      7 CL   UNL     1      -0.549  -5.169  -3.269  0.00  0.00    -0.082 Cl
ATOM      8  N   UNL     1       0.181  -2.094  -2.746  0.00  0.00    -0.285 N 
ATOM      9  C   UNL     1       0.655  -0.893  -2.365  0.00  0.00    +0.211 C 
ATOM     10  O   UNL     1       0.279   0.192  -2.758  0.00  0.00    -0.277 OA
ATOM     11  C   UNL     1       1.741  -1.157  -1.358  0.00  0.00    +0.050 C 
ATOM     12  C   UNL     1       1.435  -0.487  -0.014  0.00  0.00    +0.088 C 
ATOM     13  C   UNL     1       2.257   0.831  -0.018  0.00  0.00    +0.073 C 
ATOM     14  C   UNL     1       2.983   0.840  -1.381  0.00  0.00    -0.049 C 
ATOM     15  C   UNL     1       1.194   1.905   0.001  0.00  0.00    +0.224 C 
ATOM     16  O   UNL     1       1.404   3.099   0.007  0.00  0.00    -0.275 OA
ATOM     17  N   UNL     1      -0.016   1.334   0.009  0.00  0.00    -0.237 N 
ATOM     18  C   UNL     1       0.002  -0.004   0.002  0.00  0.00    +0.225 C 
ATOM     19  O   UNL     1      -0.978  -0.718   0.007  0.00  0.00    -0.275 OA
ATOM     20  H   UNL     1      -0.530  -2.215  -3.394  0.00  0.00    +0.155 HD
ATOM     21  N   UNL     1       3.027  -0.573  -1.766  0.00  0.00    +0.394 N 
ATOM     22  H   UNL     1       3.151  -0.660  -2.781  0.00  0.00    -0.083 HD
ATOM     23  H   UNL     1       3.801  -1.048  -1.285  0.00  0.00    -0.083 HD
ENDROOT
BRANCH  14  24
ATOM     24  C   UNL     1       4.389   1.423  -1.231  0.00  0.00    +0.080 C 
BRANCH  24  25
ATOM     25  C   UNL     1       5.033   1.536  -2.589  0.00  0.00    +0.209 C 
ATOM     26  O   UNL     1       4.426   1.185  -3.579  0.00  0.00    -0.276 OA
ATOM     27  N   UNL     1       6.283   2.027  -2.704  0.00  0.00    -0.329 N 
ATOM     28  H   UNL     1       6.768   2.308  -1.913  0.00  0.00    +0.145 HD
ATOM     29  H   UNL     1       6.697   2.100  -3.578  0.00  0.00    +0.145 HD
ENDBRANCH  24  25
ENDBRANCH  14  24
BRANCH  17  30
ATOM     30  C   UNL     1      -1.259   2.109   0.020  0.00  0.00    +0.151 C 
BRANCH  30  31
ATOM     31  C   UNL     1      -1.678   2.368   1.444  0.00  0.00    -0.026 A 
ATOM     32  C   UNL     1      -1.236   3.502   2.098  0.00  0.00    +0.009 A 
ATOM     33  C   UNL     1      -1.618   3.744   3.405  0.00  0.00    +0.050 A 
ATOM     34  C   UNL     1      -2.446   2.848   4.062  0.00  0.00    +0.166 A 
ATOM     35  C   UNL     1      -2.891   1.704   3.403  0.00  0.00    +0.167 A 
ATOM     36  C   UNL     1      -2.509   1.472   2.091  0.00  0.00    +0.054 A 
ATOM     37  O   UNL     1      -3.684   0.991   4.254  0.00  0.00    -0.453 OA
ATOM     38  C   UNL     1      -4.051   1.911   5.300  0.00  0.00    +0.466 C 
ATOM     39  O   UNL     1      -2.960   2.851   5.326  0.00  0.00    -0.453 OA
ENDBRANCH  30  31
ENDBRANCH  17  30
TORSDOF 4
