REMARK  Name = ZINC39358632
REMARK  2 active torsions:
REMARK  status: ('A' for Active; 'I' for Inactive)
REMARK    1  A    between atoms: C_6  and  C_7
REMARK    2  A    between atoms: C_10  and  O_23
REMARK                            x       y       z     vdW  Elec       q    Type
REMARK                         _______ _______ _______ _____ _____    ______ ____
ROOT
ATOM      1  C   UNL     1      -1.293  -0.775   0.011  0.00  0.00    +0.089 C 
ATOM      2  C   UNL     1      -1.347  -1.670   1.212  0.00  0.00    +0.048 C 
ATOM      3  C   UNL     1      -1.942  -1.608   2.383  0.00  0.00    +0.235 C 
ATOM      4  N   UNL     1      -1.760  -2.772   3.065  0.00  0.00    -0.114 NA
ATOM      5  N   UNL     1      -1.056  -3.604   2.479  0.00  0.00    -0.157 NA
ATOM      6  C   UNL     1      -0.600  -3.007   1.222  0.00  0.00    +0.245 C 
ATOM      7  N   UNL     1      -1.112  -3.707   0.042  0.00  0.00    -0.321 N 
ATOM      8  C   UNL     1      -1.282  -3.016  -1.132  0.00  0.00    +0.013 C 
ATOM      9  C   UNL     1      -1.372  -1.670  -1.217  0.00  0.00    +0.023 C 
ATOM     10  C   UNL     1      -1.542  -1.022  -2.452  0.00  0.00    +0.162 C 
ATOM     11  O   UNL     1      -1.629   0.190  -2.480  0.00  0.00    -0.292 OA
ATOM     12  C   UNL     1      -1.618  -1.794  -3.740  0.00  0.00    +0.080 C 
ATOM     13  C   UNL     1      -0.818  -3.092  -3.581  0.00  0.00    +0.014 C 
ATOM     14  C   UNL     1      -1.383  -3.865  -2.384  0.00  0.00    +0.051 C 
ATOM     15  H   UNL     1      -1.329  -4.651   0.089  0.00  0.00    +0.148 HD
ENDROOT
BRANCH   1  21
ATOM     16  C   UNL     1      -0.017   1.378   0.010  0.00  0.00    +0.006 A 
ATOM     17  C   UNL     1       1.171   2.086   0.002  0.00  0.00    +0.022 A 
ATOM     18  C   UNL     1       2.378   1.412  -0.013  0.00  0.00    +0.059 A 
ATOM     19  C   UNL     1       2.397   0.027  -0.021  0.00  0.00    +0.060 A 
ATOM     20  C   UNL     1       1.208  -0.680  -0.013  0.00  0.00    +0.026 A 
ATOM     21  C   UNL     1       0.002  -0.004   0.002  0.00  0.00    -0.034 A 
ATOM     22 CL   UNL     1       3.912  -0.821  -0.040  0.00  0.00    -0.082 Cl
ATOM     23 CL   UNL     1       3.869   2.301  -0.023  0.00  0.00    -0.082 Cl
ENDBRANCH   1  21
BRANCH   3  24
ATOM     24  O   UNL     1      -2.638  -0.536   2.845  0.00  0.00    -0.491 OA
ATOM     25  H   UNL     1      -3.011  -0.660   3.729  0.00  0.00    +0.294 HD
ENDBRANCH   3  24
TORSDOF 2
