REMARK  Name = ZINC35807991
REMARK  10 active torsions:
REMARK  status: ('A' for Active; 'I' for Inactive)
REMARK    1  A    between atoms: C_1  and  C_2
REMARK    2  A    between atoms: C_5  and  C_8
REMARK    3  A    between atoms: C_8  and  N_9
REMARK    4  A    between atoms: N_9  and  C_10
REMARK    5  A    between atoms: N_9  and  C_18
REMARK    6  A    between atoms: C_10  and  C_11
REMARK    7  A    between atoms: C_18  and  C_19
REMARK    8  A    between atoms: C_21  and  C_24
REMARK    9  A    between atoms: C_29  and  C_32
REMARK   10  A    between atoms: C_32  and  C_33
REMARK                            x       y       z     vdW  Elec       q    Type
REMARK                         _______ _______ _______ _____ _____    ______ ____
ROOT
ATOM      1  C   UNL     1       3.276  -6.485   0.126  0.00  0.00    +0.063 A 
ATOM      2  N   UNL     1       4.023  -6.775   1.156  0.00  0.00    -0.241 NA
ATOM      3  C   UNL     1       5.238  -7.288   0.936  0.00  0.00    +0.133 A 
ATOM      4  C   UNL     1       5.588  -7.464  -0.376  0.00  0.00    +0.079 A 
ATOM      5  S   UNL     1       4.223  -6.918  -1.191  0.00  0.00    -0.082 S 
ENDROOT
BRANCH   3   6
ATOM      6  C   UNL     1       6.146  -7.643   2.039  0.00  0.00    +0.265 C 
ATOM      7  O   UNL     1       7.295  -7.964   1.802  0.00  0.00    -0.268 OA
ATOM      8  N   UNL     1       5.705  -7.612   3.312  0.00  0.00    -0.296 N 
ATOM      9  C   UNL     1       4.282  -7.390   3.606  0.00  0.00    +0.108 C 
ATOM     10  C   UNL     1       3.783  -8.521   4.510  0.00  0.00    +0.023 C 
ATOM     11  C   UNL     1       4.674  -8.609   5.750  0.00  0.00    -0.004 C 
ATOM     12  C   UNL     1       6.110  -8.928   5.327  0.00  0.00    +0.023 C 
ATOM     13  C   UNL     1       6.635  -7.807   4.432  0.00  0.00    +0.108 C 
BRANCH  11  14
ATOM     14  C   UNL     1       4.157  -9.716   6.672  0.00  0.00    +0.038 C 
BRANCH  14  15
ATOM     15  C   UNL     1       4.959  -9.722   7.948  0.00  0.00    -0.047 A 
ATOM     16  C   UNL     1       6.104 -10.490   8.042  0.00  0.00    +0.003 A 
ATOM     17  C   UNL     1       6.839 -10.496   9.212  0.00  0.00    +0.000 A 
ATOM     18  C   UNL     1       6.429  -9.732  10.289  0.00  0.00    +0.000 A 
ATOM     19  C   UNL     1       5.285  -8.963  10.196  0.00  0.00    +0.000 A 
ATOM     20  C   UNL     1       4.552  -8.954   9.024  0.00  0.00    +0.003 A 
ENDBRANCH  14  15
ENDBRANCH  11  14
ENDBRANCH   3   6
BRANCH   1  21
ATOM     21  C   UNL     1       1.886  -5.904   0.120  0.00  0.00    -0.014 C 
BRANCH  21  22
ATOM     22  N   UNL     1       1.968  -4.438   0.083  0.00  0.00    +0.389 N 
ATOM     23  H   UNL     1       2.537  -4.113   0.851  0.00  0.00    -0.080 HD
BRANCH  22  24
ATOM     24  C   UNL     1       0.619  -3.868   0.198  0.00  0.00    -0.042 C 
BRANCH  24  29
ATOM     25  C   UNL     1      -1.552  -5.086   5.413  0.00  0.00    +0.044 C 
ATOM     26  C   UNL     1      -0.985  -4.769   4.053  0.00  0.00    -0.050 A 
ATOM     27  C   UNL     1      -0.166  -3.668   3.885  0.00  0.00    +0.003 A 
ATOM     28  C   UNL     1       0.353  -3.377   2.638  0.00  0.00    +0.002 A 
ATOM     29  C   UNL     1       0.054  -4.186   1.558  0.00  0.00    -0.064 A 
ATOM     30  C   UNL     1      -0.765  -5.287   1.726  0.00  0.00    +0.002 A 
ATOM     31  C   UNL     1      -1.281  -5.581   2.974  0.00  0.00    +0.003 A 
ENDBRANCH  24  29
ENDBRANCH  22  24
BRANCH  22  32
ATOM     32  C   UNL     1       2.572  -4.013  -1.187  0.00  0.00    -0.042 C 
BRANCH  32  33
ATOM     33  C   UNL     1       2.786  -2.522  -1.168  0.00  0.00    -0.064 A 
ATOM     34  C   UNL     1       1.839  -1.681  -1.724  0.00  0.00    +0.004 A 
ATOM     35  C   UNL     1       2.034  -0.313  -1.706  0.00  0.00    +0.038 A 
ATOM     36  C   UNL     1       3.178   0.216  -1.132  0.00  0.00    +0.123 A 
ATOM     37  C   UNL     1       4.125  -0.627  -0.576  0.00  0.00    +0.038 A 
ATOM     38  C   UNL     1       3.926  -1.995  -0.590  0.00  0.00    +0.004 A 
ATOM     39  F   UNL     1       3.369   1.553  -1.115  0.00  0.00    -0.205 F 
ENDBRANCH  32  33
ENDBRANCH  22  32
ENDBRANCH  21  22
ENDBRANCH   1  21
TORSDOF 9
