REMARK  Name = ZINC54946104
REMARK  10 active torsions:
REMARK  status: ('A' for Active; 'I' for Inactive)
REMARK    1  A    between atoms: C_1  and  C_2
REMARK    2  A    between atoms: C_5  and  C_31
REMARK    3  A    between atoms: N_8  and  C_10
REMARK    4  A    between atoms: C_10  and  C_11
REMARK    5  A    between atoms: C_10  and  C_12
REMARK    6  A    between atoms: C_10  and  C_13
REMARK    7  A    between atoms: C_13  and  N_14
REMARK    8  A    between atoms: C_15  and  C_17
REMARK    9  A    between atoms: N_19  and  C_20
REMARK   10  A    between atoms: C_25  and  N_26
REMARK                            x       y       z     vdW  Elec       q    Type
REMARK                         _______ _______ _______ _____ _____    ______ ____
ROOT
ATOM      1  N   UNL     1       2.003   1.661   3.438  0.00  0.00    -0.309 N 
ATOM      2  C   UNL     1       1.533   2.461   4.416  0.00  0.00    +0.299 C 
ATOM      3  O   UNL     1       1.229   1.989   5.492  0.00  0.00    -0.265 OA
ATOM      4  H   UNL     1       2.246   2.038   2.578  0.00  0.00    +0.149 HD
ENDROOT
BRANCH   2   5
ATOM      5  C   UNL     1       1.387   3.927   4.176  0.00  0.00    +0.303 C 
ATOM      6  O   UNL     1       1.691   4.399   3.099  0.00  0.00    -0.265 OA
ATOM      7  N   UNL     1       0.917   4.727   5.154  0.00  0.00    -0.276 N 
ATOM      8  H   UNL     1       0.601   4.341   5.986  0.00  0.00    +0.155 HD
BRANCH   7   9
ATOM      9  C   UNL     1       0.885   6.112   4.969  0.00  0.00    +0.059 A 
ATOM     10  C   UNL     1       1.765   6.716   4.081  0.00  0.00    +0.025 A 
ATOM     11  C   UNL     1       1.732   8.085   3.901  0.00  0.00    +0.002 A 
ATOM     12  C   UNL     1       0.824   8.858   4.603  0.00  0.00    +0.002 A 
ATOM     13  C   UNL     1      -0.055   8.265   5.489  0.00  0.00    +0.029 A 
ATOM     14  C   UNL     1      -0.034   6.891   5.672  0.00  0.00    +0.086 A 
BRANCH  14  15
ATOM     15  N   UNL     1      -0.929   6.286   6.566  0.00  0.00    -0.238 N 
ATOM     16  C   UNL     1      -1.930   6.906   7.231  0.00  0.00    +0.114 A 
ATOM     17  C   UNL     1      -2.559   5.977   7.988  0.00  0.00    +0.041 A 
ATOM     18  C   UNL     1      -1.923   4.749   7.779  0.00  0.00    +0.135 A 
ATOM     19  N   UNL     1      -0.950   4.932   6.923  0.00  0.00    -0.175 NA
ENDBRANCH  14  15
ENDBRANCH   7   9
ENDBRANCH   2   5
BRANCH   1  20
ATOM     20  C   UNL     1       2.146   0.222   3.674  0.00  0.00    +0.092 C 
BRANCH  20  21
ATOM     21  C   UNL     1       2.808  -0.430   2.458  0.00  0.00    -0.055 C 
ATOM     22  C   UNL     1       2.861  -1.946   2.659  0.00  0.00    -0.008 C 
ATOM     23  C   UNL     1       4.229   0.113   2.299  0.00  0.00    -0.008 C 
BRANCH  21  29
ATOM     24  C   UNL     1      -0.287   1.178   0.083  0.00  0.00    +0.005 C 
ATOM     25  C   UNL     1      -0.149  -0.344   0.149  0.00  0.00    -0.031 C 
ATOM     26  C   UNL     1       0.537  -0.852  -1.123  0.00  0.00    +0.003 C 
ATOM     27  C   UNL     1       1.953  -0.272  -1.192  0.00  0.00    -0.031 C 
ATOM     28  C   UNL     1       2.720  -0.659   0.074  0.00  0.00    -0.075 C 
ATOM     29  N   UNL     1       2.028  -0.123   1.252  0.00  0.00    +0.384 N 
ATOM     30  C   UNL     1       0.695  -0.729   1.366  0.00  0.00    -0.075 C 
ATOM     31  C   UNL     1       2.675  -0.833  -2.419  0.00  0.00    +0.005 C 
ATOM     32  H   UNL     1       1.934   0.877   1.160  0.00  0.00    -0.081 HD
ENDBRANCH  21  29
ENDBRANCH  20  21
ENDBRANCH   1  20
TORSDOF 6
