REMARK  Name = ZINC04309556
REMARK  4 active torsions:
REMARK  status: ('A' for Active; 'I' for Inactive)
REMARK    1  A    between atoms: C_1  and  O_2
REMARK    2  A    between atoms: O_2  and  C_3
REMARK    3  A    between atoms: C_5  and  N_27
REMARK    4  A    between atoms: C_10  and  C_19
REMARK                            x       y       z     vdW  Elec       q    Type
REMARK                         _______ _______ _______ _____ _____    ______ ____
ROOT
ATOM      1  C   UNL     1       0.296  -0.306  -3.785  0.00  0.00    +0.143 A 
ATOM      2  C   UNL     1       0.404  -1.678  -3.924  0.00  0.00    +0.080 A 
ATOM      3  C   UNL     1       0.383  -2.484  -2.800  0.00  0.00    +0.130 A 
ATOM      4  C   UNL     1       0.253  -1.921  -1.548  0.00  0.00    +0.039 A 
ATOM      5  C   UNL     1       0.142  -0.543  -1.397  0.00  0.00    -0.014 A 
ATOM      6  C   UNL     1       0.166   0.265  -2.515  0.00  0.00    +0.074 A 
ATOM      7  N   UNL     1       0.066   1.657  -2.430  0.00  0.00    -0.334 N 
ATOM      8  C   UNL     1      -0.673   2.071  -1.254  0.00  0.00    +0.106 C 
ATOM      9  C   UNL     1      -0.019   1.538   0.011  0.00  0.00    +0.029 C 
ATOM     10  C   UNL     1       0.002  -0.004   0.002  0.00  0.00    +0.049 C 
ATOM     11  C   UNL     1       1.264  -0.339   0.781  0.00  0.00    -0.023 C 
ATOM     12  C   UNL     1       2.089   0.678   0.778  0.00  0.00    -0.030 C 
ATOM     13  C   UNL     1       1.500   1.838  -0.002  0.00  0.00    +0.033 C 
ATOM     14  H   UNL     1      -0.339   2.043  -3.270  0.00  0.00    +0.147 HD
ENDROOT
BRANCH   8  15
ATOM     15  C   UNL     1      -0.725   3.576  -1.194  0.00  0.00    -0.007 A 
ATOM     16  C   UNL     1       0.218   4.327  -1.871  0.00  0.00    +0.007 A 
ATOM     17  C   UNL     1       0.168   5.708  -1.821  0.00  0.00    +0.002 A 
ATOM     18  C   UNL     1      -0.819   6.338  -1.086  0.00  0.00    +0.021 A 
ATOM     19  C   UNL     1      -1.759   5.588  -0.404  0.00  0.00    +0.060 A 
ATOM     20  C   UNL     1      -1.712   4.205  -0.459  0.00  0.00    +0.064 A 
ATOM     21 CL   UNL     1      -2.892   3.262   0.397  0.00  0.00    -0.082 Cl
ATOM     22 CL   UNL     1      -2.999   6.380   0.518  0.00  0.00    -0.082 Cl
ENDBRANCH   8  15
BRANCH   3  23
ATOM     23  N   UNL     1       0.499  -3.952  -2.942  0.00  0.00    +0.057 N 
ATOM     24  O   UNL     1       0.480  -4.663  -1.953  0.00  0.00    -0.126 OA
ATOM     25  O   UNL     1       0.614  -4.450  -4.048  0.00  0.00    -0.126 OA
ENDBRANCH   3  23
BRANCH   1  27
ATOM     26  C   UNL     1       0.452  -0.158  -6.154  0.00  0.00    +0.277 C 
ATOM     27  O   UNL     1       0.317   0.490  -4.888  0.00  0.00    -0.493 OA
ENDBRANCH   1  27
TORSDOF 3
