REMARK  Name = ZINC33033782
REMARK  10 active torsions:
REMARK  status: ('A' for Active; 'I' for Inactive)
REMARK    1  A    between atoms: C_1  and  C_2
REMARK    2  A    between atoms: C_5  and  S_9
REMARK    3  A    between atoms: C_6  and  C_8
REMARK    4  A    between atoms: S_9  and  N_12
REMARK    5  A    between atoms: N_12  and  C_13
REMARK    6  A    between atoms: C_15  and  C_25
REMARK    7  A    between atoms: C_18  and  N_19
REMARK    8  A    between atoms: N_27  and  C_28
REMARK    9  A    between atoms: C_28  and  C_29
REMARK   10  A    between atoms: C_28  and  C_30
REMARK                            x       y       z     vdW  Elec       q    Type
REMARK                         _______ _______ _______ _____ _____    ______ ____
ROOT
ATOM      1  C   UNL     1       3.740   2.702  -2.058  0.00  0.00    +0.070 A 
ATOM      2  C   UNL     1       4.208   3.557  -1.080  0.00  0.00    +0.039 A 
ATOM      3  C   UNL     1       4.861   4.739  -1.443  0.00  0.00    +0.039 A 
ATOM      4  C   UNL     1       5.037   5.051  -2.793  0.00  0.00    +0.015 A 
ATOM      5  C   UNL     1       4.569   4.195  -3.766  0.00  0.00    +0.026 A 
ATOM      6  C   UNL     1       3.925   3.017  -3.407  0.00  0.00    +0.052 A 
ENDROOT
BRANCH   6   7
ATOM      7  N   UNL     1       3.458   2.151  -4.394  0.00  0.00    -0.332 N 
ATOM      8  C   UNL     1       3.522   2.781  -5.721  0.00  0.00    +0.086 C 
ATOM      9  C   UNL     1       2.928   1.830  -6.763  0.00  0.00    -0.063 C 
ATOM     10  N   UNL     1       3.673   0.564  -6.748  0.00  0.00    +0.381 N 
ATOM     11  C   UNL     1       3.609  -0.066  -5.422  0.00  0.00    -0.063 C 
ATOM     12  C   UNL     1       4.203   0.884  -4.380  0.00  0.00    +0.086 C 
ATOM     13  H   UNL     1       3.240  -0.125  -7.488  0.00  0.00    -0.086 HD
ATOM     14  H   UNL     1       4.727   0.756  -6.998  0.00  0.00    -0.086 HD
ENDBRANCH   6   7
BRANCH   3  15
ATOM     15  C   UNL     1       5.363   5.655  -0.401  0.00  0.00    +0.244 C 
ATOM     16  O   UNL     1       5.210   5.383   0.774  0.00  0.00    -0.270 OA
ATOM     17  N   UNL     1       5.992   6.794  -0.752  0.00  0.00    -0.309 N 
ATOM     18  H   UNL     1       6.131   7.041  -1.815  0.00  0.00    +0.149 HD
BRANCH  17  19
ATOM     19  C   UNL     1       6.491   7.704   0.282  0.00  0.00    +0.067 C 
ATOM     20  C   UNL     1       7.880   7.250   0.734  0.00  0.00    +0.027 C 
ATOM     21  C   UNL     1       6.579   9.123  -0.286  0.00  0.00    +0.027 C 
ENDBRANCH  17  19
ENDBRANCH   3  15
BRANCH   1  22
ATOM     22  N   UNL     1       3.085   1.517  -1.699  0.00  0.00    -0.214 N 
ATOM     23  H   UNL     1       2.292   1.109  -2.343  0.00  0.00    +0.174 HD
BRANCH  22  24
ATOM     24  S   UNL     1       3.506   0.729  -0.304  0.00  0.00    +0.073 S 
ATOM     25  O   UNL     1       4.925   0.679  -0.278  0.00  0.00    -0.150 OA
ATOM     26  O   UNL     1       2.701  -0.440  -0.240  0.00  0.00    -0.150 OA
BRANCH  24  31
ATOM     27  C   UNL     1       1.819   4.239   4.305  0.00  0.00    +0.044 C 
ATOM     28  C   UNL     1       2.240   3.363   3.154  0.00  0.00    -0.050 A 
ATOM     29  C   UNL     1       3.579   3.085   2.950  0.00  0.00    +0.005 A 
ATOM     30  C   UNL     1       3.966   2.285   1.891  0.00  0.00    +0.029 A 
ATOM     31  C   UNL     1       3.013   1.755   1.042  0.00  0.00    +0.111 A 
ATOM     32  C   UNL     1       1.674   2.029   1.248  0.00  0.00    -0.024 A 
ATOM     33  C   UNL     1       1.288   2.833   2.304  0.00  0.00    +0.008 A 
ATOM     34  C   UNL     1       0.635   1.451   0.321  0.00  0.00    +0.046 C 
ENDBRANCH  24  31
ENDBRANCH  22  24
ENDBRANCH   1  22
TORSDOF 6
