REMARK  Name = ZINC09103862
REMARK  6 active torsions:
REMARK  status: ('A' for Active; 'I' for Inactive)
REMARK    1  A    between atoms: C_1  and  C_2
REMARK    2  A    between atoms: C_5  and  N_12
REMARK    3  A    between atoms: C_8  and  C_10
REMARK    4  A    between atoms: C_8  and  C_11
REMARK    5  A    between atoms: C_13  and  C_15
REMARK    6  A    between atoms: C_26  and  C_28
REMARK                            x       y       z     vdW  Elec       q    Type
REMARK                         _______ _______ _______ _____ _____    ______ ____
ROOT
ATOM      1  C   UNL     1       0.982   5.205   2.588  0.00  0.00    +0.124 C 
ATOM      2  C   UNL     1       1.982   5.684   3.641  0.00  0.00    +0.019 C 
ATOM      3  C   UNL     1       1.792   7.181   3.906  0.00  0.00    +0.006 C 
ATOM      4  C   UNL     1       0.460   7.389   4.644  0.00  0.00    +0.044 C 
ATOM      5  C   UNL     1      -0.593   6.602   3.939  0.00  0.00    +0.015 A 
ATOM      6  C   UNL     1      -0.421   5.621   3.015  0.00  0.00    +0.066 A 
ATOM      7  N   UNL     1      -1.534   5.073   2.533  0.00  0.00    -0.229 NA
ATOM      8  C   UNL     1      -2.731   5.456   2.925  0.00  0.00    +0.165 A 
ATOM      9  S   UNL     1      -2.357   6.700   4.080  0.00  0.00    -0.057 S 
ATOM     10  N   UNL     1      -3.974   4.986   2.519  0.00  0.00    -0.261 N 
ATOM     11  C   UNL     1      -5.098   5.513   3.045  0.00  0.00    +0.250 C 
ATOM     12  O   UNL     1      -5.024   6.399   3.874  0.00  0.00    -0.270 OA
ATOM     13  H   UNL     1      -4.033   4.279   1.858  0.00  0.00    +0.157 HD
ENDROOT
BRANCH  11  14
ATOM     14  C   UNL     1      -6.418   5.014   2.615  0.00  0.00    +0.041 A 
ATOM     15  C   UNL     1      -6.505   3.996   1.662  0.00  0.00    +0.017 A 
ATOM     16  C   UNL     1      -7.739   3.531   1.261  0.00  0.00    +0.050 A 
ATOM     17  C   UNL     1      -8.899   4.072   1.801  0.00  0.00    +0.166 A 
ATOM     18  C   UNL     1      -8.818   5.090   2.753  0.00  0.00    +0.167 A 
ATOM     19  C   UNL     1      -7.584   5.555   3.163  0.00  0.00    +0.062 A 
ATOM     20  O   UNL     1     -10.085   5.444   3.119  0.00  0.00    -0.453 OA
ATOM     21  C   UNL     1     -10.926   4.357   2.690  0.00  0.00    +0.466 C 
ATOM     22  O   UNL     1     -10.214   3.792   1.574  0.00  0.00    -0.453 OA
ENDBRANCH  11  14
BRANCH   1  24
ATOM     23  N   UNL     1      -0.037   3.008   2.085  0.00  0.00    -0.312 N 
ATOM     24  C   UNL     1       1.051   3.704   2.471  0.00  0.00    +0.222 C 
ATOM     25  O   UNL     1       2.084   3.123   2.725  0.00  0.00    -0.275 OA
ATOM     26  H   UNL     1      -0.855   3.475   1.853  0.00  0.00    +0.149 HD
BRANCH  23  30
ATOM     27  C   UNL     1      -3.762   0.915   1.625  0.00  0.00    +0.007 C 
ATOM     28  C   UNL     1      -2.469   1.444   2.250  0.00  0.00    -0.012 C 
ATOM     29  C   UNL     1      -1.276   1.017   1.391  0.00  0.00    +0.025 C 
ATOM     30  C   UNL     1       0.017   1.546   2.015  0.00  0.00    +0.074 C 
ATOM     31  C   UNL     1       0.173   0.973   3.425  0.00  0.00    +0.028 C 
ATOM     32  C   UNL     1      -1.019   1.399   4.284  0.00  0.00    -0.033 C 
ATOM     33  C   UNL     1      -2.312   0.871   3.660  0.00  0.00    +0.009 C 
ATOM     34  C   UNL     1      -1.075   2.926   4.357  0.00  0.00    +0.011 C 
ATOM     35  C   UNL     1      -0.862   0.826   5.694  0.00  0.00    +0.011 C 
ENDBRANCH  23  30
ENDBRANCH   1  24
TORSDOF 3
