REMARK  Name = ZINC34932027
REMARK  8 active torsions:
REMARK  status: ('A' for Active; 'I' for Inactive)
REMARK    1  A    between atoms: C_1  and  C_2
REMARK    2  A    between atoms: C_4  and  C_35
REMARK    3  A    between atoms: C_10  and  C_14
REMARK    4  A    between atoms: C_11  and  C_13
REMARK    5  A    between atoms: C_16  and  C_28
REMARK    6  A    between atoms: C_18  and  C_23
REMARK    7  A    between atoms: C_18  and  O_27
REMARK    8  A    between atoms: C_28  and  C_30
REMARK                            x       y       z     vdW  Elec       q    Type
REMARK                         _______ _______ _______ _____ _____    ______ ____
ROOT
ATOM      1  C   UNL     1       0.062  -2.947   6.001  0.00  0.00    +0.123 C 
ATOM      2  C   UNL     1      -1.356  -3.162   6.541  0.00  0.00    +0.145 C 
ATOM      3  C   UNL     1      -1.354  -2.875   8.046  0.00  0.00    +0.243 C 
ATOM      4  N   UNL     1      -0.833  -1.527   8.277  0.00  0.00    -0.264 N 
ATOM      5  C   UNL     1       0.053  -0.968   7.439  0.00  0.00    +0.302 C 
ATOM      6  O   UNL     1       0.463   0.150   7.683  0.00  0.00    -0.253 OA
ATOM      7  N   UNL     1       0.508  -1.596   6.343  0.00  0.00    -0.292 N 
ATOM      8  H   UNL     1      -1.134  -1.027   9.052  0.00  0.00    +0.153 HD
ATOM      9  H   UNL     1       1.143  -1.144   5.766  0.00  0.00    +0.151 HD
ENDROOT
BRANCH   1  19
ATOM     10  C   UNL     1      -0.018   1.503   0.010  0.00  0.00    +0.066 C 
ATOM     11  C   UNL     1       0.002  -0.004   0.002  0.00  0.00    +0.044 A 
ATOM     12  C   UNL     1       0.006  -0.699  -1.197  0.00  0.00    +0.046 A 
ATOM     13  C   UNL     1       0.025  -2.085  -1.159  0.00  0.00    +0.044 A 
ATOM     14  N   UNL     1       0.039  -2.697   0.013  0.00  0.00    -0.216 NA
ATOM     15  C   UNL     1       0.035  -2.003   1.140  0.00  0.00    +0.252 A 
ATOM     16  N   UNL     1       0.022  -0.680   1.139  0.00  0.00    -0.216 NA
ATOM     17  N   UNL     1       0.049  -2.683   2.358  0.00  0.00    -0.205 N 
ATOM     18  C   UNL     1       0.042  -2.114   3.592  0.00  0.00    +0.123 A 
ATOM     19  C   UNL     1       0.061  -3.113   4.503  0.00  0.00    +0.015 A 
ATOM     20  C   UNL     1       0.081  -4.329   3.810  0.00  0.00    +0.065 A 
ATOM     21  N   UNL     1       0.069  -4.073   2.527  0.00  0.00    -0.169 NA
ATOM     22  C   UNL     1       0.107  -5.700   4.435  0.00  0.00    +0.068 C 
ATOM     23  C   UNL     1       0.029  -2.883  -2.437  0.00  0.00    +0.066 C 
ENDBRANCH   1  19
BRANCH   3  24
ATOM     24  C   UNL     1      -2.782  -2.971   8.587  0.00  0.00    +0.436 C 
ATOM     25  F   UNL     1      -3.282  -4.258   8.359  0.00  0.00    -0.166 F 
ATOM     26  F   UNL     1      -2.779  -2.709   9.961  0.00  0.00    -0.166 F 
ATOM     27  F   UNL     1      -3.591  -2.034   7.935  0.00  0.00    -0.166 F 
ENDBRANCH   3  24
BRANCH   3  28
ATOM     28  O   UNL     1      -0.524  -3.829   8.713  0.00  0.00    -0.364 OA
ATOM     29  H   UNL     1      -0.476  -3.707   9.671  0.00  0.00    +0.212 HD
ENDBRANCH   3  28
BRANCH   2  30
ATOM     30  C   UNL     1      -2.310  -2.226   5.845  0.00  0.00    +0.179 C 
ATOM     31  O   UNL     1      -1.900  -1.188   5.364  0.00  0.00    -0.291 OA
BRANCH  30  32
ATOM     32  C   UNL     1      -3.680  -2.554   5.751  0.00  0.00    +0.055 A 
ATOM     33  C   UNL     1      -4.715  -1.841   5.153  0.00  0.00    +0.019 A 
ATOM     34  C   UNL     1      -5.955  -2.422   5.224  0.00  0.00    +0.008 A 
ATOM     35  C   UNL     1      -6.091  -3.618   5.853  0.00  0.00    +0.046 A 
ATOM     36  S   UNL     1      -4.535  -3.995   6.361  0.00  0.00    -0.094 S 
ENDBRANCH  30  32
ENDBRANCH   2  30
TORSDOF 5
