REMARK  Name = ZINC00976090
REMARK  7 active torsions:
REMARK  status: ('A' for Active; 'I' for Inactive)
REMARK    1  A    between atoms: C_1  and  C_2
REMARK    2  A    between atoms: C_2  and  C_3
REMARK    3  A    between atoms: C_9  and  C_29
REMARK    4  A    between atoms: C_15  and  C_17
REMARK    5  A    between atoms: C_25  and  C_27
REMARK    6  A    between atoms: C_25  and  C_28
REMARK    7  A    between atoms: C_29  and  C_31
REMARK                            x       y       z     vdW  Elec       q    Type
REMARK                         _______ _______ _______ _____ _____    ______ ____
ROOT
ATOM      1  C   UNL     1       3.413   1.406   0.824  0.00  0.00    +0.220 C 
ATOM      2  O   UNL     1       3.298   0.205   0.698  0.00  0.00    -0.275 OA
ATOM      3  N   UNL     1       2.716   2.238   0.025  0.00  0.00    -0.255 N 
ATOM      4  C   UNL     1       2.857   3.612   0.182  0.00  0.00    +0.059 A 
ATOM      5  C   UNL     1       2.392   4.259   1.320  0.00  0.00    +0.026 A 
ATOM      6  C   UNL     1       2.451   5.634   1.394  0.00  0.00    +0.013 A 
ATOM      7  C   UNL     1       2.978   6.376   0.331  0.00  0.00    +0.024 A 
ATOM      8  C   UNL     1       3.465   5.719  -0.805  0.00  0.00    +0.036 A 
ATOM      9  C   UNL     1       3.416   4.341  -0.861  0.00  0.00    +0.054 A 
ATOM     10  N   UNL     1       3.922   3.625  -1.939  0.00  0.00    -0.316 N 
ATOM     11  C   UNL     1       3.176   2.869  -2.785  0.00  0.00    +0.017 C 
ATOM     12  C   UNL     1       2.240   1.985  -2.403  0.00  0.00    +0.040 C 
ATOM     13  C   UNL     1       1.834   1.685  -0.979  0.00  0.00    +0.182 C 
ATOM     14  C   UNL     1       1.536   1.229  -3.370  0.00  0.00    +0.163 C 
ATOM     15  O   UNL     1       0.684   0.447  -2.996  0.00  0.00    -0.292 OA
ATOM     16  C   UNL     1       1.804   1.359  -4.839  0.00  0.00    +0.086 C 
ATOM     17  C   UNL     1       3.262   1.792  -5.034  0.00  0.00    -0.023 C 
ATOM     18  C   UNL     1       3.468   3.092  -4.260  0.00  0.00    +0.058 C 
ATOM     19  C   UNL     1       4.201   0.712  -4.491  0.00  0.00    +0.011 C 
ATOM     20  C   UNL     1       3.541   2.022  -6.520  0.00  0.00    +0.011 C 
ATOM     21  H   UNL     1       4.878   3.668  -2.099  0.00  0.00    +0.152 HD
ENDROOT
BRANCH  13  22
ATOM     22  C   UNL     1       0.448   2.233  -0.753  0.00  0.00    +0.130 A 
ATOM     23  C   UNL     1      -0.693   1.520  -0.774  0.00  0.00    +0.047 A 
ATOM     24  C   UNL     1      -1.747   2.428  -0.521  0.00  0.00    +0.041 A 
ATOM     25  C   UNL     1      -1.186   3.639  -0.351  0.00  0.00    +0.195 A 
ATOM     26  O   UNL     1       0.143   3.515  -0.496  0.00  0.00    -0.466 OA
ENDBRANCH  13  22
BRANCH   1  28
ATOM     27  C   UNL     1       5.000   0.819   2.637  0.00  0.00    +0.013 C 
ATOM     28  C   UNL     1       4.336   1.968   1.875  0.00  0.00    +0.093 C 
ENDBRANCH   1  28
BRANCH   7  29
ATOM     29  C   UNL     1       3.020   7.848   0.408  0.00  0.00    +0.193 C 
ATOM     30  O   UNL     1       2.139   8.452   0.988  0.00  0.00    -0.287 OA
BRANCH  29  31
ATOM     31  C   UNL     1       4.134   8.589  -0.221  0.00  0.00    +0.022 A 
ATOM     32  C   UNL     1       5.229   7.898  -0.745  0.00  0.00    +0.012 A 
ATOM     33  C   UNL     1       6.262   8.596  -1.335  0.00  0.00    +0.001 A 
ATOM     34  C   UNL     1       6.220   9.978  -1.399  0.00  0.00    +0.000 A 
ATOM     35  C   UNL     1       5.141  10.669  -0.876  0.00  0.00    +0.001 A 
ATOM     36  C   UNL     1       4.098   9.983  -0.288  0.00  0.00    +0.012 A 
ENDBRANCH  29  31
ENDBRANCH   7  29
TORSDOF 4
