REMARK  Name = ZINC59461396
REMARK  6 active torsions:
REMARK  status: ('A' for Active; 'I' for Inactive)
REMARK    1  A    between atoms: C_1  and  N_2
REMARK    2  A    between atoms: N_2  and  C_3
REMARK    3  A    between atoms: N_2  and  C_4
REMARK    4  A    between atoms: C_7  and  C_13
REMARK    5  A    between atoms: C_9  and  N_10
REMARK    6  A    between atoms: C_17  and  C_19
REMARK                            x       y       z     vdW  Elec       q    Type
REMARK                         _______ _______ _______ _____ _____    ______ ____
ROOT
ATOM      1  C   UNL     1       0.000  -0.696  -1.211  0.00  0.00    +0.060 A 
ATOM      2  C   UNL     1       1.201  -1.029  -1.825  0.00  0.00    +0.026 A 
ATOM      3  C   UNL     1       1.196  -1.714  -3.024  0.00  0.00    +0.008 A 
ATOM      4  C   UNL     1      -0.004  -2.067  -3.615  0.00  0.00    -0.013 A 
ATOM      5  C   UNL     1      -1.201  -1.736  -3.007  0.00  0.00    +0.041 A 
ATOM      6  C   UNL     1      -1.203  -1.057  -1.805  0.00  0.00    +0.147 A 
ENDROOT
BRANCH   4   7
ATOM      7  C   UNL     1      -0.006  -2.814  -4.924  0.00  0.00    +0.183 C 
ATOM      8  N   UNL     1       1.226  -2.545  -5.699  0.00  0.00    -0.250 N 
ATOM      9  N   UNL     1       2.020  -3.644  -5.939  0.00  0.00    -0.178 NA
ATOM     10  C   UNL     1       1.726  -4.840  -5.523  0.00  0.00    +0.124 C 
ATOM     11  S   UNL     1       0.176  -4.626  -4.661  0.00  0.00    -0.075 S 
ATOM     12  H   UNL     1       1.457  -1.658  -6.016  0.00  0.00    +0.170 HD
BRANCH  10  13
ATOM     13  C   UNL     1       2.496  -6.087  -5.719  0.00  0.00    +0.008 A 
ATOM     14  C   UNL     1       2.020  -7.292  -5.201  0.00  0.00    +0.010 A 
ATOM     15  C   UNL     1       2.743  -8.453  -5.388  0.00  0.00    +0.001 A 
ATOM     16  C   UNL     1       3.937  -8.423  -6.086  0.00  0.00    +0.000 A 
ATOM     17  C   UNL     1       4.415  -7.231  -6.601  0.00  0.00    +0.001 A 
ATOM     18  C   UNL     1       3.699  -6.064  -6.427  0.00  0.00    +0.010 A 
ENDBRANCH  10  13
ENDBRANCH   4   7
BRANCH   1  20
ATOM     19  C   UNL     1      -0.018   1.461   0.010  0.00  0.00    +0.129 C 
ATOM     20  N   UNL     1       0.002  -0.004   0.002  0.00  0.00    -0.334 N 
ATOM     21  C   UNL     1       0.024  -0.743   1.267  0.00  0.00    +0.129 C 
ENDBRANCH   1  20
BRANCH   6  22
ATOM     22  N   UNL     1      -2.485  -0.709  -1.152  0.00  0.00    +0.058 N 
ATOM     23  O   UNL     1      -3.531  -1.023  -1.669  0.00  0.00    -0.126 OA
ATOM     24  O   UNL     1      -2.485  -0.110  -0.102  0.00  0.00    -0.126 OA
ENDBRANCH   6  22
TORSDOF 4
