REMARK  Name = ZINC12465546
REMARK  12 active torsions:
REMARK  status: ('A' for Active; 'I' for Inactive)
REMARK    1  A    between atoms: C_1  and  C_2
REMARK    2  A    between atoms: C_2  and  C_3
REMARK    3  A    between atoms: C_3  and  N_4
REMARK    4  A    between atoms: C_5  and  C_27
REMARK    5  A    between atoms: C_8  and  S_9
REMARK    6  A    between atoms: S_9  and  C_10
REMARK    7  A    between atoms: C_10  and  C_11
REMARK    8  A    between atoms: C_15  and  C_25
REMARK    9  A    between atoms: C_16  and  C_20
REMARK   10  A    between atoms: C_20  and  O_22
REMARK   11  A    between atoms: O_22  and  C_23
REMARK   12  A    between atoms: C_23  and  C_24
REMARK                            x       y       z     vdW  Elec       q    Type
REMARK                         _______ _______ _______ _____ _____    ______ ____
ROOT
ATOM      1  C   UNL     1       3.846   4.459   3.625  0.00  0.00    +0.143 A 
ATOM      2  N   UNL     1       4.849   4.487   2.767  0.00  0.00    -0.216 NA
ATOM      3  C   UNL     1       5.662   5.526   2.664  0.00  0.00    +0.128 A 
ATOM      4  C   UNL     1       5.460   6.654   3.514  0.00  0.00    +0.051 A 
ATOM      5  C   UNL     1       6.187   7.849   3.588  0.00  0.00    -0.017 A 
ATOM      6  C   UNL     1       5.822   8.810   4.481  0.00  0.00    +0.102 A 
ATOM      7  S   UNL     1       4.407   8.084   5.292  0.00  0.00    -0.062 S 
ATOM      8  C   UNL     1       4.368   6.545   4.409  0.00  0.00    +0.115 A 
ATOM      9  N   UNL     1       3.606   5.470   4.438  0.00  0.00    -0.224 NA
ATOM     10  C   UNL     1       7.370   8.072   2.681  0.00  0.00    +0.046 C 
ATOM     11  N   UNL     1       6.696   5.516   1.749  0.00  0.00    -0.343 N 
ATOM     12  H   UNL     1       7.497   6.035   1.918  0.00  0.00    +0.144 HD
ATOM     13  H   UNL     1       6.620   4.990   0.938  0.00  0.00    +0.144 HD
ENDROOT
BRANCH   6  14
ATOM     14  C   UNL     1       6.438  10.119   4.719  0.00  0.00    +0.346 C 
ATOM     15  O   UNL     1       7.408  10.461   4.070  0.00  0.00    -0.244 OA
BRANCH  14  16
ATOM     16  O   UNL     1       5.930  10.944   5.657  0.00  0.00    -0.461 OA
BRANCH  16  17
ATOM     17  C   UNL     1       6.591  12.224   5.838  0.00  0.00    +0.229 C 
ATOM     18  C   UNL     1       5.878  13.016   6.936  0.00  0.00    +0.048 C 
ENDBRANCH  16  17
ENDBRANCH  14  16
ENDBRANCH   6  14
BRANCH   1  19
ATOM     19  C   UNL     1       2.958   3.243   3.681  0.00  0.00    +0.153 C 
BRANCH  19  20
ATOM     20  S   UNL     1       1.574   3.453   2.534  0.00  0.00    -0.078 S 
BRANCH  20  25
ATOM     21  N   UNL     1      -0.425   1.529   2.183  0.00  0.00    -0.302 N 
ATOM     22  C   UNL     1      -0.712   0.289   2.705  0.00  0.00    +0.165 A 
ATOM     23  N   UNL     1       0.237   0.004   3.567  0.00  0.00    -0.128 NA
ATOM     24  N   UNL     1       1.081   0.972   3.624  0.00  0.00    -0.122 NA
ATOM     25  C   UNL     1       0.725   1.931   2.798  0.00  0.00    +0.192 A 
BRANCH  22  26
ATOM     26  C   UNL     1      -1.869  -0.564   2.360  0.00  0.00    +0.022 A 
ATOM     27  C   UNL     1      -2.594  -0.350   1.181  0.00  0.00    +0.031 A 
ATOM     28  C   UNL     1      -3.663  -1.173   0.896  0.00  0.00    +0.111 A 
ATOM     29  N   UNL     1      -4.011  -2.142   1.720  0.00  0.00    -0.263 NA
ATOM     30  C   UNL     1      -3.358  -2.375   2.843  0.00  0.00    +0.111 A 
ATOM     31  C   UNL     1      -2.273  -1.605   3.205  0.00  0.00    +0.031 A 
ENDBRANCH  22  26
BRANCH  21  32
ATOM     32  C   UNL     1      -1.197   2.267   1.179  0.00  0.00    +0.125 C 
BRANCH  32  34
ATOM     33  C   UNL     1      -1.455   2.727  -1.263  0.00  0.00    +0.005 C 
ATOM     34  C   UNL     1      -0.649   1.956  -0.215  0.00  0.00    +0.018 C 
ENDBRANCH  32  34
ENDBRANCH  21  32
ENDBRANCH  20  25
ENDBRANCH  19  20
ENDBRANCH   1  19
TORSDOF 9
