REMARK  Name = ZINC20981126
REMARK  6 active torsions:
REMARK  status: ('A' for Active; 'I' for Inactive)
REMARK    1  A    between atoms: C_1  and  C_2
REMARK    2  A    between atoms: C_3  and  C_21
REMARK    3  A    between atoms: N_7  and  S_10
REMARK    4  A    between atoms: S_10  and  C_13
REMARK    5  A    between atoms: N_23  and  C_24
REMARK    6  A    between atoms: C_24  and  C_25
REMARK                            x       y       z     vdW  Elec       q    Type
REMARK                         _______ _______ _______ _____ _____    ______ ____
ROOT
ATOM      1  C   UNL     1       1.111   8.127   2.624  0.00  0.00    +0.052 C 
ATOM      2  C   UNL     1       1.153   6.919   3.524  0.00  0.00    +0.045 C 
ATOM      3  C   UNL     1       1.188   5.641   3.111  0.00  0.00    +0.067 C 
ATOM      4  C   UNL     1       1.216   4.783   4.352  0.00  0.00    +0.146 C 
ATOM      5  C   UNL     1       2.490   3.941   4.376  0.00  0.00    +0.070 C 
ATOM      6  C   UNL     1       2.529   3.113   5.665  0.00  0.00    +0.114 C 
ATOM      7  N   UNL     1       1.283   2.340   5.767  0.00  0.00    -0.176 NA
ATOM      8  C   UNL     1       0.001   3.051   5.678  0.00  0.00    +0.114 C 
ATOM      9  C   UNL     1      -0.016   3.879   4.389  0.00  0.00    +0.070 C 
ATOM     10  O   UNL     1       1.204   5.697   5.481  0.00  0.00    -0.450 OA
ATOM     11  C   UNL     1       1.163   6.951   4.996  0.00  0.00    +0.336 C 
ATOM     12  O   UNL     1       1.139   7.960   5.671  0.00  0.00    -0.245 OA
ENDROOT
BRANCH   3  13
ATOM     13  C   UNL     1       1.192   5.167   1.712  0.00  0.00    +0.245 C 
ATOM     14  O   UNL     1       0.183   4.692   1.229  0.00  0.00    -0.270 OA
ATOM     15  N   UNL     1       2.314   5.263   0.971  0.00  0.00    -0.307 N 
ATOM     16  H   UNL     1       3.249   5.615   1.432  0.00  0.00    +0.149 HD
BRANCH  15  17
ATOM     17  C   UNL     1       2.288   4.898  -0.448  0.00  0.00    +0.139 C 
BRANCH  17  18
ATOM     18  C   UNL     1       3.683   4.977  -1.012  0.00  0.00    -0.030 A 
ATOM     19  C   UNL     1       4.540   3.900  -0.888  0.00  0.00    +0.006 A 
ATOM     20  C   UNL     1       5.820   3.971  -1.406  0.00  0.00    +0.020 A 
ATOM     21  C   UNL     1       6.243   5.122  -2.048  0.00  0.00    +0.041 A 
ATOM     22  C   UNL     1       5.384   6.199  -2.172  0.00  0.00    +0.020 A 
ATOM     23  C   UNL     1       4.105   6.127  -1.654  0.00  0.00    +0.006 A 
ATOM     24 CL   UNL     1       7.850   5.212  -2.698  0.00  0.00    -0.084 Cl
ENDBRANCH  17  18
ENDBRANCH  15  17
ENDBRANCH   3  13
BRANCH   7  25
ATOM     25  S   UNL     1       1.325   0.699   5.979  0.00  0.00    +0.067 S 
ATOM     26  O   UNL     1       2.529   0.409   6.676  0.00  0.00    -0.152 OA
ATOM     27  O   UNL     1       0.048   0.321   6.476  0.00  0.00    -0.152 OA
BRANCH  25  28
ATOM     28  C   UNL     1       1.479  -0.029   4.382  0.00  0.00    +0.143 A 
ATOM     29  C   UNL     1       2.599  -0.423   3.728  0.00  0.00    +0.036 A 
ATOM     30  C   UNL     1       2.479  -0.979   2.468  0.00  0.00    +0.010 A 
ATOM     31  C   UNL     1       1.246  -1.105   1.920  0.00  0.00    +0.047 A 
ATOM     32  S   UNL     1       0.201  -0.433   3.203  0.00  0.00    -0.077 S 
ENDBRANCH  25  28
ENDBRANCH   7  25
TORSDOF 5
