REMARK  Name = ZINC09282087
REMARK  13 active torsions:
REMARK  status: ('A' for Active; 'I' for Inactive)
REMARK    1  A    between atoms: C_1  and  C_2
REMARK    2  A    between atoms: C_2  and  C_3
REMARK    3  A    between atoms: C_3  and  C_4
REMARK    4  A    between atoms: C_4  and  N_5
REMARK    5  A    between atoms: C_15  and  C_26
REMARK    6  A    between atoms: C_16  and  O_25
REMARK    7  A    between atoms: N_19  and  C_20
REMARK    8  A    between atoms: C_20  and  C_21
REMARK    9  A    between atoms: C_21  and  C_22
REMARK   10  A    between atoms: C_22  and  N_68
REMARK   11  A    between atoms: C_23  and  N_68
REMARK   12  A    between atoms: C_24  and  N_68
REMARK   13  A    between atoms: C_26  and  C_28
REMARK                            x       y       z     vdW  Elec       q    Type
REMARK                         _______ _______ _______ _____ _____    ______ ____
ROOT
ATOM      1  N   UNL     1      -1.385  -1.585  -0.447  0.00  0.00    -0.269 N 
ATOM      2  C   UNL     1      -1.296  -1.560   0.946  0.00  0.00    +0.042 A 
ATOM      3  C   UNL     1      -0.537  -2.331   1.824  0.00  0.00    +0.024 A 
ATOM      4  C   UNL     1      -0.620  -2.118   3.184  0.00  0.00    +0.002 A 
ATOM      5  C   UNL     1      -1.457  -1.139   3.688  0.00  0.00    +0.000 A 
ATOM      6  C   UNL     1      -2.215  -0.369   2.823  0.00  0.00    +0.008 A 
ATOM      7  C   UNL     1      -2.134  -0.578   1.464  0.00  0.00    +0.011 A 
ATOM      8  C   UNL     1      -2.803   0.065   0.279  0.00  0.00    +0.174 C 
ATOM      9  C   UNL     1      -2.247  -0.665  -0.917  0.00  0.00    +0.253 C 
ATOM     10  O   UNL     1      -2.524  -0.461  -2.080  0.00  0.00    -0.272 OA
ATOM     11  C   UNL     1      -2.494   1.536   0.210  0.00  0.00    +0.086 C 
ATOM     12  C   UNL     1      -3.686   2.180   0.234  0.00  0.00    +0.189 C 
ATOM     13  C   UNL     1      -4.774   1.184   0.325  0.00  0.00    +0.283 C 
ATOM     14  O   UNL     1      -5.959   1.447   0.365  0.00  0.00    -0.267 OA
ATOM     15  N   UNL     1      -4.256  -0.060   0.355  0.00  0.00    -0.273 N 
ENDROOT
BRANCH  12  16
ATOM     16  O   UNL     1      -3.854   3.522   0.184  0.00  0.00    -0.502 OA
ATOM     17  H   UNL     1      -4.830   3.738   0.218  0.00  0.00    +0.292 HD
ENDBRANCH  12  16
BRANCH  11  18
ATOM     18  C   UNL     1      -1.165   2.151   0.125  0.00  0.00    +0.231 C 
ATOM     19  O   UNL     1      -0.171   1.492   0.376  0.00  0.00    -0.283 OA
BRANCH  18  20
ATOM     20  C   UNL     1      -1.031   3.562  -0.262  0.00  0.00    +0.176 A 
ATOM     21  C   UNL     1       0.129   4.273  -0.247  0.00  0.00    +0.061 A 
ATOM     22  C   UNL     1      -0.215   5.619  -0.701  0.00  0.00    +0.021 A 
ATOM     23  C   UNL     1       0.514   6.794  -0.902  0.00  0.00    +0.011 A 
ATOM     24  C   UNL     1      -0.124   7.917  -1.348  0.00  0.00    +0.001 A 
ATOM     25  C   UNL     1      -1.489   7.898  -1.601  0.00  0.00    +0.004 A 
ATOM     26  C   UNL     1      -2.225   6.749  -1.409  0.00  0.00    +0.047 A 
ATOM     27  C   UNL     1      -1.599   5.593  -0.957  0.00  0.00    +0.136 A 
ATOM     28  O   UNL     1      -2.042   4.351  -0.682  0.00  0.00    -0.452 OA
ENDBRANCH  18  20
ENDBRANCH  11  18
BRANCH   1  29
ATOM     29  C   UNL     1      -0.629  -2.507  -1.298  0.00  0.00    +0.114 C 
BRANCH  29  30
ATOM     30  C   UNL     1       0.743  -1.905  -1.607  0.00  0.00    +0.019 C 
BRANCH  30  32
ATOM     31  C   UNL     1       2.958  -2.323  -2.686  0.00  0.00    +0.004 C 
ATOM     32  C   UNL     1       1.586  -2.925  -2.376  0.00  0.00    -0.002 C 
ENDBRANCH  30  32
ENDBRANCH  29  30
ENDBRANCH   1  29
BRANCH  15  33
ATOM     33  C   UNL     1      -5.013  -1.311   0.443  0.00  0.00    +0.108 C 
BRANCH  33  34
ATOM     34  C   UNL     1      -5.341  -1.809  -0.966  0.00  0.00    +0.000 C 
BRANCH  34  35
ATOM     35  C   UNL     1      -6.132  -3.116  -0.874  0.00  0.00    -0.078 C 
BRANCH  35  38
ATOM     36  C   UNL     1      -6.994  -4.957  -2.190  0.00  0.00    -0.097 C 
ATOM     37  C   UNL     1      -7.367  -2.675  -2.909  0.00  0.00    -0.097 C 
ATOM     38  N   UNL     1      -6.422  -3.595  -2.242  0.00  0.00    +0.376 N 
ATOM     39  H   UNL     1      -5.547  -3.621  -2.779  0.00  0.00    -0.083 HD
ENDBRANCH  35  38
ENDBRANCH  34  35
ENDBRANCH  33  34
ENDBRANCH  15  33
TORSDOF 10
