REMARK  Name = ZINC14880845
REMARK  5 active torsions:
REMARK  status: ('A' for Active; 'I' for Inactive)
REMARK    1  A    between atoms: C_4  and  C_7
REMARK    2  A    between atoms: C_7  and  C_8
REMARK    3  A    between atoms: C_8  and  C_9
REMARK    4  A    between atoms: C_9  and  C_16
REMARK    5  A    between atoms: C_22  and  C_24
REMARK                            x       y       z     vdW  Elec       q    Type
REMARK                         _______ _______ _______ _____ _____    ______ ____
ROOT
ATOM      1  C   UNL     1      -4.435   2.063   2.408  0.00  0.00    +0.024 C 
ATOM      2  C   UNL     1      -4.081   1.335   3.707  0.00  0.00    +0.025 C 
ATOM      3  C   UNL     1      -4.079   2.338   4.865  0.00  0.00    +0.108 C 
ATOM      4  N   UNL     1      -5.376   3.028   4.894  0.00  0.00    -0.295 N 
ATOM      5  C   UNL     1      -5.856   3.684   3.670  0.00  0.00    +0.108 C 
ATOM      6  C   UNL     1      -5.837   2.666   2.526  0.00  0.00    +0.025 C 
ATOM      7  C   UNL     1      -6.112   3.058   6.023  0.00  0.00    +0.282 C 
ATOM      8  O   UNL     1      -5.764   2.415   6.993  0.00  0.00    -0.267 OA
ENDROOT
BRANCH   7   9
ATOM      9  C   UNL     1      -7.346   3.877   6.081  0.00  0.00    +0.194 A 
ATOM     10  C   UNL     1      -8.312   3.536   6.967  0.00  0.00    +0.103 A 
ATOM     11  C   UNL     1      -9.538   4.347   7.026  0.00  0.00    +0.193 A 
ATOM     12  O   UNL     1     -10.439   4.087   7.804  0.00  0.00    -0.287 OA
ATOM     13  C   UNL     1      -9.623   5.491   6.099  0.00  0.00    +0.064 A 
ATOM     14  C   UNL     1     -10.742   6.323   6.074  0.00  0.00    +0.015 A 
ATOM     15  C   UNL     1     -10.785   7.374   5.200  0.00  0.00    +0.001 A 
ATOM     16  C   UNL     1      -9.723   7.616   4.340  0.00  0.00    +0.004 A 
ATOM     17  C   UNL     1      -8.610   6.805   4.350  0.00  0.00    +0.047 A 
ATOM     18  C   UNL     1      -8.544   5.730   5.231  0.00  0.00    +0.139 A 
ATOM     19  O   UNL     1      -7.461   4.929   5.258  0.00  0.00    -0.450 OA
ENDBRANCH   7   9
BRANCH   1  20
ATOM     20  C   UNL     1      -4.404   1.071   1.243  0.00  0.00    +0.115 C 
ATOM     21  C   UNL     1      -5.528   0.063   1.370  0.00  0.00    +0.244 C 
ATOM     22  O   UNL     1      -5.704  -0.728   2.272  0.00  0.00    -0.273 OA
ATOM     23  N   UNL     1      -6.293   0.230   0.273  0.00  0.00    -0.238 N 
ATOM     24  C   UNL     1      -5.813   1.194  -0.521  0.00  0.00    +0.307 C 
ATOM     25  O   UNL     1      -6.331   1.526  -1.569  0.00  0.00    -0.252 OA
ATOM     26  N   UNL     1      -4.692   1.753  -0.030  0.00  0.00    -0.285 N 
ATOM     27  H   UNL     1      -7.093  -0.284   0.083  0.00  0.00    +0.159 HD
ATOM     28  H   UNL     1      -4.175   2.467  -0.436  0.00  0.00    +0.151 HD
BRANCH  20  29
ATOM     29  C   UNL     1      -3.050   0.362   1.179  0.00  0.00    +0.040 C 
BRANCH  29  30
ATOM     30  C   UNL     1      -2.979  -0.488  -0.091  0.00  0.00    +0.038 C 
BRANCH  30  34
ATOM     31  C   UNL     1       0.798  -2.474  -0.281  0.00  0.00    +0.000 A 
ATOM     32  C   UNL     1      -0.271  -3.082   0.350  0.00  0.00    +0.000 A 
ATOM     33  C   UNL     1      -1.493  -2.438   0.414  0.00  0.00    +0.003 A 
ATOM     34  C   UNL     1      -1.645  -1.187  -0.154  0.00  0.00    -0.047 A 
ATOM     35  C   UNL     1      -0.576  -0.579  -0.785  0.00  0.00    +0.003 A 
ATOM     36  C   UNL     1       0.646  -1.223  -0.849  0.00  0.00    +0.000 A 
ENDBRANCH  30  34
ENDBRANCH  29  30
ENDBRANCH  20  29
ENDBRANCH   1  20
TORSDOF 5
