REMARK  Name = ZINC05620053
REMARK  9 active torsions:
REMARK  status: ('A' for Active; 'I' for Inactive)
REMARK    1  A    between atoms: C_1  and  C_2
REMARK    2  A    between atoms: C_3  and  C_12
REMARK    3  A    between atoms: C_12  and  C_14
REMARK    4  A    between atoms: C_14  and  O_15
REMARK    5  A    between atoms: O_15  and  C_16
REMARK    6  A    between atoms: C_16  and  C_18
REMARK    7  A    between atoms: C_20  and  N_26
REMARK    8  A    between atoms: C_23  and  N_24
REMARK    9  A    between atoms: N_24  and  C_25
REMARK                            x       y       z     vdW  Elec       q    Type
REMARK                         _______ _______ _______ _____ _____    ______ ____
ROOT
ATOM      1  O   UNL     1      -1.010  -2.209   0.178  0.00  0.00    -0.453 OA
ENDROOT
BRANCH   1   2
ATOM      2  C   UNL     1      -2.061  -3.038   0.332  0.00  0.00    +0.341 C 
ATOM      3  O   UNL     1      -3.190  -2.589   0.367  0.00  0.00    -0.245 OA
BRANCH   2   4
ATOM      4  C   UNL     1      -1.842  -4.490   0.456  0.00  0.00    +0.082 A 
ATOM      5  C   UNL     1      -0.544  -5.001   0.538  0.00  0.00    +0.049 A 
ATOM      6  C   UNL     1      -0.346  -6.358   0.659  0.00  0.00    +0.127 A 
ATOM      7  C   UNL     1      -1.429  -7.224   0.691  0.00  0.00    +0.034 A 
ATOM      8  C   UNL     1      -2.716  -6.736   0.606  0.00  0.00    +0.026 A 
ATOM      9  C   UNL     1      -2.936  -5.369   0.488  0.00  0.00    +0.041 A 
BRANCH   9  10
ATOM     10  N   UNL     1      -4.231  -4.876   0.402  0.00  0.00    -0.346 N 
ATOM     11  C   UNL     1      -5.363  -5.801   0.309  0.00  0.00    +0.125 C 
ATOM     12  H   UNL     1      -4.386  -3.918   0.404  0.00  0.00    +0.146 HD
ENDBRANCH   9  10
BRANCH   6  13
ATOM     13  N   UNL     1       1.030  -6.897   0.751  0.00  0.00    +0.056 N 
ATOM     14  O   UNL     1       1.208  -8.097   0.854  0.00  0.00    -0.126 OA
ATOM     15  O   UNL     1       1.983  -6.139   0.724  0.00  0.00    -0.126 OA
ENDBRANCH   6  13
ENDBRANCH   2   4
ENDBRANCH   1   2
BRANCH   1  16
ATOM     16  C   UNL     1      -1.301  -0.791   0.062  0.00  0.00    +0.312 C 
BRANCH  16  17
ATOM     17  C   UNL     1      -0.013  -0.026  -0.102  0.00  0.00    +0.203 C 
ATOM     18  O   UNL     1       1.039  -0.624  -0.211  0.00  0.00    -0.288 OA
BRANCH  17  21
ATOM     19  C   UNL     1      -0.090   1.706  -2.671  0.00  0.00    +0.064 C 
ATOM     20  C   UNL     1      -0.063   2.197  -1.247  0.00  0.00    +0.025 A 
ATOM     21  C   UNL     1      -0.028   1.391  -0.129  0.00  0.00    +0.049 A 
ATOM     22  C   UNL     1      -0.005   2.300   1.034  0.00  0.00    +0.011 A 
ATOM     23  C   UNL     1       0.037   2.106   2.411  0.00  0.00    +0.011 A 
ATOM     24  C   UNL     1       0.051   3.197   3.253  0.00  0.00    +0.001 A 
ATOM     25  C   UNL     1       0.022   4.483   2.732  0.00  0.00    +0.002 A 
ATOM     26  C   UNL     1      -0.019   4.688   1.371  0.00  0.00    +0.026 A 
ATOM     27  C   UNL     1      -0.033   3.599   0.504  0.00  0.00    +0.047 A 
ATOM     28  N   UNL     1      -0.072   3.490  -0.871  0.00  0.00    -0.358 N 
ATOM     29  H   UNL     1      -0.097   4.242  -1.483  0.00  0.00    +0.166 HD
ENDBRANCH  17  21
ENDBRANCH  16  17
ENDBRANCH   1  16
TORSDOF 7
