REMARK  Name = ZINC08899236
REMARK  5 active torsions:
REMARK  status: ('A' for Active; 'I' for Inactive)
REMARK    1  A    between atoms: C_9  and  C_12
REMARK    2  A    between atoms: C_19  and  C_20
REMARK    3  A    between atoms: C_19  and  N_62
REMARK    4  A    between atoms: N_22  and  C_23
REMARK    5  A    between atoms: C_24  and  C_32
REMARK                            x       y       z     vdW  Elec       q    Type
REMARK                         _______ _______ _______ _____ _____    ______ ____
ROOT
ATOM      1  C   UNL     1      -2.750   1.653   6.856  0.00  0.00    +0.019 C 
ENDROOT
BRANCH   1   9
ATOM      2  C   UNL     1      -3.914   4.818  11.107  0.00  0.00    +0.260 C 
ATOM      3  O   UNL     1      -4.128   4.315  12.189  0.00  0.00    -0.271 OA
ATOM      4  N   UNL     1      -4.109   4.102   9.981  0.00  0.00    -0.302 N 
ATOM      5  C   UNL     1      -4.467   2.677  10.045  0.00  0.00    +0.089 C 
ATOM      6  C   UNL     1      -3.508   1.893   9.142  0.00  0.00    -0.059 C 
ATOM      7  C   UNL     1      -3.029   3.861   7.809  0.00  0.00    -0.059 C 
ATOM      8  C   UNL     1      -3.968   4.726   8.656  0.00  0.00    +0.089 C 
ATOM      9  N   UNL     1      -3.551   2.477   7.784  0.00  0.00    +0.387 N 
ATOM     10  H   UNL     1      -4.524   2.494   7.459  0.00  0.00    -0.081 HD
BRANCH   2  19
ATOM     11  C   UNL     1      -1.520  10.438  12.829  0.00  0.00    +0.004 A 
ATOM     12  C   UNL     1      -2.513  10.060  13.713  0.00  0.00    +0.004 A 
ATOM     13  C   UNL     1      -3.181   8.864  13.535  0.00  0.00    +0.049 A 
ATOM     14  C   UNL     1      -2.858   8.039  12.468  0.00  0.00    +0.163 A 
ATOM     15  C   UNL     1      -1.861   8.421  11.577  0.00  0.00    +0.162 A 
ATOM     16  C   UNL     1      -1.193   9.622  11.763  0.00  0.00    +0.049 A 
ATOM     17  O   UNL     1      -1.533   7.630  10.519  0.00  0.00    -0.484 OA
ATOM     18  C   UNL     1      -1.962   6.265  10.577  0.00  0.00    +0.283 C 
ATOM     19  C   UNL     1      -3.432   6.243  11.020  0.00  0.00    +0.296 C 
ATOM     20  O   UNL     1      -3.523   6.863  12.307  0.00  0.00    -0.473 OA
ENDBRANCH   2  19
ENDBRANCH   1   9
BRANCH   1  21
ATOM     21  C   UNL     1      -2.985   2.139   5.449  0.00  0.00    +0.201 C 
ATOM     22  O   UNL     1      -3.724   3.080   5.248  0.00  0.00    -0.278 OA
ATOM     23  N   UNL     1      -2.375   1.529   4.414  0.00  0.00    -0.281 N 
ATOM     24  H   UNL     1      -1.784   0.776   4.574  0.00  0.00    +0.155 HD
BRANCH  23  25
ATOM     25  C   UNL     1      -2.592   1.976   3.119  0.00  0.00    +0.084 A 
ATOM     26  C   UNL     1      -2.060   1.483   1.936  0.00  0.00    +0.068 A 
ATOM     27  C   UNL     1      -2.451   2.138   0.700  0.00  0.00    -0.023 A 
ATOM     28  C   UNL     1      -3.309   3.175   0.840  0.00  0.00    -0.004 A 
ATOM     29  S   UNL     1      -3.600   3.287   2.583  0.00  0.00    -0.077 S 
ATOM     30  C   UNL     1      -3.877   4.032  -0.249  0.00  0.00    +0.043 C 
ATOM     31  C   UNL     1      -3.054   3.801  -1.525  0.00  0.00    +0.005 C 
ATOM     32  C   UNL     1      -2.891   2.293  -1.740  0.00  0.00    +0.005 C 
ATOM     33  C   UNL     1      -1.956   1.715  -0.677  0.00  0.00    +0.037 C 
BRANCH  26  34
ATOM     34  C   UNL     1      -1.137   0.344   1.934  0.00  0.00    +0.244 C 
ATOM     35  O   UNL     1       0.062   0.532   2.025  0.00  0.00    -0.270 OA
ATOM     36  N   UNL     1      -1.617  -0.912   1.831  0.00  0.00    -0.325 N 
ATOM     37  H   UNL     1      -2.572  -1.061   1.759  0.00  0.00    +0.145 HD
ATOM     38  H   UNL     1      -1.006  -1.665   1.830  0.00  0.00    +0.145 HD
ENDBRANCH  26  34
ENDBRANCH  23  25
ENDBRANCH   1  21
TORSDOF 5
