REMARK  Name = ZINC39601311
REMARK  9 active torsions:
REMARK  status: ('A' for Active; 'I' for Inactive)
REMARK    1  A    between atoms: C_1  and  C_2
REMARK    2  A    between atoms: C_2  and  C_3
REMARK    3  A    between atoms: C_2  and  C_4
REMARK    4  A    between atoms: C_4  and  C_5
REMARK    5  A    between atoms: C_5  and  N_6
REMARK    6  A    between atoms: C_7  and  C_9
REMARK    7  A    between atoms: C_20  and  C_22
REMARK    8  A    between atoms: C_27  and  O_28
REMARK    9  A    between atoms: O_28  and  C_29
REMARK                            x       y       z     vdW  Elec       q    Type
REMARK                         _______ _______ _______ _____ _____    ______ ____
ROOT
ATOM      1  C   UNL     1      -4.826  -4.348  -0.604  0.00  0.00    +0.100 C 
ATOM      2  C   UNL     1      -5.265  -4.145   0.864  0.00  0.00    +0.121 C 
ATOM      3  N   UNL     1      -6.003  -5.383   1.208  0.00  0.00    -0.296 N 
ATOM      4  C   UNL     1      -5.231  -6.467   0.555  0.00  0.00    +0.115 C 
ATOM      5  C   UNL     1      -4.804  -5.873  -0.802  0.00  0.00    -0.004 C 
ATOM      6  C   UNL     1      -3.397  -6.338  -1.162  0.00  0.00    -0.010 C 
ATOM      7  C   UNL     1      -3.412  -7.849  -1.412  0.00  0.00    -0.082 C 
ATOM      8  N   UNL     1      -4.345  -8.157  -2.503  0.00  0.00    +0.379 N 
ATOM      9  C   UNL     1      -5.712  -7.791  -2.111  0.00  0.00    -0.082 C 
ATOM     10  C   UNL     1      -5.793  -6.278  -1.891  0.00  0.00    -0.010 C 
ATOM     11  C   UNL     1      -7.124  -5.498   1.948  0.00  0.00    +0.252 C 
ATOM     12  O   UNL     1      -7.561  -6.599   2.222  0.00  0.00    -0.270 OA
ATOM     13  H   UNL     1      -4.082  -7.636  -3.326  0.00  0.00    -0.086 HD
ATOM     14  H   UNL     1      -4.308  -9.145  -2.707  0.00  0.00    -0.086 HD
ENDROOT
BRANCH  11  15
ATOM     15  C   UNL     1      -7.820  -4.288   2.425  0.00  0.00    +0.099 A 
ATOM     16  C   UNL     1      -7.096  -3.145   2.787  0.00  0.00    +0.020 A 
ATOM     17  C   UNL     1      -7.796  -2.037   3.227  0.00  0.00    +0.021 A 
ATOM     18  C   UNL     1      -9.177  -2.087   3.298  0.00  0.00    +0.114 A 
ATOM     19  N   UNL     1      -9.839  -3.174   2.953  0.00  0.00    -0.220 NA
ATOM     20  C   UNL     1      -9.220  -4.259   2.519  0.00  0.00    +0.233 A 
BRANCH  20  21
ATOM     21  O   UNL     1      -9.940  -5.351   2.170  0.00  0.00    -0.437 OA
BRANCH  21  22
ATOM     22  C   UNL     1     -11.285  -5.319   2.366  0.00  0.00    +0.130 A 
ATOM     23  C   UNL     1     -12.101  -4.643   1.470  0.00  0.00    +0.048 A 
ATOM     24  C   UNL     1     -13.467  -4.611   1.671  0.00  0.00    +0.023 A 
ATOM     25  C   UNL     1     -14.022  -5.252   2.765  0.00  0.00    +0.041 A 
ATOM     26  C   UNL     1     -13.209  -5.926   3.660  0.00  0.00    +0.023 A 
ATOM     27  C   UNL     1     -11.843  -5.965   3.459  0.00  0.00    +0.048 A 
ATOM     28 CL   UNL     1     -15.739  -5.210   3.016  0.00  0.00    -0.084 Cl
ENDBRANCH  21  22
ENDBRANCH  20  21
ENDBRANCH  11  15
BRANCH   1  30
ATOM     29  N   UNL     1      -3.088  -3.348  -2.052  0.00  0.00    -0.315 N 
ATOM     30  C   UNL     1      -3.452  -3.770  -0.825  0.00  0.00    +0.218 C 
ATOM     31  O   UNL     1      -2.674  -3.684   0.102  0.00  0.00    -0.275 OA
ATOM     32  H   UNL     1      -3.710  -3.417  -2.793  0.00  0.00    +0.149 HD
BRANCH  29  33
ATOM     33  C   UNL     1      -1.752  -2.787  -2.267  0.00  0.00    +0.104 C 
BRANCH  33  34
ATOM     34  C   UNL     1      -1.597  -2.389  -3.736  0.00  0.00    +0.022 C 
BRANCH  34  36
ATOM     35  C   UNL     1      -0.001  -1.521  -5.451  0.00  0.00    +0.007 C 
ATOM     36  C   UNL     1      -0.201  -1.803  -3.961  0.00  0.00    -0.016 C 
ATOM     37  C   UNL     1      -0.063  -0.499  -3.172  0.00  0.00    +0.007 C 
ENDBRANCH  34  36
ENDBRANCH  33  34
ENDBRANCH  29  33
ENDBRANCH   1  30
TORSDOF 7
