REMARK  Name = ZINC64011826
REMARK  4 active torsions:
REMARK  status: ('A' for Active; 'I' for Inactive)
REMARK    1  A    between atoms: C_1  and  C_2
REMARK    2  A    between atoms: C_5  and  C_12
REMARK    3  A    between atoms: N_9  and  C_11
REMARK    4  A    between atoms: C_17  and  C_20
REMARK                            x       y       z     vdW  Elec       q    Type
REMARK                         _______ _______ _______ _____ _____    ______ ____
ROOT
ATOM      1  C   UNL     1      -4.398  -2.182   1.168  0.00  0.00    +0.253 C 
ATOM      2  O   UNL     1      -5.231  -1.306   1.021  0.00  0.00    -0.269 OA
ATOM      3  N   UNL     1      -4.776  -3.410   1.574  0.00  0.00    -0.293 N 
ATOM      4  C   UNL     1      -6.181  -3.711   1.899  0.00  0.00    +0.113 C 
ATOM      5  C   UNL     1      -6.676  -4.777   0.919  0.00  0.00    +0.054 C 
ATOM      6  C   UNL     1      -5.665  -5.878   0.789  0.00  0.00    -0.043 C 
ATOM      7  C   UNL     1      -4.387  -5.761   1.131  0.00  0.00    -0.004 C 
ATOM      8  C   UNL     1      -3.803  -4.504   1.705  0.00  0.00    +0.135 C 
ENDROOT
BRANCH   1  13
ATOM      9  C   UNL     1      -0.165   1.673   0.081  0.00  0.00    +0.062 C 
ATOM     10  C   UNL     1      -0.052   0.181   0.254  0.00  0.00    +0.021 C 
ATOM     11  C   UNL     1      -1.099  -0.673   0.222  0.00  0.00    +0.000 C 
ATOM     12  C   UNL     1      -2.487  -0.800   0.320  0.00  0.00    +0.027 C 
ATOM     13  C   UNL     1      -3.030  -1.910   0.910  0.00  0.00    +0.072 C 
ATOM     14  S   UNL     1      -1.610  -2.938   1.283  0.00  0.00    -0.095 S 
ATOM     15  C   UNL     1      -0.425  -2.059   0.193  0.00  0.00    +0.169 C 
ATOM     16  N   UNL     1       0.855  -1.785   0.855  0.00  0.00    -0.215 NA
ATOM     17  N   UNL     1       1.127  -0.490   0.458  0.00  0.00    -0.281 N 
ATOM     18  C   UNL     1       1.899  -2.706   0.386  0.00  0.00    +0.129 C 
ATOM     19  H   UNL     1       2.014  -0.113   0.343  0.00  0.00    +0.166 HD
ENDBRANCH   1  13
BRANCH   6  20
ATOM     20  C   UNL     1      -6.098  -7.115   0.271  0.00  0.00    -0.016 C 
ATOM     21  C   UNL     1      -7.349  -7.413  -0.254  0.00  0.00    +0.003 A 
ATOM     22  C   UNL     1      -8.519  -6.639  -0.435  0.00  0.00    +0.010 A 
ATOM     23  C   UNL     1      -9.620  -7.204  -0.988  0.00  0.00    +0.001 A 
ATOM     24  C   UNL     1      -9.635  -8.544  -1.389  0.00  0.00    +0.002 A 
ATOM     25  C   UNL     1      -8.553  -9.345  -1.247  0.00  0.00    +0.026 A 
ATOM     26  C   UNL     1      -7.359  -8.826  -0.675  0.00  0.00    +0.043 A 
ATOM     27  N   UNL     1      -6.194  -9.386  -0.433  0.00  0.00    -0.380 N 
ATOM     28  C   UNL     1      -5.297  -8.394   0.167  0.00  0.00    +0.149 C 
ATOM     29  H   UNL     1      -5.964 -10.309  -0.625  0.00  0.00    +0.160 HD
ENDBRANCH   6  20
TORSDOF 2
