REMARK  Name = ZINC41549240
REMARK  6 active torsions:
REMARK  status: ('A' for Active; 'I' for Inactive)
REMARK    1  A    between atoms: C_1  and  C_2
REMARK    2  A    between atoms: C_3  and  C_23
REMARK    3  A    between atoms: C_8  and  C_10
REMARK    4  A    between atoms: C_10  and  C_22
REMARK    5  A    between atoms: N_25  and  C_26
REMARK    6  A    between atoms: N_25  and  C_27
REMARK                            x       y       z     vdW  Elec       q    Type
REMARK                         _______ _______ _______ _____ _____    ______ ____
ROOT
ATOM      1  C   UNL     1      -0.571   1.402   0.012  0.00  0.00    +0.067 C 
ATOM      2  C   UNL     1      -0.134  -0.041   0.003  0.00  0.00    +0.060 A 
ATOM      3  C   UNL     1       0.112  -0.723  -1.181  0.00  0.00    +0.098 A 
ATOM      4  S   UNL     1       0.575  -2.326  -0.545  0.00  0.00    -0.047 S 
ATOM      5  C   UNL     1       0.414  -1.982   1.095  0.00  0.00    +0.165 A 
ATOM      6  N   UNL     1       0.037  -0.717   1.110  0.00  0.00    -0.229 NA
ATOM      7  N   UNL     1       0.631  -2.825   2.171  0.00  0.00    -0.261 N 
ATOM      8  C   UNL     1       0.452  -2.372   3.428  0.00  0.00    +0.272 C 
ATOM      9  O   UNL     1       0.099  -1.227   3.615  0.00  0.00    -0.270 OA
ATOM     10  H   UNL     1       0.913  -3.740   2.022  0.00  0.00    +0.157 HD
ENDROOT
BRANCH   8  11
ATOM     11  C   UNL     1       0.688  -3.289   4.601  0.00  0.00    +0.258 C 
ATOM     12  C   UNL     1      -0.120  -2.812   5.781  0.00  0.00    +0.270 C 
ATOM     13  O   UNL     1       0.375  -2.060   6.594  0.00  0.00    -0.271 OA
ATOM     14  N   UNL     1      -1.396  -3.226   5.930  0.00  0.00    -0.279 N 
ATOM     15  C   UNL     1      -1.908  -4.192   5.053  0.00  0.00    +0.077 A 
ATOM     16  C   UNL     1      -3.265  -4.472   5.028  0.00  0.00    +0.047 A 
ATOM     17  C   UNL     1      -3.757  -5.419   4.147  0.00  0.00    +0.043 A 
ATOM     18  C   UNL     1      -2.898  -6.085   3.291  0.00  0.00    +0.024 A 
ATOM     19  C   UNL     1      -1.542  -5.813   3.315  0.00  0.00    +0.049 A 
ATOM     20  C   UNL     1      -1.042  -4.871   4.198  0.00  0.00    +0.144 A 
ATOM     21  O   UNL     1       0.293  -4.618   4.252  0.00  0.00    -0.465 OA
ATOM     22 CL   UNL     1      -5.456  -5.772   4.116  0.00  0.00    -0.083 Cl
ATOM     23  C   UNL     1       2.174  -3.278   4.964  0.00  0.00    +0.076 C 
ATOM     24  H   UNL     1      -1.952  -2.860   6.635  0.00  0.00    +0.155 HD
ENDBRANCH   8  11
BRANCH   3  25
ATOM     25  C   UNL     1       0.019  -0.257  -2.565  0.00  0.00    +0.255 C 
ATOM     26  O   UNL     1      -0.132   0.928  -2.800  0.00  0.00    -0.269 OA
ATOM     27  N   UNL     1       0.102  -1.140  -3.580  0.00  0.00    -0.303 N 
ATOM     28  C   UNL     1       0.170  -0.662  -4.963  0.00  0.00    +0.132 C 
ATOM     29  C   UNL     1       0.123  -2.578  -3.300  0.00  0.00    +0.132 C 
ENDBRANCH   3  25
TORSDOF 2
