REMARK  Name = ZINC40177803
REMARK  7 active torsions:
REMARK  status: ('A' for Active; 'I' for Inactive)
REMARK    1  A    between atoms: C_1  and  C_2
REMARK    2  A    between atoms: C_5  and  C_8
REMARK    3  A    between atoms: C_10  and  S_21
REMARK    4  A    between atoms: C_11  and  N_13
REMARK    5  A    between atoms: N_13  and  C_14
REMARK    6  A    between atoms: C_19  and  C_20
REMARK    7  A    between atoms: S_21  and  C_24
REMARK                            x       y       z     vdW  Elec       q    Type
REMARK                         _______ _______ _______ _____ _____    ______ ____
ROOT
ATOM      1  C   UNL     1       0.748  -4.289  -0.079  0.00  0.00    +0.231 A 
ATOM      2  N   UNL     1       0.623  -5.030   0.996  0.00  0.00    -0.188 NA
ATOM      3  C   UNL     1       0.367  -6.292   0.623  0.00  0.00    +0.243 A 
ATOM      4  C   UNL     1       0.334  -6.324  -0.732  0.00  0.00    +0.237 A 
ATOM      5  O   UNL     1       0.567  -5.067  -1.163  0.00  0.00    -0.420 OA
ENDROOT
BRANCH   1  10
ATOM      6  C   UNL     1       1.855   1.356  -0.150  0.00  0.00    +0.044 C 
ATOM      7  C   UNL     1       1.565  -0.122  -0.131  0.00  0.00    -0.050 A 
ATOM      8  C   UNL     1       1.402  -0.807  -1.322  0.00  0.00    +0.004 A 
ATOM      9  C   UNL     1       1.136  -2.161  -1.313  0.00  0.00    +0.013 A 
ATOM     10  C   UNL     1       1.032  -2.840  -0.097  0.00  0.00    +0.037 A 
ATOM     11  C   UNL     1       1.198  -2.143   1.101  0.00  0.00    +0.013 A 
ATOM     12  C   UNL     1       1.469  -0.790   1.077  0.00  0.00    +0.004 A 
ENDBRANCH   1  10
BRANCH   3  13
ATOM     13  S   UNL     1       0.118  -7.665   1.700  0.00  0.00    +0.047 S 
ATOM     14  O   UNL     1       0.436  -8.830   0.952  0.00  0.00    -0.163 OA
ATOM     15  O   UNL     1       0.766  -7.343   2.923  0.00  0.00    -0.163 OA
BRANCH  13  16
ATOM     16  C   UNL     1      -1.607  -7.746   2.050  0.00  0.00    +0.099 A 
ATOM     17  C   UNL     1      -2.124  -7.058   3.132  0.00  0.00    +0.031 A 
ATOM     18  C   UNL     1      -3.477  -7.120   3.410  0.00  0.00    +0.051 A 
ATOM     19  C   UNL     1      -4.318  -7.872   2.605  0.00  0.00    +0.162 A 
ATOM     20  C   UNL     1      -3.798  -8.562   1.516  0.00  0.00    +0.164 A 
ATOM     21  C   UNL     1      -2.441  -8.492   1.240  0.00  0.00    +0.076 A 
ATOM     22  O   UNL     1      -4.607  -9.300   0.708  0.00  0.00    -0.485 OA
ATOM     23  C   UNL     1      -5.897  -9.642   1.227  0.00  0.00    +0.270 C 
ATOM     24  C   UNL     1      -6.514  -8.382   1.849  0.00  0.00    +0.270 C 
ATOM     25  O   UNL     1      -5.647  -7.927   2.893  0.00  0.00    -0.485 OA
ENDBRANCH  13  16
ENDBRANCH   3  13
BRANCH   4  26
ATOM     26  N   UNL     1       0.100  -7.440  -1.527  0.00  0.00    -0.282 N 
ATOM     27  H   UNL     1       0.011  -8.316  -1.120  0.00  0.00    +0.155 HD
BRANCH  26  28
ATOM     28  C   UNL     1      -0.008  -7.301  -2.913  0.00  0.00    +0.037 A 
ATOM     29  C   UNL     1      -0.025  -6.035  -3.486  0.00  0.00    +0.023 A 
ATOM     30  C   UNL     1      -0.131  -5.900  -4.856  0.00  0.00    +0.002 A 
ATOM     31  C   UNL     1      -0.220  -7.024  -5.658  0.00  0.00    +0.000 A 
ATOM     32  C   UNL     1      -0.203  -8.285  -5.091  0.00  0.00    +0.005 A 
ATOM     33  C   UNL     1      -0.092  -8.427  -3.722  0.00  0.00    -0.029 A 
ATOM     34  C   UNL     1      -0.067  -9.802  -3.105  0.00  0.00    +0.045 C 
ENDBRANCH  26  28
ENDBRANCH   4  26
TORSDOF 5
