REMARK  Name = ZINC22735089
REMARK  9 active torsions:
REMARK  status: ('A' for Active; 'I' for Inactive)
REMARK    1  A    between atoms: C_1  and  N_2
REMARK    2  A    between atoms: N_5  and  C_8
REMARK    3  A    between atoms: C_8  and  C_10
REMARK    4  A    between atoms: C_8  and  C_27
REMARK    5  A    between atoms: C_10  and  N_11
REMARK    6  A    between atoms: C_12  and  C_14
REMARK    7  A    between atoms: N_16  and  C_17
REMARK    8  A    between atoms: C_17  and  C_18
REMARK    9  A    between atoms: N_36  and  C_37
REMARK                            x       y       z     vdW  Elec       q    Type
REMARK                         _______ _______ _______ _____ _____    ______ ____
ROOT
ATOM      1  C   UNL     1       3.289  -2.401   4.320  0.00  0.00    +0.104 C 
ENDROOT
BRANCH   1   2
ATOM      2  C   UNL     1       2.616  -1.858   3.086  0.00  0.00    -0.028 A 
ATOM      3  C   UNL     1       1.773  -2.665   2.345  0.00  0.00    +0.007 A 
ATOM      4  C   UNL     1       1.161  -2.167   1.215  0.00  0.00    +0.024 A 
ATOM      5  C   UNL     1       1.385  -0.850   0.811  0.00  0.00    +0.033 A 
ATOM      6  C   UNL     1       2.225  -0.044   1.560  0.00  0.00    -0.026 A 
ATOM      7  C   UNL     1       2.839  -0.553   2.694  0.00  0.00    +0.010 A 
ATOM      8  C   UNL     1       2.496   1.392   1.189  0.00  0.00    +0.038 C 
ATOM      9  C   UNL     1       2.056   1.642  -0.256  0.00  0.00    +0.024 C 
ATOM     10  C   UNL     1       0.652   1.050  -0.430  0.00  0.00    +0.105 C 
ATOM     11  N   UNL     1       0.743  -0.408  -0.344  0.00  0.00    -0.333 N 
ATOM     12  C   UNL     1      -0.582  -1.028  -0.479  0.00  0.00    +0.129 C 
ENDBRANCH   1   2
BRANCH   1  17
ATOM     13  C   UNL     1      -0.151  -4.864   8.062  0.00  0.00    -0.096 C 
ATOM     14  N   UNL     1       0.794  -4.018   7.321  0.00  0.00    +0.379 N 
ATOM     15  C   UNL     1       1.994  -4.776   6.941  0.00  0.00    -0.064 C 
ATOM     16  C   UNL     1       2.985  -3.841   6.243  0.00  0.00    +0.066 C 
ATOM     17  N   UNL     1       2.345  -3.247   5.061  0.00  0.00    -0.297 NA
ATOM     18  C   UNL     1       1.144  -2.490   5.441  0.00  0.00    +0.066 C 
ATOM     19  C   UNL     1       0.154  -3.425   6.138  0.00  0.00    -0.064 C 
ATOM     20  H   UNL     1       1.105  -3.199   7.986  0.00  0.00    -0.082 HD
ENDBRANCH   1  17
BRANCH   1  21
ATOM     21  C   UNL     1       4.507  -3.232   3.912  0.00  0.00    +0.128 C 
BRANCH  21  22
ATOM     22  N   UNL     1       5.486  -2.369   3.246  0.00  0.00    -0.306 N 
ATOM     23  C   UNL     1       6.682  -2.868   2.875  0.00  0.00    +0.299 C 
ATOM     24  O   UNL     1       6.948  -4.032   3.093  0.00  0.00    -0.265 OA
ATOM     25  H   UNL     1       5.245  -1.314   3.048  0.00  0.00    +0.149 HD
BRANCH  23  26
ATOM     26  C   UNL     1       7.681  -1.988   2.195  0.00  0.00    +0.299 C 
ATOM     27  O   UNL     1       7.415  -0.825   1.977  0.00  0.00    -0.265 OA
ATOM     28  N   UNL     1       8.876  -2.487   1.824  0.00  0.00    -0.303 N 
ATOM     29  H   UNL     1       9.117  -3.542   2.022  0.00  0.00    +0.149 HD
BRANCH  28  30
ATOM     30  C   UNL     1       9.855  -1.625   1.158  0.00  0.00    +0.140 C 
BRANCH  30  31
ATOM     31  C   UNL     1      11.098  -2.419   0.851  0.00  0.00    -0.027 A 
ATOM     32  C   UNL     1      12.127  -2.474   1.773  0.00  0.00    +0.009 A 
ATOM     33  C   UNL     1      13.267  -3.206   1.499  0.00  0.00    +0.050 A 
ATOM     34  C   UNL     1      13.386  -3.877   0.292  0.00  0.00    +0.166 A 
ATOM     35  C   UNL     1      12.352  -3.817  -0.639  0.00  0.00    +0.167 A 
ATOM     36  C   UNL     1      11.210  -3.087  -0.354  0.00  0.00    +0.054 A 
ATOM     37  O   UNL     1      12.707  -4.553  -1.733  0.00  0.00    -0.453 OA
ATOM     38  C   UNL     1      14.133  -4.726  -1.633  0.00  0.00    +0.466 C 
ATOM     39  O   UNL     1      14.389  -4.650  -0.218  0.00  0.00    -0.453 OA
ENDBRANCH  30  31
ENDBRANCH  28  30
ENDBRANCH  23  26
ENDBRANCH  21  22
ENDBRANCH   1  21
TORSDOF 7
