REMARK  Name = ZINC18375649
REMARK  6 active torsions:
REMARK  status: ('A' for Active; 'I' for Inactive)
REMARK    1  A    between atoms: C_8  and  C_12
REMARK    2  A    between atoms: C_12  and  S_13
REMARK    3  A    between atoms: S_13  and  C_14
REMARK    4  A    between atoms: N_19  and  C_20
REMARK    5  A    between atoms: C_23  and  O_26
REMARK    6  A    between atoms: O_26  and  C_27
REMARK                            x       y       z     vdW  Elec       q    Type
REMARK                         _______ _______ _______ _____ _____    ______ ____
ROOT
ATOM      1  C   UNL     1       5.741   3.348   1.587  0.00  0.00    +0.160 A 
ATOM      2  N   UNL     1       6.320   3.769   0.479  0.00  0.00    -0.133 NA
ATOM      3  N   UNL     1       7.617   4.226   0.515  0.00  0.00    -0.125 NA
ATOM      4  C   UNL     1       8.280   4.230   1.655  0.00  0.00    +0.187 A 
ATOM      5  S   UNL     1       7.055   3.571   2.776  0.00  0.00    -0.024 S 
ATOM      6  N   UNL     1       9.583   4.637   1.915  0.00  0.00    -0.292 N 
ATOM      7  H   UNL     1       9.968   4.500   2.795  0.00  0.00    +0.154 HD
ENDROOT
BRANCH   6   8
ATOM      8  C   UNL     1      10.341   5.245   0.907  0.00  0.00    +0.033 A 
ATOM      9  C   UNL     1      11.727   5.171   0.940  0.00  0.00    +0.027 A 
ATOM     10  C   UNL     1      12.473   5.766  -0.059  0.00  0.00    +0.048 A 
ATOM     11  C   UNL     1      11.839   6.446  -1.088  0.00  0.00    +0.130 A 
ATOM     12  C   UNL     1      10.454   6.525  -1.118  0.00  0.00    +0.048 A 
ATOM     13  C   UNL     1       9.706   5.926  -0.124  0.00  0.00    +0.027 A 
BRANCH  11  14
ATOM     14  O   UNL     1      12.575   7.036  -2.067  0.00  0.00    -0.406 OA
BRANCH  14  15
ATOM     15  C   UNL     1      13.995   6.916  -1.973  0.00  0.00    +0.575 C 
ATOM     16  F   UNL     1      14.352   5.563  -1.998  0.00  0.00    -0.133 F 
ATOM     17  F   UNL     1      14.592   7.575  -3.054  0.00  0.00    -0.133 F 
ATOM     18  F   UNL     1      14.434   7.492  -0.776  0.00  0.00    -0.133 F 
ENDBRANCH  14  15
ENDBRANCH  11  14
ENDBRANCH   6   8
BRANCH   1  19
ATOM     19  S   UNL     1       4.111   2.723   1.828  0.00  0.00    -0.091 S 
BRANCH  19  20
ATOM     20  C   UNL     1       3.365   2.794   0.176  0.00  0.00    +0.132 C 
BRANCH  20  28
ATOM     21  C   UNL     1      -0.985  -1.382   0.596  0.00  0.00    +0.005 A 
ATOM     22  C   UNL     1      -2.073  -0.499   0.538  0.00  0.00    +0.018 A 
ATOM     23  C   UNL     1      -1.863   0.831   0.423  0.00  0.00    +0.096 A 
ATOM     24  N   UNL     1      -0.599   1.334   0.362  0.00  0.00    -0.268 N 
ATOM     25  C   UNL     1       0.482   0.499   0.414  0.00  0.00    +0.140 A 
ATOM     26  C   UNL     1       0.284  -0.889   0.535  0.00  0.00    +0.047 A 
ATOM     27  N   UNL     1       1.722   0.982   0.354  0.00  0.00    -0.233 NA
ATOM     28  C   UNL     1       1.950   2.281   0.242  0.00  0.00    +0.059 A 
ATOM     29  C   UNL     1       0.892   3.167   0.185  0.00  0.00    +0.094 A 
ATOM     30  C   UNL     1      -0.414   2.666   0.247  0.00  0.00    +0.259 A 
ATOM     31  O   UNL     1      -1.371   3.422   0.193  0.00  0.00    -0.267 OA
ENDBRANCH  20  28
ENDBRANCH  19  20
ENDBRANCH   1  19
TORSDOF 6
