REMARK  Name = ZINC36826223
REMARK  4 active torsions:
REMARK  status: ('A' for Active; 'I' for Inactive)
REMARK    1  A    between atoms: C_1  and  C_2
REMARK    2  A    between atoms: C_5  and  S_9
REMARK    3  A    between atoms: C_7  and  N_8
REMARK    4  A    between atoms: S_9  and  N_12
REMARK                            x       y       z     vdW  Elec       q    Type
REMARK                         _______ _______ _______ _____ _____    ______ ____
ROOT
ATOM      1  S   UNL     1       0.062  -4.535  -0.031  0.00  0.00    +0.061 S 
ATOM      2  O   UNL     1      -0.186  -3.974   1.251  0.00  0.00    -0.153 OA
ATOM      3  O   UNL     1      -0.689  -5.628  -0.542  0.00  0.00    -0.153 OA
ENDROOT
BRANCH   1   4
ATOM      4  N   UNL     1       1.650  -5.004  -0.044  0.00  0.00    -0.173 NA
ATOM      5  C   UNL     1       2.335  -5.305  -1.309  0.00  0.00    +0.110 C 
ATOM      6  C   UNL     1       2.968  -6.696  -1.211  0.00  0.00    +0.017 C 
ATOM      7  C   UNL     1       3.866  -6.764   0.027  0.00  0.00    +0.006 C 
ATOM      8  C   UNL     1       3.016  -6.530   1.282  0.00  0.00    +0.008 C 
ATOM      9  C   UNL     1       2.407  -5.123   1.208  0.00  0.00    +0.083 C 
ATOM     10  C   UNL     1       1.491  -4.876   2.402  0.00  0.00    +0.021 C 
ATOM     11  C   UNL     1       0.380  -5.927   2.434  0.00  0.00    +0.002 C 
ATOM     12  C   UNL     1       1.007  -7.319   2.547  0.00  0.00    +0.000 C 
ATOM     13  C   UNL     1       1.910  -7.588   1.331  0.00  0.00    +0.005 C 
ENDBRANCH   1   4
BRANCH   1  18
ATOM     14  C   UNL     1      -0.509  -0.050  -4.033  0.00  0.00    +0.045 C 
ATOM     15  C   UNL     1      -0.366  -1.168  -3.033  0.00  0.00    -0.030 A 
ATOM     16  C   UNL     1      -0.541  -2.479  -3.432  0.00  0.00    +0.007 A 
ATOM     17  C   UNL     1      -0.410  -3.505  -2.514  0.00  0.00    +0.029 A 
ATOM     18  C   UNL     1      -0.103  -3.223  -1.196  0.00  0.00    +0.107 A 
ATOM     19  C   UNL     1       0.073  -1.915  -0.790  0.00  0.00    +0.051 A 
ATOM     20  C   UNL     1      -0.052  -0.882  -1.711  0.00  0.00    +0.029 A 
BRANCH  20  21
ATOM     21  N   UNL     1       0.131   0.442  -1.305  0.00  0.00    -0.358 N 
ATOM     22  H   UNL     1       0.039   1.163  -1.948  0.00  0.00    +0.142 HD
ATOM     23  H   UNL     1       0.350   0.641  -0.382  0.00  0.00    +0.142 HD
ENDBRANCH  20  21
ENDBRANCH   1  18
TORSDOF 3
