REMARK  Name = ZINC39517262
REMARK  11 active torsions:
REMARK  status: ('A' for Active; 'I' for Inactive)
REMARK    1  A    between atoms: C_1  and  C_2
REMARK    2  A    between atoms: C_2  and  C_3
REMARK    3  A    between atoms: C_2  and  C_4
REMARK    4  A    between atoms: C_6  and  C_16
REMARK    5  A    between atoms: N_10  and  C_13
REMARK    6  A    between atoms: C_13  and  C_14
REMARK    7  A    between atoms: C_13  and  C_15
REMARK    8  A    between atoms: N_18  and  C_19
REMARK    9  A    between atoms: C_24  and  S_25
REMARK   10  A    between atoms: S_25  and  C_26
REMARK   11  A    between atoms: C_26  and  C_27
REMARK                            x       y       z     vdW  Elec       q    Type
REMARK                         _______ _______ _______ _____ _____    ______ ____
ROOT
ATOM      1  C   UNL     1      -0.090  -1.215  -4.845  0.00  0.00    +0.249 C 
ATOM      2  O   UNL     1       0.496  -1.605  -5.837  0.00  0.00    -0.270 OA
ATOM      3  N   UNL     1      -1.400  -0.906  -4.914  0.00  0.00    -0.281 N 
ATOM      4  H   UNL     1      -1.883  -0.658  -4.110  0.00  0.00    +0.155 HD
ENDROOT
BRANCH   1   7
ATOM      5  C   UNL     1       0.701  -0.521  -1.231  0.00  0.00    +0.047 A 
ATOM      6  C   UNL     1      -0.013  -0.635  -2.414  0.00  0.00    +0.037 A 
ATOM      7  C   UNL     1       0.635  -1.080  -3.564  0.00  0.00    +0.051 A 
ATOM      8  C   UNL     1       2.008  -1.397  -3.465  0.00  0.00    +0.051 A 
ATOM      9  C   UNL     1       2.973  -1.864  -4.383  0.00  0.00    +0.145 A 
ATOM     10  N   UNL     1       4.110  -1.994  -3.761  0.00  0.00    -0.177 NA
ATOM     11  N   UNL     1       3.959  -1.625  -2.419  0.00  0.00    -0.244 N 
ATOM     12  C   UNL     1       2.655  -1.252  -2.222  0.00  0.00    +0.159 A 
ATOM     13  N   UNL     1       1.980  -0.818  -1.166  0.00  0.00    -0.232 NA
BRANCH   5  15
ATOM     14  C   UNL     1      -0.019   1.490   0.028  0.00  0.00    +0.014 C 
ATOM     15  C   UNL     1      -0.005  -0.040   0.010  0.00  0.00    +0.032 C 
ATOM     16  C   UNL     1      -1.442  -0.563   0.015  0.00  0.00    +0.014 C 
ENDBRANCH   5  15
BRANCH  11  17
ATOM     17  C   UNL     1       5.012  -1.637  -1.401  0.00  0.00    +0.103 C 
ATOM     18  C   UNL     1       5.558  -3.058  -1.247  0.00  0.00    +0.032 C 
ATOM     19  C   UNL     1       6.144  -0.699  -1.828  0.00  0.00    +0.032 C 
ENDBRANCH  11  17
ENDBRANCH   1   7
BRANCH   3  20
ATOM     20  C   UNL     1      -2.064  -0.944  -6.146  0.00  0.00    +0.047 A 
ATOM     21  C   UNL     1      -1.717  -1.895  -7.095  0.00  0.00    +0.024 A 
ATOM     22  C   UNL     1      -2.374  -1.931  -8.310  0.00  0.00    +0.002 A 
ATOM     23  C   UNL     1      -3.379  -1.021  -8.585  0.00  0.00    +0.001 A 
ATOM     24  C   UNL     1      -3.732  -0.070  -7.646  0.00  0.00    +0.016 A 
ATOM     25  C   UNL     1      -3.082  -0.030  -6.421  0.00  0.00    +0.030 A 
BRANCH  25  26
ATOM     26  S   UNL     1      -3.534   1.177  -5.219  0.00  0.00    -0.114 S 
BRANCH  26  27
ATOM     27  C   UNL     1      -4.868   2.112  -6.017  0.00  0.00    +0.169 C 
BRANCH  27  28
ATOM     28  C   UNL     1      -5.353   3.191  -5.083  0.00  0.00    +0.221 C 
ATOM     29  O   UNL     1      -4.848   3.317  -3.988  0.00  0.00    -0.275 OA
ATOM     30  N   UNL     1      -6.347   4.016  -5.466  0.00  0.00    -0.329 N 
ATOM     31  H   UNL     1      -6.751   3.916  -6.343  0.00  0.00    +0.145 HD
ATOM     32  H   UNL     1      -6.660   4.711  -4.865  0.00  0.00    +0.145 HD
ENDBRANCH  27  28
ENDBRANCH  26  27
ENDBRANCH  25  26
ENDBRANCH   3  20
TORSDOF 7
