REMARK  Name = ZINC01099716
REMARK  4 active torsions:
REMARK  status: ('A' for Active; 'I' for Inactive)
REMARK    1  A    between atoms: C_4  and  C_7
REMARK    2  A    between atoms: C_7  and  C_9
REMARK    3  A    between atoms: C_7  and  S_16
REMARK    4  A    between atoms: S_16  and  C_17
REMARK                            x       y       z     vdW  Elec       q    Type
REMARK                         _______ _______ _______ _____ _____    ______ ____
ROOT
ATOM      1  C   UNL     1       2.490   1.047  -0.016  0.00  0.00    +0.114 C 
ENDROOT
BRANCH   1   2
ATOM      2  C   UNL     1       1.136   1.709  -0.037  0.00  0.00    -0.030 A 
ATOM      3  C   UNL     1       1.041   3.088  -0.002  0.00  0.00    +0.006 A 
ATOM      4  C   UNL     1      -0.201   3.695  -0.016  0.00  0.00    +0.020 A 
ATOM      5  C   UNL     1      -1.347   2.924  -0.076  0.00  0.00    +0.041 A 
ATOM      6  C   UNL     1      -1.251   1.544  -0.112  0.00  0.00    +0.020 A 
ATOM      7  C   UNL     1      -0.009   0.937  -0.093  0.00  0.00    +0.006 A 
ATOM      8 CL   UNL     1      -2.907   3.686  -0.100  0.00  0.00    -0.084 Cl
ENDBRANCH   1   2
BRANCH   1  12
ATOM      9  C   UNL     1       4.529   1.856  -3.682  0.00  0.00    +0.000 A 
ATOM     10  C   UNL     1       4.097   0.574  -3.399  0.00  0.00    +0.000 A 
ATOM     11  C   UNL     1       3.437   0.312  -2.213  0.00  0.00    +0.005 A 
ATOM     12  C   UNL     1       3.209   1.333  -1.309  0.00  0.00    -0.030 A 
ATOM     13  C   UNL     1       3.636   2.616  -1.594  0.00  0.00    +0.005 A 
ATOM     14  C   UNL     1       4.300   2.877  -2.778  0.00  0.00    +0.000 A 
ENDBRANCH   1  12
BRANCH   1  15
ATOM     15  S   UNL     1       3.460   1.698   1.372  0.00  0.00    -0.073 S 
BRANCH  15  16
ATOM     16  C   UNL     1       4.934   0.734   1.351  0.00  0.00    +0.199 A 
ATOM     17  N   UNL     1       5.881   0.951   2.241  0.00  0.00    -0.199 NA
ATOM     18  C   UNL     1       6.975   0.203   2.199  0.00  0.00    +0.176 A 
ATOM     19  S   UNL     1       6.644  -0.827   0.843  0.00  0.00    +0.050 S 
ATOM     20  N   UNL     1       5.100  -0.204   0.442  0.00  0.00    -0.181 NA
ATOM     21  N   UNL     1       8.089   0.239   3.017  0.00  0.00    -0.336 N 
ATOM     22  H   UNL     1       8.825  -0.374   2.862  0.00  0.00    +0.144 HD
ATOM     23  H   UNL     1       8.136   0.878   3.746  0.00  0.00    +0.144 HD
ENDBRANCH  15  16
ENDBRANCH   1  15
TORSDOF 4
