REMARK  Name = ZINC00637007
REMARK  6 active torsions:
REMARK  status: ('A' for Active; 'I' for Inactive)
REMARK    1  A    between atoms: C_4  and  C_7
REMARK    2  A    between atoms: C_7  and  C_9
REMARK    3  A    between atoms: C_9  and  N_11
REMARK    4  A    between atoms: C_9  and  S_20
REMARK    5  A    between atoms: C_12  and  C_14
REMARK    6  A    between atoms: S_20  and  C_21
REMARK                            x       y       z     vdW  Elec       q    Type
REMARK                         _______ _______ _______ _____ _____    ______ ____
ROOT
ATOM      1  C   UNL     1       2.338   5.489   0.120  0.00  0.00    +0.208 C 
ENDROOT
BRANCH   1   2
ATOM      2  N   UNL     1       3.453   6.096  -0.612  0.00  0.00    -0.293 N 
ATOM      3  C   UNL     1       4.128   7.131  -0.074  0.00  0.00    +0.245 C 
ATOM      4  O   UNL     1       3.812   7.561   1.017  0.00  0.00    -0.270 OA
ATOM      5  H   UNL     1       3.705   5.752  -1.483  0.00  0.00    +0.151 HD
BRANCH   3   6
ATOM      6  C   UNL     1       5.253   7.743  -0.813  0.00  0.00    +0.037 A 
ATOM      7  C   UNL     1       5.622   7.247  -2.065  0.00  0.00    +0.013 A 
ATOM      8  C   UNL     1       6.669   7.826  -2.751  0.00  0.00    +0.001 A 
ATOM      9  C   UNL     1       7.360   8.889  -2.197  0.00  0.00    +0.000 A 
ATOM     10  C   UNL     1       7.003   9.382  -0.954  0.00  0.00    +0.001 A 
ATOM     11  C   UNL     1       5.954   8.815  -0.260  0.00  0.00    +0.013 A 
ENDBRANCH   3   6
ENDBRANCH   1   2
BRANCH   1  12
ATOM     12  C   UNL     1       2.453   3.988   0.057  0.00  0.00    +0.194 C 
ATOM     13  O   UNL     1       1.597   3.338  -0.506  0.00  0.00    -0.289 OA
BRANCH  12  17
ATOM     14  C   UNL     1       5.765   2.036   1.849  0.00  0.00    +0.000 A 
ATOM     15  C   UNL     1       4.761   1.287   1.259  0.00  0.00    +0.001 A 
ATOM     16  C   UNL     1       3.681   1.914   0.676  0.00  0.00    +0.011 A 
ATOM     17  C   UNL     1       3.603   3.311   0.677  0.00  0.00    +0.020 A 
ATOM     18  C   UNL     1       4.624   4.060   1.270  0.00  0.00    +0.011 A 
ATOM     19  C   UNL     1       5.698   3.418   1.849  0.00  0.00    +0.001 A 
ENDBRANCH  12  17
ENDBRANCH   1  12
BRANCH   1  20
ATOM     20  S   UNL     1       0.769   6.008  -0.628  0.00  0.00    -0.095 S 
BRANCH  20  21
ATOM     21  C   UNL     1      -0.400   5.851   0.681  0.00  0.00    +0.010 A 
ATOM     22  C   UNL     1      -0.022   5.271   1.886  0.00  0.00    +0.016 A 
ATOM     23  C   UNL     1      -0.940   5.154   2.911  0.00  0.00    +0.021 A 
ATOM     24  C   UNL     1      -2.237   5.604   2.736  0.00  0.00    +0.041 A 
ATOM     25  C   UNL     1      -2.617   6.177   1.535  0.00  0.00    +0.021 A 
ATOM     26  C   UNL     1      -1.703   6.301   0.508  0.00  0.00    +0.016 A 
ATOM     27 CL   UNL     1      -3.389   5.450   4.026  0.00  0.00    -0.084 Cl
ENDBRANCH  20  21
ENDBRANCH   1  20
TORSDOF 6
