REMARK  Name = ZINC55769689
REMARK  9 active torsions:
REMARK  status: ('A' for Active; 'I' for Inactive)
REMARK    1  A    between atoms: C_1  and  C_2
REMARK    2  A    between atoms: C_4  and  O_18
REMARK    3  A    between atoms: C_7  and  N_8
REMARK    4  A    between atoms: C_9  and  C_11
REMARK    5  A    between atoms: C_12  and  C_17
REMARK    6  A    between atoms: C_15  and  C_16
REMARK    7  A    between atoms: O_18  and  C_19
REMARK    8  A    between atoms: C_19  and  C_20
REMARK    9  A    between atoms: C_19  and  C_21
REMARK                            x       y       z     vdW  Elec       q    Type
REMARK                         _______ _______ _______ _____ _____    ______ ____
ROOT
ATOM      1  C   UNL     1      -0.062   1.399  -0.039  0.00  0.00    +0.046 C 
ATOM      2  C   UNL     1      -0.018  -0.107  -0.000  0.00  0.00    -0.026 A 
ATOM      3  C   UNL     1      -0.011  -0.828  -1.178  0.00  0.00    +0.050 A 
ATOM      4  C   UNL     1       0.029  -2.214  -1.143  0.00  0.00    +0.121 A 
ATOM      5  C   UNL     1       0.063  -2.877   0.076  0.00  0.00    +0.047 A 
ATOM      6  C   UNL     1       0.057  -2.157   1.254  0.00  0.00    +0.027 A 
ATOM      7  C   UNL     1       0.022  -0.769   1.219  0.00  0.00    +0.037 A 
ENDROOT
BRANCH   7   8
ATOM      8  N   UNL     1       0.022  -0.038   2.414  0.00  0.00    -0.281 N 
ATOM      9  C   UNL     1      -0.453  -0.597   3.545  0.00  0.00    +0.253 C 
ATOM     10  O   UNL     1      -0.813  -1.758   3.546  0.00  0.00    -0.270 OA
ATOM     11  H   UNL     1       0.362   0.870   2.427  0.00  0.00    +0.155 HD
BRANCH   9  12
ATOM     12  C   UNL     1      -0.534   0.200   4.782  0.00  0.00    +0.101 A 
ATOM     13  C   UNL     1      -1.673   1.005   5.229  0.00  0.00    +0.093 A 
ATOM     14  N   UNL     1      -1.339   1.545   6.363  0.00  0.00    -0.083 NA
ATOM     15  O   UNL     1      -0.027   1.135   6.692  0.00  0.00    -0.359 OA
ATOM     16  C   UNL     1       0.435   0.326   5.736  0.00  0.00    +0.147 A 
ATOM     17  C   UNL     1       1.791  -0.331   5.711  0.00  0.00    +0.090 C 
ATOM     18  C   UNL     1      -2.986   1.175   4.508  0.00  0.00    +0.070 C 
ENDBRANCH   9  12
ENDBRANCH   7   8
BRANCH   4  19
ATOM     19  O   UNL     1       0.034  -2.924  -2.302  0.00  0.00    -0.489 OA
BRANCH  19  20
ATOM     20  C   UNL     1       0.192  -4.340  -2.196  0.00  0.00    +0.167 C 
ATOM     21  C   UNL     1      -1.171  -4.988  -1.946  0.00  0.00    +0.051 C 
ATOM     22  C   UNL     1       0.785  -4.886  -3.496  0.00  0.00    +0.051 C 
ENDBRANCH  19  20
ENDBRANCH   4  19
TORSDOF 4
