REMARK  Name = ZINC27379617
REMARK  9 active torsions:
REMARK  status: ('A' for Active; 'I' for Inactive)
REMARK    1  A    between atoms: C_1  and  C_2
REMARK    2  A    between atoms: C_2  and  C_3
REMARK    3  A    between atoms: C_2  and  C_4
REMARK    4  A    between atoms: C_4  and  N_5
REMARK    5  A    between atoms: C_6  and  C_8
REMARK    6  A    between atoms: C_13  and  N_14
REMARK    7  A    between atoms: C_15  and  C_17
REMARK    8  A    between atoms: N_20  and  C_23
REMARK    9  A    between atoms: C_28  and  N_29
REMARK                            x       y       z     vdW  Elec       q    Type
REMARK                         _______ _______ _______ _____ _____    ______ ____
ROOT
ATOM      1  N   UNL     1      -0.886   3.353  -1.416  0.00  0.00    -0.285 N 
ATOM      2  C   UNL     1      -0.747   2.028  -1.210  0.00  0.00    +0.220 C 
ATOM      3  O   UNL     1      -1.216   1.239  -2.002  0.00  0.00    -0.275 OA
ATOM      4  H   UNL     1      -0.542   4.067  -0.653  0.00  0.00    +0.155 HD
ENDROOT
BRANCH   1  10
ATOM      5  C   UNL     1      -2.097   5.070  -2.623  0.00  0.00    +0.058 A 
ATOM      6  C   UNL     1      -2.670   5.526  -3.812  0.00  0.00    +0.015 A 
ATOM      7  C   UNL     1      -2.621   4.742  -4.944  0.00  0.00    +0.001 A 
ATOM      8  C   UNL     1      -2.001   3.503  -4.911  0.00  0.00    +0.002 A 
ATOM      9  C   UNL     1      -1.426   3.041  -3.744  0.00  0.00    +0.024 A 
ATOM     10  C   UNL     1      -1.466   3.817  -2.594  0.00  0.00    +0.046 A 
BRANCH   5  12
ATOM     11  N   UNL     1      -2.843   7.058  -1.411  0.00  0.00    -0.311 N 
ATOM     12  C   UNL     1      -2.150   5.902  -1.406  0.00  0.00    +0.246 C 
ATOM     13  O   UNL     1      -1.569   5.545  -0.400  0.00  0.00    -0.270 OA
ATOM     14  H   UNL     1      -3.368   7.381  -2.321  0.00  0.00    +0.149 HD
BRANCH  11  15
ATOM     15  C   UNL     1      -2.896   7.885  -0.202  0.00  0.00    +0.107 C 
BRANCH  15  17
ATOM     16  C   UNL     1      -3.899   9.932   0.821  0.00  0.00    +0.009 C 
ATOM     17  C   UNL     1      -3.740   9.132  -0.474  0.00  0.00    -0.000 C 
ATOM     18  C   UNL     1      -3.046   9.998  -1.527  0.00  0.00    +0.009 C 
ENDBRANCH  15  17
ENDBRANCH  11  15
ENDBRANCH   5  12
ENDBRANCH   1  10
BRANCH   2  19
ATOM     19  C   UNL     1      -0.009   1.528   0.005  0.00  0.00    +0.078 C 
ATOM     20  C   UNL     1       1.432   2.044  -0.023  0.00  0.00    +0.031 C 
ATOM     21  C   UNL     1       2.193   1.483   1.181  0.00  0.00    +0.106 C 
ATOM     22  N   UNL     1       2.179   0.016   1.130  0.00  0.00    -0.328 N 
ATOM     23  C   UNL     1       0.807  -0.505   1.204  0.00  0.00    +0.106 C 
ATOM     24  C   UNL     1       0.005  -0.003   0.001  0.00  0.00    +0.031 C 
BRANCH  22  25
ATOM     25  C   UNL     1       2.975  -0.528   2.141  0.00  0.00    +0.060 A 
ATOM     26  C   UNL     1       2.641  -0.327   3.474  0.00  0.00    +0.025 A 
ATOM     27  C   UNL     1       3.427  -0.870   4.471  0.00  0.00    +0.002 A 
ATOM     28  C   UNL     1       4.553  -1.605   4.143  0.00  0.00    +0.002 A 
ATOM     29  C   UNL     1       4.891  -1.802   2.817  0.00  0.00    +0.034 A 
ATOM     30  C   UNL     1       4.106  -1.266   1.815  0.00  0.00    +0.147 A 
BRANCH  30  31
ATOM     31  N   UNL     1       4.469  -1.477   0.396  0.00  0.00    +0.058 N 
ATOM     32  O   UNL     1       5.460  -2.124   0.111  0.00  0.00    -0.126 OA
ATOM     33  O   UNL     1       3.776  -1.004  -0.487  0.00  0.00    -0.126 OA
ENDBRANCH  30  31
ENDBRANCH  22  25
ENDBRANCH   2  19
TORSDOF 7
