REMARK  Name = ZINC05067249
REMARK  8 active torsions:
REMARK  status: ('A' for Active; 'I' for Inactive)
REMARK    1  A    between atoms: C_1  and  C_2
REMARK    2  A    between atoms: C_5  and  N_9
REMARK    3  A    between atoms: C_10  and  C_12
REMARK    4  A    between atoms: C_12  and  O_13
REMARK    5  A    between atoms: O_13  and  C_14
REMARK    6  A    between atoms: C_14  and  C_16
REMARK    7  A    between atoms: C_16  and  N_17
REMARK    8  A    between atoms: C_25  and  C_27
REMARK                            x       y       z     vdW  Elec       q    Type
REMARK                         _______ _______ _______ _____ _____    ______ ____
ROOT
ATOM      1  C   UNL     1       2.896   1.234  -1.439  0.00  0.00    +0.326 C 
ATOM      2  O   UNL     1       2.153   1.519  -2.348  0.00  0.00    -0.249 OA
ENDROOT
BRANCH   1   3
ATOM      3  O   UNL     1       4.127   0.767  -1.700  0.00  0.00    -0.454 OA
BRANCH   3   4
ATOM      4  C   UNL     1       4.498   0.631  -3.097  0.00  0.00    +0.328 C 
BRANCH   4   6
ATOM      5  N   UNL     1       6.465  -0.112  -4.402  0.00  0.00    -0.281 N 
ATOM      6  C   UNL     1       5.904   0.097  -3.194  0.00  0.00    +0.255 C 
ATOM      7  O   UNL     1       6.532  -0.144  -2.184  0.00  0.00    -0.272 OA
ATOM      8  H   UNL     1       5.941   0.019  -5.208  0.00  0.00    +0.155 HD
BRANCH   5  13
ATOM      9  C   UNL     1      11.882  -1.760  -4.771  0.00  0.00    +0.044 C 
ATOM     10  C   UNL     1      10.443  -1.321  -4.673  0.00  0.00    -0.049 A 
ATOM     11  C   UNL     1       9.658  -1.762  -3.623  0.00  0.00    +0.005 A 
ATOM     12  C   UNL     1       8.339  -1.362  -3.531  0.00  0.00    +0.025 A 
ATOM     13  C   UNL     1       7.801  -0.518  -4.493  0.00  0.00    +0.052 A 
ATOM     14  C   UNL     1       8.591  -0.081  -5.549  0.00  0.00    +0.062 A 
ATOM     15  C   UNL     1       9.912  -0.480  -5.633  0.00  0.00    +0.025 A 
ATOM     16 CL   UNL     1       7.922   0.970  -6.758  0.00  0.00    -0.082 Cl
ENDBRANCH   5  13
ENDBRANCH   4   6
ENDBRANCH   3   4
ENDBRANCH   1   3
BRANCH   1  17
ATOM     17  C   UNL     1       2.441   1.402  -0.013  0.00  0.00    +0.238 C 
BRANCH  17  18
ATOM     18  N   UNL     1       1.071   1.922   0.004  0.00  0.00    -0.213 N 
ATOM     19  C   UNL     1       0.758   3.234   0.016  0.00  0.00    +0.247 C 
ATOM     20  O   UNL     1       1.527   4.172   0.015  0.00  0.00    -0.273 OA
ATOM     21  C   UNL     1      -0.752   3.289   0.031  0.00  0.00    +0.115 C 
ATOM     22  C   UNL     1      -1.270   4.001  -1.214  0.00  0.00    +0.035 C 
ATOM     23  C   UNL     1      -2.800   4.022  -1.194  0.00  0.00    +0.003 C 
ATOM     24  C   UNL     1      -3.283   4.745   0.065  0.00  0.00    +0.000 C 
ATOM     25  C   UNL     1      -2.777   4.005   1.304  0.00  0.00    +0.006 C 
ATOM     26  C   UNL     1      -1.246   3.984   1.295  0.00  0.00    +0.018 C 
ATOM     27  C   UNL     1      -0.740   3.227   2.524  0.00  0.00    +0.010 C 
ATOM     28  N   UNL     1      -1.160   1.879   0.019  0.00  0.00    -0.285 N 
ATOM     29  C   UNL     1      -0.025   1.154   0.009  0.00  0.00    +0.310 C 
ATOM     30  O   UNL     1       0.001  -0.061   0.001  0.00  0.00    -0.252 OA
ATOM     31  H   UNL     1      -2.068   1.537   0.020  0.00  0.00    +0.151 HD
ENDBRANCH  17  18
ENDBRANCH   1  17
TORSDOF 6
