REMARK  Name = ZINC22567797
REMARK  2 active torsions:
REMARK  status: ('A' for Active; 'I' for Inactive)
REMARK    1  A    between atoms: C_13  and  C_29
REMARK    2  A    between atoms: C_19  and  C_24
REMARK                            x       y       z     vdW  Elec       q    Type
REMARK                         _______ _______ _______ _____ _____    ______ ____
ROOT
ATOM      1  C   UNL     1       9.902   1.800   2.347  0.00  0.00    +0.002 A 
ATOM      2  C   UNL     1       9.284   0.581   2.118  0.00  0.00    +0.004 A 
ATOM      3  C   UNL     1       7.970   0.531   1.697  0.00  0.00    +0.048 A 
ATOM      4  C   UNL     1       7.262   1.706   1.503  0.00  0.00    +0.157 A 
ATOM      5  C   UNL     1       7.884   2.942   1.735  0.00  0.00    +0.111 A 
ATOM      6  C   UNL     1       9.213   2.978   2.159  0.00  0.00    +0.031 A 
ATOM      7  N   UNL     1       6.956   3.901   1.466  0.00  0.00    -0.195 NA
ATOM      8  C   UNL     1       5.845   3.319   1.096  0.00  0.00    +0.295 A 
ATOM      9  O   UNL     1       5.996   1.983   1.113  0.00  0.00    -0.424 OA
ATOM     10  N   UNL     1       4.685   3.979   0.746  0.00  0.00    -0.241 N 
ATOM     11  C   UNL     1       3.569   3.261   0.371  0.00  0.00    +0.188 C 
ATOM     12  N   UNL     1       3.622   1.968   0.351  0.00  0.00    -0.243 NA
ATOM     13  C   UNL     1       2.489   1.141  -0.042  0.00  0.00    +0.173 C 
ATOM     14  C   UNL     1       1.199   1.919   0.001  0.00  0.00    +0.041 C 
ATOM     15  C   UNL     1       1.218   3.269   0.025  0.00  0.00    +0.020 C 
ATOM     16  N   UNL     1       2.417   3.931   0.023  0.00  0.00    -0.290 N 
ATOM     17  C   UNL     1      -0.059   4.068   0.059  0.00  0.00    +0.063 C 
ATOM     18  C   UNL     1      -1.168   3.294  -0.659  0.00  0.00    +0.068 C 
ATOM     19  C   UNL     1      -1.335   1.933   0.019  0.00  0.00    +0.091 C 
ATOM     20  C   UNL     1      -0.014   1.211   0.009  0.00  0.00    +0.164 C 
ATOM     21  O   UNL     1       0.002  -0.004   0.002  0.00  0.00    -0.292 OA
ATOM     22  H   UNL     1       4.650   5.078   0.765  0.00  0.00    +0.159 HD
ATOM     23  H   UNL     1       2.462   4.994  -0.255  0.00  0.00    +0.154 HD
ENDROOT
BRANCH  13  24
ATOM     24  C   UNL     1       2.712   0.632  -1.442  0.00  0.00    -0.013 A 
ATOM     25  C   UNL     1       3.218   1.477  -2.412  0.00  0.00    +0.044 A 
ATOM     26  C   UNL     1       3.428   1.010  -3.698  0.00  0.00    +0.126 A 
ATOM     27  C   UNL     1       3.121  -0.302  -4.016  0.00  0.00    +0.076 A 
ATOM     28  C   UNL     1       2.609  -1.146  -3.045  0.00  0.00    +0.126 A 
ATOM     29  C   UNL     1       2.406  -0.678  -1.758  0.00  0.00    +0.044 A 
ATOM     30  F   UNL     1       2.309  -2.427  -3.354  0.00  0.00    -0.205 F 
ATOM     31  F   UNL     1       3.927   1.835  -4.644  0.00  0.00    -0.205 F 
ENDBRANCH  13  24
BRANCH  18  32
ATOM     32  C   UNL     1      -2.460   4.065  -0.574  0.00  0.00    +0.109 A 
ATOM     33  C   UNL     1      -3.172   4.525  -1.619  0.00  0.00    +0.045 A 
ATOM     34  C   UNL     1      -4.304   5.183  -1.085  0.00  0.00    +0.041 A 
ATOM     35  C   UNL     1      -4.212   5.093   0.254  0.00  0.00    +0.195 A 
ATOM     36  O   UNL     1      -3.093   4.415   0.557  0.00  0.00    -0.468 OA
ENDBRANCH  18  32
TORSDOF 2
