REMARK  Name = ZINC20876730
REMARK  9 active torsions:
REMARK  status: ('A' for Active; 'I' for Inactive)
REMARK    1  A    between atoms: C_1  and  O_2
REMARK    2  A    between atoms: O_2  and  C_3
REMARK    3  A    between atoms: C_5  and  C_21
REMARK    4  A    between atoms: C_8  and  O_9
REMARK    5  A    between atoms: O_9  and  C_10
REMARK    6  A    between atoms: C_10  and  C_11
REMARK    7  A    between atoms: C_21  and  N_22
REMARK    8  A    between atoms: N_22  and  C_23
REMARK    9  A    between atoms: C_23  and  C_24
REMARK                            x       y       z     vdW  Elec       q    Type
REMARK                         _______ _______ _______ _____ _____    ______ ____
ROOT
ATOM      1  C   UNL     1      -1.976   1.163   1.348  0.00  0.00    +0.163 A 
ATOM      2  C   UNL     1      -2.590   0.365   0.396  0.00  0.00    +0.051 A 
ATOM      3  C   UNL     1      -3.904  -0.029   0.567  0.00  0.00    -0.060 A 
ATOM      4  C   UNL     1      -4.612   0.380   1.682  0.00  0.00    +0.021 A 
ATOM      5  C   UNL     1      -4.007   1.181   2.634  0.00  0.00    +0.063 A 
ATOM      6  C   UNL     1      -2.688   1.575   2.470  0.00  0.00    +0.176 A 
ATOM      7 BR   UNL     1      -4.979   1.738   4.157  0.00  0.00    -0.046 Br
ENDROOT
BRANCH   1   9
ATOM      8  C   UNL     1      -0.013   1.086   0.008  0.00  0.00    +0.277 C 
ATOM      9  O   UNL     1      -0.682   1.547   1.184  0.00  0.00    -0.491 OA
ENDBRANCH   1   9
BRANCH   6  10
ATOM     10  O   UNL     1      -2.091   2.362   3.405  0.00  0.00    -0.483 OA
BRANCH  10  11
ATOM     11  C   UNL     1      -2.194   3.776   3.224  0.00  0.00    +0.265 C 
BRANCH  11  12
ATOM     12  C   UNL     1      -1.478   4.480   4.348  0.00  0.00    -0.007 A 
ATOM     13  C   UNL     1      -2.165   4.816   5.499  0.00  0.00    +0.011 A 
ATOM     14  C   UNL     1      -1.512   5.457   6.535  0.00  0.00    +0.050 A 
ATOM     15  C   UNL     1      -0.168   5.775   6.417  0.00  0.00    +0.166 A 
ATOM     16  C   UNL     1       0.522   5.441   5.254  0.00  0.00    +0.167 A 
ATOM     17  C   UNL     1      -0.138   4.794   4.222  0.00  0.00    +0.056 A 
ATOM     18  O   UNL     1       1.817   5.856   5.381  0.00  0.00    -0.453 OA
ATOM     19  C   UNL     1       1.810   6.808   6.462  0.00  0.00    +0.466 C 
ATOM     20  O   UNL     1       0.693   6.399   7.272  0.00  0.00    -0.453 OA
ENDBRANCH  11  12
ENDBRANCH  10  11
ENDBRANCH   6  10
BRANCH   3  21
ATOM     21  C   UNL     1      -4.568  -0.902  -0.467  0.00  0.00    -0.046 C 
BRANCH  21  22
ATOM     22  N   UNL     1      -5.205  -0.056  -1.485  0.00  0.00    +0.384 N 
ATOM     23  H   UNL     1      -5.960   0.586  -1.008  0.00  0.00    -0.085 HD
ATOM     24  H   UNL     1      -4.443   0.572  -1.970  0.00  0.00    -0.085 HD
BRANCH  22  25
ATOM     25  C   UNL     1      -5.864  -0.874  -2.512  0.00  0.00    -0.046 C 
BRANCH  25  26
ATOM     26  C   UNL     1      -6.505   0.026  -3.536  0.00  0.00    -0.061 A 
ATOM     27  C   UNL     1      -7.812   0.443  -3.366  0.00  0.00    +0.005 A 
ATOM     28  C   UNL     1      -8.403   1.273  -4.301  0.00  0.00    +0.050 A 
ATOM     29  C   UNL     1      -7.689   1.680  -5.416  0.00  0.00    +0.166 A 
ATOM     30  C   UNL     1      -6.374   1.256  -5.590  0.00  0.00    +0.166 A 
ATOM     31  C   UNL     1      -5.787   0.428  -4.647  0.00  0.00    +0.051 A 
ATOM     32  O   UNL     1      -5.895   1.787  -6.753  0.00  0.00    -0.453 OA
ATOM     33  C   UNL     1      -7.057   2.205  -7.492  0.00  0.00    +0.466 C 
ATOM     34  O   UNL     1      -8.034   2.477  -6.470  0.00  0.00    -0.453 OA
ENDBRANCH  25  26
ENDBRANCH  22  25
ENDBRANCH  21  22
ENDBRANCH   3  21
TORSDOF 8
