REMARK  Name = ZINC12306264
REMARK  6 active torsions:
REMARK  status: ('A' for Active; 'I' for Inactive)
REMARK    1  A    between atoms: C_6  and  C_11
REMARK    2  A    between atoms: C_11  and  N_54
REMARK    3  A    between atoms: C_17  and  C_19
REMARK    4  A    between atoms: C_19  and  C_20
REMARK    5  A    between atoms: N_22  and  C_23
REMARK    6  A    between atoms: C_23  and  C_24
REMARK                            x       y       z     vdW  Elec       q    Type
REMARK                         _______ _______ _______ _____ _____    ______ ____
ROOT
ATOM      1  C   UNL     1       2.252   3.873   2.921  0.00  0.00    -0.058 C 
ATOM      2  C   UNL     1       2.131   4.644   4.237  0.00  0.00    +0.085 C 
ATOM      3  N   UNL     1       2.099   6.080   3.975  0.00  0.00    -0.318 N 
ATOM      4  C   UNL     1       1.815   6.593   2.773  0.00  0.00    +0.200 C 
ATOM      5  O   UNL     1       1.780   7.799   2.651  0.00  0.00    -0.278 OA
ATOM      6  C   UNL     1       1.539   5.739   1.569  0.00  0.00    +0.028 C 
ATOM      7  H   UNL     1       2.291   6.689   4.705  0.00  0.00    +0.149 HD
ATOM      8  N   UNL     1       1.207   4.369   2.003  0.00  0.00    +0.391 N 
ATOM      9  H   UNL     1       0.306   4.382   2.496  0.00  0.00    -0.080 HD
ENDROOT
BRANCH   8  10
ATOM     10  C   UNL     1       1.099   3.477   0.826  0.00  0.00    -0.042 C 
BRANCH  10  16
ATOM     11  C   UNL     1      -0.979  -2.310   2.804  0.00  0.00    +0.001 A 
ATOM     12  C   UNL     1      -2.075  -1.479   2.577  0.00  0.00    +0.001 A 
ATOM     13  C   UNL     1      -1.907  -0.198   2.151  0.00  0.00    +0.008 A 
ATOM     14  C   UNL     1      -0.610   0.299   1.936  0.00  0.00    -0.018 A 
ATOM     15  C   UNL     1      -0.397   1.617   1.496  0.00  0.00    +0.010 A 
ATOM     16  C   UNL     1       0.874   2.063   1.298  0.00  0.00    -0.063 A 
ATOM     17  C   UNL     1       1.970   1.233   1.526  0.00  0.00    +0.002 A 
ATOM     18  C   UNL     1       1.802  -0.049   1.952  0.00  0.00    +0.009 A 
ATOM     19  C   UNL     1       0.505  -0.545   2.167  0.00  0.00    -0.018 A 
ATOM     20  C   UNL     1       0.291  -1.863   2.607  0.00  0.00    +0.008 A 
ENDBRANCH  10  16
ENDBRANCH   8  10
BRANCH   6  21
ATOM     21  C   UNL     1       0.350   6.319   0.799  0.00  0.00    +0.089 C 
BRANCH  21  22
ATOM     22  C   UNL     1      -0.881   6.269   1.666  0.00  0.00    +0.212 C 
ATOM     23  O   UNL     1      -0.839   5.725   2.749  0.00  0.00    -0.276 OA
ATOM     24  N   UNL     1      -2.030   6.830   1.238  0.00  0.00    -0.310 N 
ATOM     25  H   UNL     1      -2.063   7.265   0.371  0.00  0.00    +0.149 HD
BRANCH  24  26
ATOM     26  C   UNL     1      -3.227   6.782   2.080  0.00  0.00    +0.161 C 
BRANCH  26  27
ATOM     27  C   UNL     1      -4.365   7.474   1.376  0.00  0.00    +0.078 A 
ATOM     28  C   UNL     1      -5.302   6.877   0.621  0.00  0.00    +0.118 A 
ATOM     29  N   UNL     1      -6.165   7.866   0.156  0.00  0.00    -0.300 N 
ATOM     30  C   UNL     1      -7.293   7.960  -0.631  0.00  0.00    +0.100 A 
ATOM     31  C   UNL     1      -7.867   9.139  -0.862  0.00  0.00    +0.067 A 
ATOM     32  S   UNL     1      -6.810  10.250   0.054  0.00  0.00    -0.058 S 
ATOM     33  C   UNL     1      -5.675   9.033   0.679  0.00  0.00    +0.178 A 
ATOM     34  N   UNL     1      -4.618   8.792   1.400  0.00  0.00    -0.225 NA
ENDBRANCH  26  27
ENDBRANCH  24  26
ENDBRANCH  21  22
ENDBRANCH   6  21
TORSDOF 6
