REMARK  Name = ZINC35124123
REMARK  8 active torsions:
REMARK  status: ('A' for Active; 'I' for Inactive)
REMARK    1  A    between atoms: C_1  and  C_2
REMARK    2  A    between atoms: C_7  and  N_8
REMARK    3  A    between atoms: C_12  and  C_24
REMARK    4  A    between atoms: C_16  and  C_18
REMARK    5  A    between atoms: C_24  and  O_26
REMARK    6  A    between atoms: O_26  and  C_27
REMARK    7  A    between atoms: C_27  and  C_28
REMARK    8  A    between atoms: C_27  and  C_29
REMARK                            x       y       z     vdW  Elec       q    Type
REMARK                         _______ _______ _______ _____ _____    ______ ____
ROOT
ATOM      1  N   UNL     1       1.295  -1.772   3.445  0.00  0.00    -0.269 N 
ATOM      2  C   UNL     1       0.559  -0.644   3.498  0.00  0.00    +0.308 C 
ATOM      3  O   UNL     1       0.236  -0.081   2.470  0.00  0.00    -0.252 OA
ATOM      4  N   UNL     1       0.183  -0.140   4.690  0.00  0.00    -0.259 N 
ATOM      5  C   UNL     1      -0.487   1.152   4.806  0.00  0.00    +0.197 C 
ATOM      6  C   UNL     1      -1.470   1.160   6.013  0.00  0.00    +0.105 C 
ATOM      7  S   UNL     1      -0.446   0.181   7.201  0.00  0.00    -0.136 S 
ATOM      8  C   UNL     1       0.417  -0.864   5.953  0.00  0.00    +0.139 C 
ATOM      9  H   UNL     1       1.487  -2.264   4.259  0.00  0.00    +0.156 HD
ENDROOT
BRANCH   1  16
ATOM     10  C   UNL     1       2.073  -4.502   3.248  0.00  0.00    +0.045 C 
ATOM     11  C   UNL     1       2.172  -3.559   2.077  0.00  0.00    -0.029 A 
ATOM     12  C   UNL     1       2.646  -4.013   0.862  0.00  0.00    +0.005 A 
ATOM     13  C   UNL     1       2.737  -3.149  -0.213  0.00  0.00    +0.000 A 
ATOM     14  C   UNL     1       2.354  -1.827  -0.076  0.00  0.00    +0.002 A 
ATOM     15  C   UNL     1       1.879  -1.367   1.137  0.00  0.00    +0.023 A 
ATOM     16  C   UNL     1       1.781  -2.234   2.217  0.00  0.00    +0.038 A 
ENDBRANCH   1  16
BRANCH   8  17
ATOM     17  C   UNL     1      -0.200  -2.263   5.897  0.00  0.00    +0.020 C 
ATOM     18  C   UNL     1      -0.073  -2.932   7.268  0.00  0.00    +0.006 C 
ATOM     19  C   UNL     1      -0.690  -4.330   7.211  0.00  0.00    +0.000 C 
ATOM     20  C   UNL     1      -2.168  -4.221   6.832  0.00  0.00    +0.000 C 
ATOM     21  C   UNL     1      -2.295  -3.553   5.461  0.00  0.00    +0.000 C 
ATOM     22  C   UNL     1      -1.678  -2.154   5.517  0.00  0.00    +0.006 C 
ENDBRANCH   8  17
BRANCH   5  23
ATOM     23  C   UNL     1      -1.257   1.427   3.540  0.00  0.00    +0.329 C 
ATOM     24  O   UNL     1      -1.704   0.510   2.893  0.00  0.00    -0.249 OA
BRANCH  23  25
ATOM     25  O   UNL     1      -1.447   2.692   3.131  0.00  0.00    -0.461 OA
BRANCH  25  26
ATOM     26  C   UNL     1      -2.279   2.885   1.985  0.00  0.00    +0.170 C 
ATOM     27  C   UNL     1      -3.721   3.127   2.438  0.00  0.00    +0.052 C 
ATOM     28  C   UNL     1      -1.783   4.096   1.193  0.00  0.00    +0.052 C 
ENDBRANCH  25  26
ENDBRANCH  23  25
ENDBRANCH   5  23
TORSDOF 5
