REMARK  Name = ZINC23152117
REMARK  5 active torsions:
REMARK  status: ('A' for Active; 'I' for Inactive)
REMARK    1  A    between atoms: C_3  and  N_18
REMARK    2  A    between atoms: C_5  and  S_7
REMARK    3  A    between atoms: S_7  and  N_10
REMARK    4  A    between atoms: C_19  and  C_21
REMARK    5  A    between atoms: C_24  and  C_27
REMARK                            x       y       z     vdW  Elec       q    Type
REMARK                         _______ _______ _______ _____ _____    ______ ____
ROOT
ATOM      1  C   UNL     1      -0.036   3.829   0.185  0.00  0.00    +0.004 A 
ATOM      2  C   UNL     1      -1.226   3.129   0.199  0.00  0.00    +0.023 A 
ATOM      3  C   UNL     1      -1.223   1.753   0.012  0.00  0.00    +0.036 A 
ATOM      4  C   UNL     1      -0.021   1.083  -0.177  0.00  0.00    +0.052 A 
ATOM      5  C   UNL     1       1.166   1.789  -0.189  0.00  0.00    +0.114 A 
ATOM      6  C   UNL     1       1.159   3.160  -0.009  0.00  0.00    +0.029 A 
ENDROOT
BRANCH   3   7
ATOM      7  N   UNL     1      -2.427   1.041   0.020  0.00  0.00    -0.281 N 
ATOM      8  C   UNL     1      -2.465  -0.215   0.507  0.00  0.00    +0.248 C 
ATOM      9  O   UNL     1      -1.477  -0.695   1.027  0.00  0.00    -0.270 OA
ATOM     10  H   UNL     1      -3.344   1.507  -0.372  0.00  0.00    +0.155 HD
BRANCH   8  11
ATOM     11  C   UNL     1      -3.708  -1.008   0.409  0.00  0.00    +0.037 A 
ATOM     12  C   UNL     1      -4.846  -0.458  -0.183  0.00  0.00    +0.013 A 
ATOM     13  C   UNL     1      -6.002  -1.206  -0.276  0.00  0.00    +0.004 A 
ATOM     14  C   UNL     1      -6.037  -2.495   0.225  0.00  0.00    -0.044 A 
ATOM     15  C   UNL     1      -4.914  -3.045   0.818  0.00  0.00    +0.004 A 
ATOM     16  C   UNL     1      -3.750  -2.310   0.912  0.00  0.00    +0.013 A 
BRANCH  14  17
ATOM     17  C   UNL     1      -7.304  -3.305   0.126  0.00  0.00    +0.019 C 
ATOM     18  C   UNL     1      -7.691  -3.467  -1.346  0.00  0.00    +0.008 C 
ATOM     19  C   UNL     1      -8.978  -4.288  -1.447  0.00  0.00    +0.001 C 
ATOM     20  C   UNL     1     -10.103  -3.569  -0.700  0.00  0.00    +0.000 C 
ATOM     21  C   UNL     1      -9.716  -3.407   0.771  0.00  0.00    +0.001 C 
ATOM     22  C   UNL     1      -8.429  -2.585   0.872  0.00  0.00    +0.008 C 
ENDBRANCH  14  17
ENDBRANCH   8  11
ENDBRANCH   3   7
BRANCH   5  23
ATOM     23  S   UNL     1       2.691   0.942  -0.436  0.00  0.00    +0.100 S 
ATOM     24  O   UNL     1       3.705   1.755   0.139  0.00  0.00    -0.146 OA
ATOM     25  O   UNL     1       2.477  -0.405  -0.036  0.00  0.00    -0.146 OA
BRANCH  23  26
ATOM     26  N   UNL     1       2.977   0.912  -2.067  0.00  0.00    -0.118 NA
ATOM     27  C   UNL     1       4.043   0.343  -2.526  0.00  0.00    +0.117 C 
ATOM     28  C   UNL     1       5.044  -0.296  -1.567  0.00  0.00    +0.073 C 
ATOM     29  C   UNL     1       4.960  -1.799  -1.774  0.00  0.00    +0.008 C 
ATOM     30  C   UNL     1       5.895  -2.315  -2.869  0.00  0.00    +0.002 C 
ATOM     31  C   UNL     1       5.904  -1.429  -4.115  0.00  0.00    +0.019 C 
ATOM     32  C   UNL     1       4.525  -0.962  -4.526  0.00  0.00    +0.102 C 
ATOM     33  N   UNL     1       4.272   0.318  -3.825  0.00  0.00    -0.331 N 
ATOM     34  H   UNL     1       4.274   1.264  -4.387  0.00  0.00    +0.147 HD
ENDBRANCH  23  26
ENDBRANCH   5  23
TORSDOF 5
