REMARK  Name = ZINC39672288
REMARK  9 active torsions:
REMARK  status: ('A' for Active; 'I' for Inactive)
REMARK    1  A    between atoms: C_1  and  C_2
REMARK    2  A    between atoms: C_2  and  C_3
REMARK    3  A    between atoms: C_3  and  C_5
REMARK    4  A    between atoms: C_3  and  C_6
REMARK    5  A    between atoms: C_6  and  C_7
REMARK    6  A    between atoms: C_11  and  C_20
REMARK    7  A    between atoms: N_22  and  C_23
REMARK    8  A    between atoms: C_23  and  C_24
REMARK    9  A    between atoms: N_33  and  C_34
REMARK                            x       y       z     vdW  Elec       q    Type
REMARK                         _______ _______ _______ _____ _____    ______ ____
ROOT
ATOM      1  C   UNL     1      -2.531  -2.603   0.144  0.00  0.00    +0.216 C 
ATOM      2  O   UNL     1      -3.396  -1.754   0.101  0.00  0.00    -0.276 OA
ATOM      3  N   UNL     1      -2.865  -3.898   0.305  0.00  0.00    -0.300 N 
ATOM      4  C   UNL     1      -1.958  -5.067   0.387  0.00  0.00    +0.121 C 
ATOM      5  C   UNL     1      -2.581  -5.970   1.475  0.00  0.00    +0.100 C 
ATOM      6  C   UNL     1      -4.068  -5.578   1.506  0.00  0.00    -0.004 C 
ATOM      7  C   UNL     1      -4.224  -4.475   0.449  0.00  0.00    +0.115 C 
ATOM      8  C   UNL     1      -4.938  -6.779   1.148  0.00  0.00    -0.010 C 
ATOM      9  C   UNL     1      -6.414  -6.381   1.242  0.00  0.00    -0.082 C 
ATOM     10  N   UNL     1      -6.714  -5.922   2.603  0.00  0.00    +0.379 N 
ATOM     11  C   UNL     1      -5.941  -4.711   2.905  0.00  0.00    -0.082 C 
ATOM     12  C   UNL     1      -4.445  -5.039   2.882  0.00  0.00    -0.010 C 
ATOM     13  H   UNL     1      -7.699  -5.718   2.679  0.00  0.00    -0.086 HD
ATOM     14  H   UNL     1      -6.472  -6.647   3.262  0.00  0.00    -0.086 HD
ENDROOT
BRANCH   5  15
ATOM     15  C   UNL     1      -1.938  -5.701   2.812  0.00  0.00    +0.218 C 
ATOM     16  O   UNL     1      -1.506  -4.597   3.065  0.00  0.00    -0.275 OA
ATOM     17  N   UNL     1      -1.844  -6.688   3.725  0.00  0.00    -0.311 N 
ATOM     18  H   UNL     1      -2.190  -7.571   3.522  0.00  0.00    +0.149 HD
BRANCH  17  19
ATOM     19  C   UNL     1      -1.219  -6.426   5.024  0.00  0.00    +0.139 C 
BRANCH  19  20
ATOM     20  C   UNL     1      -1.240  -7.684   5.853  0.00  0.00    -0.030 A 
ATOM     21  C   UNL     1      -2.318  -7.948   6.678  0.00  0.00    +0.007 A 
ATOM     22  C   UNL     1      -2.337  -9.100   7.439  0.00  0.00    +0.024 A 
ATOM     23  C   UNL     1      -1.273  -9.993   7.376  0.00  0.00    +0.033 A 
ATOM     24  C   UNL     1      -0.195  -9.730   6.546  0.00  0.00    -0.026 A 
ATOM     25  C   UNL     1      -0.185  -8.573   5.784  0.00  0.00    +0.010 A 
ATOM     26  C   UNL     1       0.970 -10.679   6.443  0.00  0.00    +0.038 C 
ATOM     27  C   UNL     1       1.027 -11.590   7.669  0.00  0.00    +0.024 C 
ATOM     28  C   UNL     1      -0.351 -12.230   7.877  0.00  0.00    +0.105 C 
ATOM     29  N   UNL     1      -1.309 -11.152   8.159  0.00  0.00    -0.333 N 
ATOM     30  C   UNL     1      -2.285 -11.289   9.242  0.00  0.00    +0.129 C 
ENDBRANCH  19  20
ENDBRANCH  17  19
ENDBRANCH   5  15
BRANCH   1  31
ATOM     31  C   UNL     1      -1.082  -2.209   0.015  0.00  0.00    +0.099 C 
BRANCH  31  32
ATOM     32  C   UNL     1      -0.979  -0.692  -0.157  0.00  0.00    -0.006 C 
ATOM     33  C   UNL     1      -1.628  -0.284  -1.482  0.00  0.00    +0.008 C 
BRANCH  32  35
ATOM     34  C   UNL     1       0.595   1.248  -0.210  0.00  0.00    +0.004 C 
ATOM     35  C   UNL     1       0.494  -0.278  -0.163  0.00  0.00    +0.000 C 
ENDBRANCH  32  35
ENDBRANCH  31  32
ENDBRANCH   1  31
TORSDOF 6
