REMARK  Name = ZINC66204639
REMARK  10 active torsions:
REMARK  status: ('A' for Active; 'I' for Inactive)
REMARK    1  A    between atoms: C_1  and  C_2
REMARK    2  A    between atoms: C_5  and  C_7
REMARK    3  A    between atoms: C_7  and  C_8
REMARK    4  A    between atoms: C_8  and  C_9
REMARK    5  A    between atoms: C_9  and  C_10
REMARK    6  A    between atoms: C_10  and  N_11
REMARK    7  A    between atoms: N_14  and  C_15
REMARK    8  A    between atoms: C_15  and  C_17
REMARK    9  A    between atoms: C_15  and  C_18
REMARK   10  A    between atoms: C_22  and  C_24
REMARK                            x       y       z     vdW  Elec       q    Type
REMARK                         _______ _______ _______ _____ _____    ______ ____
ROOT
ATOM      1  N   UNL     1      -2.781  -5.516   5.421  0.00  0.00    -0.299 N 
ATOM      2  C   UNL     1      -3.940  -5.956   5.951  0.00  0.00    +0.300 C 
ATOM      3  O   UNL     1      -5.000  -5.589   5.483  0.00  0.00    -0.253 OA
ATOM      4  N   UNL     1      -3.923  -6.802   7.000  0.00  0.00    -0.290 N 
ATOM      5  H   UNL     1      -1.935  -5.809   5.795  0.00  0.00    +0.150 HD
ATOM      6  H   UNL     1      -3.077  -7.094   7.374  0.00  0.00    +0.151 HD
ENDROOT
BRANCH   4   7
ATOM      7  C   UNL     1      -5.183  -7.280   7.576  0.00  0.00    +0.135 C 
ATOM      8  C   UNL     1      -5.697  -6.260   8.594  0.00  0.00    +0.036 C 
BRANCH   7   9
ATOM      9  C   UNL     1      -4.952  -8.602   8.261  0.00  0.00    +0.105 A 
ATOM     10  N   UNL     1      -3.799  -8.990   8.849  0.00  0.00    -0.348 N 
ATOM     11  H   UNL     1      -2.980  -8.473   8.904  0.00  0.00    +0.167 HD
ATOM     12  C   UNL     1      -3.998 -10.246   9.351  0.00  0.00    +0.110 A 
ATOM     13  C   UNL     1      -5.279 -10.587   9.052  0.00  0.00    +0.064 A 
ATOM     14  N   UNL     1      -5.834  -9.553   8.389  0.00  0.00    -0.342 N 
ATOM     15  H   UNL     1      -6.745  -9.522   8.057  0.00  0.00    +0.167 HD
BRANCH  13  16
ATOM     16  C   UNL     1      -5.947 -11.866   9.398  0.00  0.00    -0.000 A 
ATOM     17  C   UNL     1      -7.271 -12.087   9.021  0.00  0.00    +0.010 A 
ATOM     18  C   UNL     1      -7.888 -13.278   9.346  0.00  0.00    +0.001 A 
ATOM     19  C   UNL     1      -7.195 -14.251  10.044  0.00  0.00    +0.000 A 
ATOM     20  C   UNL     1      -5.882 -14.037  10.421  0.00  0.00    +0.001 A 
ATOM     21  C   UNL     1      -5.253 -12.852  10.095  0.00  0.00    +0.010 A 
ENDBRANCH  13  16
ENDBRANCH   7   9
ENDBRANCH   4   7
BRANCH   1  22
ATOM     22  C   UNL     1      -2.799  -4.597   4.281  0.00  0.00    +0.106 C 
BRANCH  22  23
ATOM     23  C   UNL     1      -1.363  -4.256   3.878  0.00  0.00    +0.019 C 
BRANCH  23  24
ATOM     24  C   UNL     1      -1.382  -3.296   2.687  0.00  0.00    +0.008 C 
BRANCH  24  25
ATOM     25  C   UNL     1       0.054  -2.955   2.284  0.00  0.00    +0.063 C 
BRANCH  25  30
ATOM     26  C   UNL     1      -0.018   1.503   0.010  0.00  0.00    +0.066 C 
ATOM     27  C   UNL     1       0.002  -0.004   0.002  0.00  0.00    +0.046 A 
ATOM     28  C   UNL     1       0.006  -0.708  -1.159  0.00  0.00    +0.070 A 
ATOM     29  S   UNL     1       0.033  -2.379  -0.531  0.00  0.00    -0.080 S 
ATOM     30  C   UNL     1       0.035  -2.009   1.111  0.00  0.00    +0.079 A 
ATOM     31  N   UNL     1       0.022  -0.699   1.122  0.00  0.00    -0.249 NA
ENDBRANCH  25  30
ENDBRANCH  24  25
ENDBRANCH  23  24
ENDBRANCH  22  23
ENDBRANCH   1  22
TORSDOF 8
