REMARK  Name = ZINC60090236
REMARK  9 active torsions:
REMARK  status: ('A' for Active; 'I' for Inactive)
REMARK    1  A    between atoms: C_1  and  C_2
REMARK    2  A    between atoms: C_4  and  N_31
REMARK    3  A    between atoms: C_7  and  N_8
REMARK    4  A    between atoms: C_9  and  C_11
REMARK    5  A    between atoms: C_11  and  C_12
REMARK    6  A    between atoms: C_12  and  N_13
REMARK    7  A    between atoms: C_18  and  C_20
REMARK    8  A    between atoms: C_20  and  N_21
REMARK    9  A    between atoms: N_24  and  C_25
REMARK                            x       y       z     vdW  Elec       q    Type
REMARK                         _______ _______ _______ _____ _____    ______ ____
ROOT
ATOM      1  N   UNL     1      -0.432  -0.141   7.407  0.00  0.00    +0.383 N 
ATOM      2  C   UNL     1       0.737   0.731   7.570  0.00  0.00    -0.078 C 
ATOM      3  C   UNL     1       0.651   1.461   8.912  0.00  0.00    -0.019 C 
ATOM      4  C   UNL     1       0.619   0.431  10.045  0.00  0.00    -0.003 C 
ATOM      5  C   UNL     1      -0.562  -0.519   9.825  0.00  0.00    -0.014 C 
ATOM      6  C   UNL     1      -0.431  -1.175   8.449  0.00  0.00    -0.051 C 
ATOM      7  H   UNL     1      -1.274   0.410   7.483  0.00  0.00    -0.081 HD
ENDROOT
BRANCH   1   8
ATOM      8  C   UNL     1      -0.385  -0.780   6.085  0.00  0.00    -0.069 C 
BRANCH   8   9
ATOM      9  C   UNL     1      -0.502   0.290   4.997  0.00  0.00    +0.077 C 
BRANCH   9  11
ATOM     10  N   UNL     1      -0.539   0.387   2.526  0.00  0.00    -0.285 N 
ATOM     11  C   UNL     1      -0.453  -0.365   3.641  0.00  0.00    +0.215 C 
ATOM     12  O   UNL     1      -0.337  -1.569   3.553  0.00  0.00    -0.276 OA
ATOM     13  H   UNL     1      -0.568   1.354   2.594  0.00  0.00    +0.155 HD
BRANCH  10  20
ATOM     14  C   UNL     1      -2.118   1.603   0.495  0.00  0.00    +0.046 C 
ATOM     15  C   UNL     1      -1.346   0.332   0.250  0.00  0.00    -0.027 A 
ATOM     16  C   UNL     1      -1.388  -0.274  -0.990  0.00  0.00    +0.038 A 
ATOM     17  C   UNL     1      -0.680  -1.440  -1.216  0.00  0.00    +0.127 A 
ATOM     18  C   UNL     1       0.071  -2.004  -0.201  0.00  0.00    +0.034 A 
ATOM     19  C   UNL     1       0.117  -1.402   1.042  0.00  0.00    +0.026 A 
ATOM     20  C   UNL     1      -0.588  -0.228   1.270  0.00  0.00    +0.036 A 
BRANCH  17  21
ATOM     21  N   UNL     1      -0.728  -2.087  -2.546  0.00  0.00    +0.056 N 
ATOM     22  O   UNL     1      -1.385  -1.596  -3.434  0.00  0.00    -0.126 OA
ATOM     23  O   UNL     1      -0.110  -3.107  -2.744  0.00  0.00    -0.126 OA
ENDBRANCH  17  21
ENDBRANCH  10  20
ENDBRANCH   9  11
ENDBRANCH   8   9
ENDBRANCH   1   8
BRANCH   6  24
ATOM     24  C   UNL     1      -1.609  -2.126   8.224  0.00  0.00    +0.090 C 
BRANCH  24  25
ATOM     25  N   UNL     1      -2.852  -1.354   8.148  0.00  0.00    -0.301 N 
ATOM     26  C   UNL     1      -4.036  -1.992   8.053  0.00  0.00    +0.304 C 
ATOM     27  O   UNL     1      -4.072  -3.207   8.030  0.00  0.00    -0.253 OA
ATOM     28  N   UNL     1      -5.179  -1.282   7.983  0.00  0.00    -0.269 N 
ATOM     29  H   UNL     1      -2.823  -0.385   8.166  0.00  0.00    +0.150 HD
ATOM     30  H   UNL     1      -5.146  -0.314   7.926  0.00  0.00    +0.156 HD
BRANCH  28  31
ATOM     31  C   UNL     1      -6.414  -1.941   7.993  0.00  0.00    +0.035 A 
ATOM     32  C   UNL     1      -7.477  -1.438   7.254  0.00  0.00    +0.023 A 
ATOM     33  C   UNL     1      -8.694  -2.091   7.266  0.00  0.00    +0.002 A 
ATOM     34  C   UNL     1      -8.854  -3.244   8.012  0.00  0.00    +0.000 A 
ATOM     35  C   UNL     1      -7.798  -3.747   8.749  0.00  0.00    +0.002 A 
ATOM     36  C   UNL     1      -6.577  -3.102   8.737  0.00  0.00    +0.023 A 
ENDBRANCH  28  31
ENDBRANCH  24  25
ENDBRANCH   6  24
TORSDOF 8
