REMARK  Name = ZINC13064897
REMARK  13 active torsions:
REMARK  status: ('A' for Active; 'I' for Inactive)
REMARK    1  A    between atoms: C_1  and  C_2
REMARK    2  A    between atoms: C_2  and  C_3
REMARK    3  A    between atoms: C_3  and  C_5
REMARK    4  A    between atoms: C_3  and  N_73
REMARK    5  A    between atoms: N_9  and  C_10
REMARK    6  A    between atoms: C_10  and  C_11
REMARK    7  A    between atoms: C_14  and  O_17
REMARK    8  A    between atoms: O_17  and  C_18
REMARK    9  A    between atoms: C_19  and  C_20
REMARK   10  A    between atoms: C_19  and  N_73
REMARK   11  A    between atoms: C_23  and  C_33
REMARK   12  A    between atoms: C_25  and  C_32
REMARK   13  A    between atoms: C_34  and  N_73
REMARK                            x       y       z     vdW  Elec       q    Type
REMARK                         _______ _______ _______ _____ _____    ______ ____
ROOT
ATOM      1  N   UNL     1       0.810   3.905  -0.829  0.00  0.00    +0.391 N 
ATOM      2  H   UNL     1      -0.068   4.049  -0.316  0.00  0.00    -0.080 HD
ENDROOT
BRANCH   1   3
ATOM      3  C   UNL     1       0.513   3.229  -2.109  0.00  0.00    -0.067 C 
ATOM      4  C   UNL     1      -0.348   4.153  -2.994  0.00  0.00    -0.015 C 
ATOM      5  C   UNL     1      -1.347   3.192  -3.686  0.00  0.00    -0.002 C 
ATOM      6  C   UNL     1      -1.673   2.172  -2.567  0.00  0.00    -0.002 C 
ATOM      7  C   UNL     1      -0.329   1.969  -1.838  0.00  0.00    -0.015 C 
ENDBRANCH   1   3
BRANCH   1   8
ATOM      8  C   UNL     1       1.711   3.066  -0.011  0.00  0.00    +0.003 C 
BRANCH   8   9
ATOM      9  C   UNL     1       1.393   3.297   1.444  0.00  0.00    +0.138 A 
ATOM     10  N   UNL     1       0.961   4.411   1.983  0.00  0.00    -0.115 NA
ATOM     11  N   UNL     1       0.808   4.209   3.246  0.00  0.00    -0.023 NA
ATOM     12  N   UNL     1       1.131   2.995   3.526  0.00  0.00    -0.044 NA
ATOM     13  N   UNL     1       1.498   2.400   2.442  0.00  0.00    -0.226 N 
BRANCH  13  14
ATOM     14  C   UNL     1       1.943   1.010   2.319  0.00  0.00    +0.182 C 
BRANCH  14  15
ATOM     15  C   UNL     1       0.742   0.107   2.197  0.00  0.00    -0.026 A 
ATOM     16  C   UNL     1       0.084  -0.324   3.334  0.00  0.00    +0.009 A 
ATOM     17  C   UNL     1      -1.020  -1.147   3.224  0.00  0.00    +0.046 A 
ATOM     18  C   UNL     1      -1.462  -1.550   1.972  0.00  0.00    +0.120 A 
ATOM     19  C   UNL     1      -0.796  -1.121   0.833  0.00  0.00    +0.046 A 
ATOM     20  C   UNL     1       0.304  -0.293   0.948  0.00  0.00    +0.009 A 
BRANCH  18  21
ATOM     21  O   UNL     1      -2.545  -2.364   1.862  0.00  0.00    -0.495 OA
ATOM     22  C   UNL     1      -3.180  -2.766   3.077  0.00  0.00    +0.277 C 
ENDBRANCH  18  21
ENDBRANCH  14  15
ENDBRANCH  13  14
ENDBRANCH   8   9
BRANCH   8  24
ATOM     23  C   UNL     1       3.523   3.106  -1.732  0.00  0.00    +0.002 C 
ATOM     24  C   UNL     1       3.172   3.435  -0.279  0.00  0.00    -0.011 C 
ENDBRANCH   8  24
ENDBRANCH   1   8
BRANCH   1  25
ATOM     25  C   UNL     1       1.437   5.219  -1.085  0.00  0.00    -0.036 C 
BRANCH  25  26
ATOM     26  C   UNL     1       1.260   6.084   0.136  0.00  0.00    +0.001 A 
ATOM     27  C   UNL     1       2.305   6.294   0.973  0.00  0.00    +0.017 A 
ATOM     28  C   UNL     1       2.101   7.144   2.148  0.00  0.00    +0.002 A 
ATOM     29  C   UNL     1       3.143   7.402   3.045  0.00  0.00    -0.041 A 
ATOM     30  C   UNL     1       2.918   8.195   4.134  0.00  0.00    +0.007 A 
ATOM     31  C   UNL     1       1.664   8.748   4.359  0.00  0.00    -0.048 A 
ATOM     32  C   UNL     1       0.623   8.508   3.489  0.00  0.00    +0.029 A 
ATOM     33  C   UNL     1       0.828   7.703   2.372  0.00  0.00    +0.050 A 
ATOM     34  N   UNL     1      -0.195   7.446   1.485  0.00  0.00    -0.322 N 
ATOM     35  H   UNL     1      -1.071   7.832   1.641  0.00  0.00    +0.169 HD
ATOM     36  C   UNL     1       0.004   6.669   0.406  0.00  0.00    +0.251 A 
ATOM     37  O   UNL     1      -0.924   6.463  -0.357  0.00  0.00    -0.268 OA
ATOM     38  C   UNL     1       1.440   9.620   5.567  0.00  0.00    +0.044 C 
ATOM     39  C   UNL     1       4.507   6.806   2.811  0.00  0.00    +0.044 C 
ENDBRANCH  25  26
ENDBRANCH   1  25
TORSDOF 9
