REMARK  Name = ZINC41077281
REMARK  11 active torsions:
REMARK  status: ('A' for Active; 'I' for Inactive)
REMARK    1  A    between atoms: C_1  and  C_2
REMARK    2  A    between atoms: C_2  and  O_3
REMARK    3  A    between atoms: O_3  and  C_4
REMARK    4  A    between atoms: C_4  and  C_5
REMARK    5  A    between atoms: C_11  and  C_15
REMARK    6  A    between atoms: C_15  and  O_16
REMARK    7  A    between atoms: O_16  and  C_17
REMARK    8  A    between atoms: C_17  and  C_19
REMARK    9  A    between atoms: C_19  and  O_20
REMARK   10  A    between atoms: O_20  and  C_21
REMARK   11  A    between atoms: C_26  and  C_27
REMARK                            x       y       z     vdW  Elec       q    Type
REMARK                         _______ _______ _______ _____ _____    ______ ____
ROOT
ATOM      1  C   UNL     1       1.467  -2.260  -2.550  0.00  0.00    +0.128 A 
ATOM      2  N   UNL     1       1.977  -1.483  -3.456  0.00  0.00    -0.157 NA
ATOM      3  N   UNL     1       2.617  -1.995  -4.581  0.00  0.00    -0.171 N 
ATOM      4  C   UNL     1       3.191  -1.287  -5.598  0.00  0.00    +0.275 A 
ATOM      5  O   UNL     1       3.175  -0.066  -5.579  0.00  0.00    -0.266 OA
ATOM      6  C   UNL     1       3.796  -1.962  -6.659  0.00  0.00    +0.099 A 
ATOM      7  C   UNL     1       3.811  -3.340  -6.674  0.00  0.00    +0.087 A 
ATOM      8  N   UNL     1       3.243  -3.999  -5.667  0.00  0.00    -0.223 NA
ATOM      9  C   UNL     1       2.677  -3.358  -4.675  0.00  0.00    +0.199 A 
ATOM     10  S   UNL     1       1.847  -3.882  -3.191  0.00  0.00    -0.030 S 
ENDROOT
BRANCH   1  11
ATOM     11  C   UNL     1       0.746  -1.888  -1.280  0.00  0.00    +0.224 C 
BRANCH  11  12
ATOM     12  O   UNL     1       0.671  -0.465  -1.174  0.00  0.00    -0.373 OA
BRANCH  12  14
ATOM     13  C   UNL     1      -0.019   1.526   0.010  0.00  0.00    +0.034 C 
ATOM     14  C   UNL     1       0.002  -0.004   0.002  0.00  0.00    +0.157 C 
ENDBRANCH  12  14
ENDBRANCH  11  12
ENDBRANCH   1  11
BRANCH   7  15
ATOM     15  C   UNL     1       4.458  -4.088  -7.810  0.00  0.00    +0.287 C 
BRANCH  15  16
ATOM     16  O   UNL     1       5.588  -4.814  -7.321  0.00  0.00    -0.456 OA
BRANCH  16  17
ATOM     17  C   UNL     1       6.281  -5.538  -8.214  0.00  0.00    +0.345 C 
ATOM     18  O   UNL     1       5.939  -5.555  -9.373  0.00  0.00    -0.247 OA
BRANCH  17  19
ATOM     19  C   UNL     1       7.484  -6.330  -7.771  0.00  0.00    +0.349 C 
BRANCH  19  20
ATOM     20  O   UNL     1       8.046  -7.011  -8.894  0.00  0.00    -0.481 OA
BRANCH  20  21
ATOM     21  C   UNL     1       9.146  -7.775  -8.665  0.00  0.00    +0.124 A 
ATOM     22  C   UNL     1       9.670  -7.873  -7.384  0.00  0.00    +0.046 A 
ATOM     23  C   UNL     1      10.788  -8.651  -7.154  0.00  0.00    +0.004 A 
ATOM     24  C   UNL     1      11.385  -9.332  -8.198  0.00  0.00    +0.000 A 
ATOM     25  C   UNL     1      10.865  -9.237  -9.476  0.00  0.00    +0.007 A 
ATOM     26  C   UNL     1       9.743  -8.464  -9.710  0.00  0.00    -0.009 A 
ATOM     27  C   UNL     1       9.173  -8.365 -11.102  0.00  0.00    +0.047 C 
ENDBRANCH  20  21
ENDBRANCH  19  20
ENDBRANCH  17  19
ENDBRANCH  16  17
ENDBRANCH  15  16
ENDBRANCH   7  15
TORSDOF 9
