REMARK  Name = ZINC12702918
REMARK  11 active torsions:
REMARK  status: ('A' for Active; 'I' for Inactive)
REMARK    1  A    between atoms: C_1  and  C_2
REMARK    2  A    between atoms: C_6  and  N_8
REMARK    3  A    between atoms: N_8  and  C_9
REMARK    4  A    between atoms: C_9  and  C_11
REMARK    5  A    between atoms: C_9  and  C_18
REMARK    6  A    between atoms: C_14  and  O_17
REMARK    7  A    between atoms: N_20  and  C_21
REMARK    8  A    between atoms: C_26  and  C_28
REMARK    9  A    between atoms: C_28  and  N_29
REMARK   10  A    between atoms: C_31  and  C_34
REMARK   11  A    between atoms: C_37  and  C_39
REMARK                            x       y       z     vdW  Elec       q    Type
REMARK                         _______ _______ _______ _____ _____    ______ ____
ROOT
ATOM      1  N   UNL     1      -1.319   2.083   0.535  0.00  0.00    -0.254 N 
ATOM      2  C   UNL     1      -1.317   3.424   0.673  0.00  0.00    +0.244 C 
ATOM      3  O   UNL     1      -2.303   4.066   0.379  0.00  0.00    -0.273 OA
ENDROOT
BRANCH   1   9
ATOM      4  C   UNL     1       0.617  -1.127   3.716  0.00  0.00    +0.044 C 
ATOM      5  C   UNL     1       0.746  -0.229   2.513  0.00  0.00    -0.049 A 
ATOM      6  C   UNL     1       1.953  -0.140   1.843  0.00  0.00    +0.003 A 
ATOM      7  C   UNL     1       2.075   0.683   0.740  0.00  0.00    +0.002 A 
ATOM      8  C   UNL     1       0.992   1.421   0.302  0.00  0.00    +0.023 A 
ATOM      9  C   UNL     1      -0.221   1.334   0.972  0.00  0.00    +0.038 A 
ATOM     10  C   UNL     1      -0.341   0.505   2.081  0.00  0.00    +0.027 A 
ENDBRANCH   1   9
BRANCH   1  11
ATOM     11  C   UNL     1      -2.470   1.411  -0.072  0.00  0.00    +0.197 C 
BRANCH  11  12
ATOM     12  C   UNL     1      -2.284  -0.082   0.017  0.00  0.00    -0.018 A 
ATOM     13  C   UNL     1      -1.150  -0.669  -0.511  0.00  0.00    +0.009 A 
ATOM     14  C   UNL     1      -0.975  -2.037  -0.426  0.00  0.00    +0.046 A 
ATOM     15  C   UNL     1      -1.944  -2.822   0.180  0.00  0.00    +0.117 A 
ATOM     16  C   UNL     1      -3.085  -2.231   0.705  0.00  0.00    +0.046 A 
ATOM     17  C   UNL     1      -3.252  -0.862   0.622  0.00  0.00    +0.009 A 
BRANCH  15  18
ATOM     18  O   UNL     1      -1.778  -4.168   0.260  0.00  0.00    -0.507 OA
ATOM     19  H   UNL     1      -2.137  -4.655  -0.495  0.00  0.00    +0.292 HD
ENDBRANCH  15  18
ENDBRANCH  11  12
BRANCH  11  20
ATOM     20  C   UNL     1      -2.583   1.818  -1.519  0.00  0.00    +0.239 C 
ATOM     21  O   UNL     1      -1.781   2.593  -1.996  0.00  0.00    -0.273 OA
ATOM     22  N   UNL     1      -3.575   1.320  -2.283  0.00  0.00    -0.311 N 
ATOM     23  H   UNL     1      -4.217   0.701  -1.902  0.00  0.00    +0.149 HD
BRANCH  22  24
ATOM     24  C   UNL     1      -3.685   1.716  -3.689  0.00  0.00    +0.073 C 
ATOM     25  C   UNL     1      -4.529   3.001  -3.813  0.00  0.00    +0.022 C 
ATOM     26  C   UNL     1      -5.345   2.797  -5.114  0.00  0.00    +0.002 C 
ATOM     27  C   UNL     1      -5.691   1.288  -5.067  0.00  0.00    +0.002 C 
ATOM     28  C   UNL     1      -4.424   0.627  -4.487  0.00  0.00    +0.022 C 
ENDBRANCH  22  24
ENDBRANCH  11  20
ENDBRANCH   1  11
BRANCH   2  29
ATOM     29  C   UNL     1      -0.089   4.126   1.193  0.00  0.00    +0.264 C 
BRANCH  29  30
ATOM     30  N   UNL     1      -0.299   5.575   1.147  0.00  0.00    -0.154 N 
ATOM     31  N   UNL     1      -0.004   6.340   0.152  0.00  0.00    -0.127 NA
ATOM     32  C   UNL     1      -0.338   7.574   0.479  0.00  0.00    +0.239 A 
ATOM     33  N   UNL     1      -0.841   7.519   1.722  0.00  0.00    -0.105 NA
ATOM     34  N   UNL     1      -0.801   6.285   2.096  0.00  0.00    -0.045 NA
BRANCH  32  35
ATOM     35  C   UNL     1      -0.183   8.783  -0.359  0.00  0.00    +0.175 A 
ATOM     36  C   UNL     1      -0.534  10.048  -0.007  0.00  0.00    +0.053 A 
ATOM     37  C   UNL     1      -0.210  10.878  -1.099  0.00  0.00    +0.045 A 
ATOM     38  C   UNL     1       0.309  10.085  -2.057  0.00  0.00    +0.103 A 
ATOM     39  O   UNL     1       0.324   8.820  -1.607  0.00  0.00    -0.457 OA
ATOM     40  C   UNL     1       0.792  10.542  -3.409  0.00  0.00    +0.086 C 
ENDBRANCH  32  35
ENDBRANCH  29  30
ENDBRANCH   2  29
TORSDOF 9
