REMARK  Name = ZINC40008590
REMARK  13 active torsions:
REMARK  status: ('A' for Active; 'I' for Inactive)
REMARK    1  A    between atoms: C_1  and  C_2
REMARK    2  A    between atoms: C_2  and  N_3
REMARK    3  A    between atoms: N_3  and  C_4
REMARK    4  A    between atoms: N_3  and  C_6
REMARK    5  A    between atoms: C_4  and  C_5
REMARK    6  A    between atoms: C_6  and  C_7
REMARK    7  A    between atoms: C_7  and  C_8
REMARK    8  A    between atoms: C_8  and  N_9
REMARK    9  A    between atoms: C_10  and  C_26
REMARK   10  A    between atoms: C_29  and  C_32
REMARK   11  A    between atoms: C_32  and  C_33
REMARK   12  A    between atoms: C_32  and  C_34
REMARK   13  A    between atoms: C_32  and  C_35
REMARK                            x       y       z     vdW  Elec       q    Type
REMARK                         _______ _______ _______ _____ _____    ______ ____
ROOT
ATOM      1  N   UNL     1       2.134  -4.404  -4.007  0.00  0.00    -0.284 N 
ATOM      2  C   UNL     1       1.660  -4.489  -5.399  0.00  0.00    +0.144 C 
ATOM      3  C   UNL     1       2.822  -4.982  -6.196  0.00  0.00    +0.072 A 
ATOM      4  C   UNL     1       2.960  -5.273  -7.627  0.00  0.00    +0.199 A 
ATOM      5  O   UNL     1       2.116  -4.972  -8.452  0.00  0.00    -0.287 OA
ATOM      6  C   UNL     1       4.225  -5.968  -7.973  0.00  0.00    +0.065 A 
ATOM      7  C   UNL     1       4.417  -6.489  -9.253  0.00  0.00    +0.030 A 
ATOM      8  C   UNL     1       5.595  -7.135  -9.556  0.00  0.00    +0.019 A 
ATOM      9  C   UNL     1       6.585  -7.266  -8.590  0.00  0.00    +0.019 A 
ATOM     10  C   UNL     1       6.407  -6.753  -7.325  0.00  0.00    +0.048 A 
ATOM     11  C   UNL     1       5.224  -6.093  -6.994  0.00  0.00    +0.140 A 
ATOM     12  O   UNL     1       5.080  -5.591  -5.746  0.00  0.00    -0.450 OA
ATOM     13  C   UNL     1       3.871  -5.158  -5.338  0.00  0.00    +0.199 A 
ATOM     14  C   UNL     1       3.425  -4.791  -3.982  0.00  0.00    +0.283 C 
ATOM     15  O   UNL     1       4.120  -4.833  -2.986  0.00  0.00    -0.267 OA
ATOM     16 BR   UNL     1       5.865  -7.845 -11.287  0.00  0.00    -0.050 Br
ENDROOT
BRANCH   2  17
ATOM     17  C   UNL     1       1.232  -3.129  -5.886  0.00  0.00    -0.022 A 
ATOM     18  C   UNL     1       1.972  -2.011  -5.552  0.00  0.00    +0.006 A 
ATOM     19  C   UNL     1       1.580  -0.763  -5.999  0.00  0.00    +0.004 A 
ATOM     20  C   UNL     1       0.448  -0.634  -6.781  0.00  0.00    -0.042 A 
ATOM     21  C   UNL     1      -0.292  -1.752  -7.116  0.00  0.00    +0.004 A 
ATOM     22  C   UNL     1       0.102  -3.000  -6.672  0.00  0.00    +0.006 A 
BRANCH  20  23
ATOM     23  C   UNL     1       0.019   0.727  -7.268  0.00  0.00    -0.013 C 
ATOM     24  C   UNL     1       1.131   1.335  -8.125  0.00  0.00    +0.015 C 
ATOM     25  C   UNL     1      -1.254   0.591  -8.106  0.00  0.00    +0.015 C 
ATOM     26  C   UNL     1      -0.255   1.635  -6.068  0.00  0.00    +0.015 C 
ENDBRANCH  20  23
ENDBRANCH   2  17
BRANCH   1  27
ATOM     27  C   UNL     1       1.342  -3.970  -2.854  0.00  0.00    +0.107 C 
BRANCH  27  28
ATOM     28  C   UNL     1       1.480  -2.456  -2.682  0.00  0.00    +0.000 C 
BRANCH  28  29
ATOM     29  C   UNL     1       0.653  -2.002  -1.477  0.00  0.00    -0.077 C 
BRANCH  29  30
ATOM     30  N   UNL     1       0.885  -0.572  -1.235  0.00  0.00    +0.379 N 
ATOM     31  H   UNL     1       1.875  -0.404  -1.133  0.00  0.00    -0.082 HD
BRANCH  30  33
ATOM     32  C   UNL     1       0.724   1.683  -2.176  0.00  0.00    -0.017 C 
ATOM     33  C   UNL     1       0.371   0.207  -2.369  0.00  0.00    -0.082 C 
ENDBRANCH  30  33
BRANCH  30  34
ATOM     34  C   UNL     1       0.191  -0.164  -0.006  0.00  0.00    -0.082 C 
ATOM     35  C   UNL     1       0.833  -0.858   1.197  0.00  0.00    -0.017 C 
ENDBRANCH  30  34
ENDBRANCH  29  30
ENDBRANCH  28  29
ENDBRANCH  27  28
ENDBRANCH   1  27
TORSDOF 8
