REMARK  Name = ZINC03387667
REMARK  9 active torsions:
REMARK  status: ('A' for Active; 'I' for Inactive)
REMARK    1  A    between atoms: C_1  and  N_60
REMARK    2  A    between atoms: C_2  and  C_3
REMARK    3  A    between atoms: C_2  and  N_60
REMARK    4  A    between atoms: C_6  and  O_9
REMARK    5  A    between atoms: O_9  and  C_10
REMARK    6  A    between atoms: C_13  and  N_14
REMARK    7  A    between atoms: C_13  and  N_60
REMARK    8  A    between atoms: N_17  and  C_31
REMARK    9  A    between atoms: C_18  and  C_20
REMARK                            x       y       z     vdW  Elec       q    Type
REMARK                         _______ _______ _______ _____ _____    ______ ____
ROOT
ATOM      1  N   UNL     1       6.227  -0.139   1.058  0.00  0.00    -0.257 N 
ATOM      2  C   UNL     1       6.770   0.161  -0.141  0.00  0.00    +0.181 A 
ATOM      3  S   UNL     1       8.313  -0.322  -0.704  0.00  0.00    -0.011 S 
ATOM      4  N   UNL     1       5.870   0.905  -0.816  0.00  0.00    -0.272 N 
ATOM      5  C   UNL     1       4.763   1.074  -0.018  0.00  0.00    +0.181 A 
ATOM      6  N   UNL     1       4.958   0.455   1.102  0.00  0.00    -0.153 NA
ENDROOT
BRANCH   5   7
ATOM      7  C   UNL     1       3.525   1.847  -0.389  0.00  0.00    +0.278 C 
ATOM      8  C   UNL     1       3.508   3.188   0.358  0.00  0.00    +0.281 C 
ATOM      9  O   UNL     1       2.315   3.890  -0.007  0.00  0.00    -0.484 OA
ATOM     10  C   UNL     1       1.157   3.175   0.005  0.00  0.00    +0.162 A 
ATOM     11  C   UNL     1      -0.057   3.845   0.022  0.00  0.00    +0.049 A 
ATOM     12  C   UNL     1      -1.241   3.132   0.031  0.00  0.00    +0.004 A 
ATOM     13  C   UNL     1      -1.219   1.750   0.017  0.00  0.00    +0.004 A 
ATOM     14  C   UNL     1      -0.013   1.076   0.008  0.00  0.00    +0.049 A 
ATOM     15  C   UNL     1       1.179   1.785   0.000  0.00  0.00    +0.163 A 
ATOM     16  O   UNL     1       2.360   1.107  -0.007  0.00  0.00    -0.474 OA
ENDBRANCH   5   7
BRANCH   4  17
ATOM     17  C   UNL     1       6.037   1.421  -2.108  0.00  0.00    +0.050 A 
ATOM     18  C   UNL     1       5.224   0.981  -3.143  0.00  0.00    +0.026 A 
ATOM     19  C   UNL     1       5.387   1.495  -4.415  0.00  0.00    +0.002 A 
ATOM     20  C   UNL     1       6.367   2.439  -4.659  0.00  0.00    +0.000 A 
ATOM     21  C   UNL     1       7.182   2.877  -3.631  0.00  0.00    +0.002 A 
ATOM     22  C   UNL     1       7.020   2.370  -2.357  0.00  0.00    +0.026 A 
ENDBRANCH   4  17
BRANCH   1  23
ATOM     23  C   UNL     1       6.849  -0.937   2.117  0.00  0.00    +0.072 C 
BRANCH  23  25
ATOM     24  C   UNL     1       5.062  -2.570   2.130  0.00  0.00    -0.093 C 
ATOM     25  N   UNL     1       6.508  -2.359   1.905  0.00  0.00    +0.394 N 
ATOM     26  H   UNL     1       6.736  -2.616   0.938  0.00  0.00    -0.079 HD
BRANCH  25  27
ATOM     27  C   UNL     1       7.291  -3.209   2.826  0.00  0.00    -0.041 C 
BRANCH  27  28
ATOM     28  C   UNL     1       7.091  -4.653   2.443  0.00  0.00    -0.064 A 
ATOM     29  C   UNL     1       6.074  -5.387   3.025  0.00  0.00    +0.005 A 
ATOM     30  C   UNL     1       5.886  -6.709   2.671  0.00  0.00    +0.046 A 
ATOM     31  C   UNL     1       6.725  -7.304   1.740  0.00  0.00    +0.127 A 
ATOM     32  C   UNL     1       7.748  -6.566   1.162  0.00  0.00    +0.046 A 
ATOM     33  C   UNL     1       7.929  -5.243   1.514  0.00  0.00    +0.005 A 
BRANCH  31  34
ATOM     34  O   UNL     1       6.546  -8.606   1.395  0.00  0.00    -0.434 OA
BRANCH  34  35
ATOM     35  C   UNL     1       5.472  -9.303   2.030  0.00  0.00    +0.541 C 
ATOM     36  F   UNL     1       5.672  -9.305   3.415  0.00  0.00    -0.166 F 
ATOM     37  F   UNL     1       4.262  -8.666   1.735  0.00  0.00    -0.166 F 
ENDBRANCH  34  35
ENDBRANCH  31  34
ENDBRANCH  27  28
ENDBRANCH  25  27
ENDBRANCH  23  25
ENDBRANCH   1  23
TORSDOF 8
