REMARK  Name = ZINC54530046
REMARK  6 active torsions:
REMARK  status: ('A' for Active; 'I' for Inactive)
REMARK    1  A    between atoms: C_1  and  C_2
REMARK    2  A    between atoms: C_3  and  C_21
REMARK    3  A    between atoms: C_7  and  C_8
REMARK    4  A    between atoms: N_11  and  C_12
REMARK    5  A    between atoms: C_12  and  C_14
REMARK    6  A    between atoms: C_12  and  C_15
REMARK                            x       y       z     vdW  Elec       q    Type
REMARK                         _______ _______ _______ _____ _____    ______ ____
ROOT
ATOM      1  C   UNL     1      -0.317   1.483   0.010  0.00  0.00    +0.046 C 
ATOM      2  C   UNL     1      -0.141  -0.013   0.002  0.00  0.00    -0.013 A 
ATOM      3  C   UNL     1      -0.122  -0.724  -1.187  0.00  0.00    +0.035 A 
ATOM      4  N   UNL     1       0.033  -2.033  -1.174  0.00  0.00    -0.280 N 
ATOM      5  N   UNL     1       0.173  -2.704  -0.090  0.00  0.00    -0.158 NA
ATOM      6  C   UNL     1       0.171  -2.127   1.105  0.00  0.00    +0.154 A 
ATOM      7  C   UNL     1       0.016  -0.729   1.197  0.00  0.00    +0.109 A 
ATOM      8  N   UNL     1       0.325  -2.888   2.247  0.00  0.00    -0.320 N 
ATOM      9  C   UNL     1      -0.281   0.001  -2.498  0.00  0.00    +0.065 C 
ATOM     10  H   UNL     1       0.326  -2.460   3.118  0.00  0.00    +0.148 HD
ATOM     11  H   UNL     1       0.043  -2.509  -2.020  0.00  0.00    +0.189 HD
ENDROOT
BRANCH   7  12
ATOM     12  C   UNL     1       0.014  -0.046   2.503  0.00  0.00    +0.390 C 
ATOM     13  O   UNL     1      -1.027   0.062   3.135  0.00  0.00    -0.240 OA
ATOM     14  O   UNL     1       1.054   0.413   2.954  0.00  0.00    -0.240 OA
ENDBRANCH   7  12
BRANCH   8  15
ATOM     15  C   UNL     1       0.486  -4.340   2.144  0.00  0.00    +0.106 C 
ATOM     16  C   UNL     1      -0.892  -5.002   2.065  0.00  0.00    +0.033 C 
BRANCH  15  17
ATOM     17  C   UNL     1       1.220  -4.851   3.357  0.00  0.00    +0.011 A 
ATOM     18  C   UNL     1       2.184  -5.800   3.433  0.00  0.00    +0.014 A 
ATOM     19  C   UNL     1       2.723  -6.112   4.667  0.00  0.00    +0.028 A 
ATOM     20  C   UNL     1       2.269  -5.459   5.766  0.00  0.00    +0.078 A 
ATOM     21  S   UNL     1       1.050  -4.359   5.064  0.00  0.00    -0.080 S 
ATOM     22 CL   UNL     1       2.752  -5.640   7.423  0.00  0.00    -0.076 Cl
ENDBRANCH  15  17
ENDBRANCH   8  15
TORSDOF 3
