REMARK  Name = ZINC02652639
REMARK  12 active torsions:
REMARK  status: ('A' for Active; 'I' for Inactive)
REMARK    1  A    between atoms: C_1  and  C_2
REMARK    2  A    between atoms: C_2  and  O_3
REMARK    3  A    between atoms: O_3  and  C_4
REMARK    4  A    between atoms: C_4  and  C_6
REMARK    5  A    between atoms: C_8  and  C_33
REMARK    6  A    between atoms: C_10  and  N_11
REMARK    7  A    between atoms: C_12  and  C_14
REMARK    8  A    between atoms: C_14  and  C_16
REMARK    9  A    between atoms: C_14  and  O_17
REMARK   10  A    between atoms: O_17  and  C_18
REMARK   11  A    between atoms: C_18  and  C_20
REMARK   12  A    between atoms: C_20  and  C_21
REMARK                            x       y       z     vdW  Elec       q    Type
REMARK                         _______ _______ _______ _____ _____    ______ ____
ROOT
ATOM      1  N   UNL     1       4.164  -5.487   4.245  0.00  0.00    -0.276 N 
ATOM      2  C   UNL     1       3.760  -4.996   3.057  0.00  0.00    +0.258 C 
ATOM      3  O   UNL     1       4.270  -5.395   2.031  0.00  0.00    -0.271 OA
ATOM      4  H   UNL     1       3.756  -5.168   5.066  0.00  0.00    +0.155 HD
ENDROOT
BRANCH   1   9
ATOM      5  C   UNL     1       5.710  -7.071   5.414  0.00  0.00    +0.088 A 
ATOM      6  C   UNL     1       6.715  -8.016   5.200  0.00  0.00    +0.033 A 
ATOM      7  C   UNL     1       7.088  -8.261   3.915  0.00  0.00    +0.022 A 
ATOM      8  S   UNL     1       6.027  -7.174   2.982  0.00  0.00    -0.073 S 
ATOM      9  C   UNL     1       5.161  -6.447   4.295  0.00  0.00    +0.086 A 
BRANCH   7  10
ATOM     10  C   UNL     1       8.114  -9.201   3.416  0.00  0.00    -0.011 A 
ATOM     11  C   UNL     1       8.850  -9.976   4.313  0.00  0.00    +0.009 A 
ATOM     12  C   UNL     1       9.803 -10.854   3.840  0.00  0.00    +0.001 A 
ATOM     13  C   UNL     1      10.037 -10.960   2.480  0.00  0.00    +0.000 A 
ATOM     14  C   UNL     1       9.314 -10.191   1.586  0.00  0.00    +0.001 A 
ATOM     15  C   UNL     1       8.355  -9.312   2.045  0.00  0.00    +0.009 A 
ENDBRANCH   7  10
BRANCH   5  16
ATOM     16  C   UNL     1       5.249  -6.747   6.767  0.00  0.00    +0.342 C 
ATOM     17  O   UNL     1       4.372  -5.920   6.929  0.00  0.00    -0.245 OA
BRANCH  16  18
ATOM     18  O   UNL     1       5.798  -7.366   7.832  0.00  0.00    -0.461 OA
BRANCH  18  20
ATOM     19  C   UNL     1       6.029  -7.795  10.218  0.00  0.00    +0.048 C 
ATOM     20  C   UNL     1       5.293  -6.995   9.142  0.00  0.00    +0.229 C 
ENDBRANCH  18  20
ENDBRANCH  16  18
ENDBRANCH   5  16
ENDBRANCH   1   9
BRANCH   2  21
ATOM     21  C   UNL     1       2.676  -3.951   3.002  0.00  0.00    +0.259 C 
ATOM     22  C   UNL     1       1.395  -4.512   3.625  0.00  0.00    +0.062 C 
BRANCH  21  23
ATOM     23  O   UNL     1       2.423  -3.588   1.619  0.00  0.00    -0.452 OA
BRANCH  23  24
ATOM     24  C   UNL     1       2.003  -2.335   1.386  0.00  0.00    +0.312 C 
ATOM     25  O   UNL     1       1.851  -1.567   2.306  0.00  0.00    -0.250 OA
BRANCH  24  26
ATOM     26  C   UNL     1       1.720  -1.886  -0.025  0.00  0.00    +0.159 C 
BRANCH  26  27
ATOM     27  C   UNL     1       1.266  -0.449  -0.013  0.00  0.00    +0.009 A 
ATOM     28  C   UNL     1       0.002  -0.004   0.002  0.00  0.00    +0.200 A 
ATOM     29  O   UNL     1      -0.016   1.340   0.009  0.00  0.00    -0.463 OA
ATOM     30  C   UNL     1       1.237   1.838   0.000  0.00  0.00    +0.135 A 
ATOM     31  C   UNL     1       2.120   0.745  -0.015  0.00  0.00    +0.024 A 
ATOM     32  C   UNL     1       3.496   0.960  -0.028  0.00  0.00    +0.015 A 
ATOM     33  C   UNL     1       3.990   2.249  -0.025  0.00  0.00    -0.043 A 
ATOM     34  C   UNL     1       3.119   3.329  -0.009  0.00  0.00    -0.041 A 
ATOM     35  C   UNL     1       1.752   3.126   0.003  0.00  0.00    +0.050 A 
ATOM     36  C   UNL     1       3.912   4.620  -0.009  0.00  0.00    +0.036 C 
ATOM     37  C   UNL     1       5.330   4.224  -0.469  0.00  0.00    +0.009 C 
ATOM     38  C   UNL     1       5.420   2.745  -0.037  0.00  0.00    +0.036 C 
ENDBRANCH  26  27
ENDBRANCH  24  26
ENDBRANCH  23  24
ENDBRANCH  21  23
ENDBRANCH   2  21
TORSDOF 10
