REMARK  Name = ZINC35698234
REMARK  9 active torsions:
REMARK  status: ('A' for Active; 'I' for Inactive)
REMARK    1  A    between atoms: C_1  and  C_2
REMARK    2  A    between atoms: C_2  and  N_3
REMARK    3  A    between atoms: N_3  and  C_4
REMARK    4  A    between atoms: C_4  and  C_5
REMARK    5  A    between atoms: C_6  and  C_8
REMARK    6  A    between atoms: C_9  and  C_33
REMARK    7  A    between atoms: C_13  and  C_15
REMARK    8  A    between atoms: C_22  and  C_25
REMARK    9  A    between atoms: C_26  and  N_28
REMARK                            x       y       z     vdW  Elec       q    Type
REMARK                         _______ _______ _______ _____ _____    ______ ____
ROOT
ATOM      1  C   UNL     1      -1.024  -0.833   2.515  0.00  0.00    +0.060 C 
ATOM      2  C   UNL     1      -1.391  -1.059   3.827  0.00  0.00    +0.051 C 
ATOM      3  N   UNL     1      -0.525  -0.862   4.809  0.00  0.00    -0.230 NA
ATOM      4  C   UNL     1       0.715  -0.451   4.646  0.00  0.00    +0.166 C 
ATOM      5  N   UNL     1       1.272  -0.172   3.429  0.00  0.00    -0.267 N 
ATOM      6  C   UNL     1       0.389  -0.364   2.249  0.00  0.00    +0.148 C 
ATOM      7  C   UNL     1       2.587   0.249   3.424  0.00  0.00    +0.048 C 
ATOM      8  C   UNL     1       3.217   0.353   4.615  0.00  0.00    +0.072 C 
ATOM      9  S   UNL     1       1.940  -0.148   5.752  0.00  0.00    -0.060 S 
ATOM     10  C   UNL     1      -2.786  -1.533   4.142  0.00  0.00    +0.066 C 
ENDROOT
BRANCH   6  11
ATOM     11  C   UNL     1       0.311   0.950   1.514  0.00  0.00    -0.022 A 
ATOM     12  C   UNL     1       0.453   0.982   0.140  0.00  0.00    +0.007 A 
ATOM     13  C   UNL     1       0.381   2.187  -0.534  0.00  0.00    +0.020 A 
ATOM     14  C   UNL     1       0.167   3.360   0.168  0.00  0.00    +0.041 A 
ATOM     15  C   UNL     1       0.025   3.327   1.543  0.00  0.00    +0.020 A 
ATOM     16  C   UNL     1       0.091   2.121   2.215  0.00  0.00    +0.007 A 
ATOM     17 CL   UNL     1       0.078   4.873  -0.678  0.00  0.00    -0.084 Cl
ENDBRANCH   6  11
BRANCH   1  19
ATOM     18  N   UNL     1      -2.162  -2.284   1.006  0.00  0.00    -0.298 N 
ATOM     19  C   UNL     1      -1.930  -1.038   1.464  0.00  0.00    +0.246 C 
ATOM     20  O   UNL     1      -2.509  -0.088   0.964  0.00  0.00    -0.270 OA
BRANCH  18  22
ATOM     21  C   UNL     1      -0.214  -3.763   1.039  0.00  0.00    +0.024 C 
ATOM     22  C   UNL     1      -1.562  -3.436   1.685  0.00  0.00    +0.104 C 
ENDBRANCH  18  22
BRANCH  18  23
ATOM     23  C   UNL     1      -3.012  -2.487  -0.169  0.00  0.00    +0.104 C 
ATOM     24  C   UNL     1      -4.466  -2.657   0.277  0.00  0.00    +0.024 C 
ENDBRANCH  18  23
ENDBRANCH   1  19
BRANCH   7  25
ATOM     25  C   UNL     1       3.278   0.573   2.167  0.00  0.00    +0.091 C 
ATOM     26  C   UNL     1       4.597   0.842   2.174  0.00  0.00    +0.241 C 
ATOM     27  O   UNL     1       5.314   0.690   3.314  0.00  0.00    -0.271 OA
BRANCH  26  28
ATOM     28  N   UNL     1       5.222   1.272   1.016  0.00  0.00    -0.298 N 
ATOM     29  C   UNL     1       4.550   1.589  -0.253  0.00  0.00    +0.108 C 
ATOM     30  C   UNL     1       5.645   1.998  -1.261  0.00  0.00    +0.020 C 
ATOM     31  C   UNL     1       6.923   1.345  -0.672  0.00  0.00    +0.020 C 
ATOM     32  C   UNL     1       6.670   1.493   0.852  0.00  0.00    +0.108 C 
ENDBRANCH  26  28
ENDBRANCH   7  25
TORSDOF 6
