REMARK  Name = ZINC11378347
REMARK  8 active torsions:
REMARK  status: ('A' for Active; 'I' for Inactive)
REMARK    1  A    between atoms: C_1  and  C_2
REMARK    2  A    between atoms: C_2  and  C_23
REMARK    3  A    between atoms: N_5  and  C_9
REMARK    4  A    between atoms: C_9  and  C_10
REMARK    5  A    between atoms: N_12  and  C_13
REMARK    6  A    between atoms: C_18  and  S_19
REMARK    7  A    between atoms: S_19  and  C_20
REMARK    8  A    between atoms: C_26  and  N_29
REMARK                            x       y       z     vdW  Elec       q    Type
REMARK                         _______ _______ _______ _____ _____    ______ ____
ROOT
ATOM      1  C   UNL     1       1.302  -2.921   1.063  0.00  0.00    +0.047 C 
ATOM      2  C   UNL     1       0.035  -2.205   0.592  0.00  0.00    +0.135 C 
ATOM      3  C   UNL     1       0.017  -0.772   1.086  0.00  0.00    +0.251 C 
ATOM      4  O   UNL     1       0.015  -0.394   2.238  0.00  0.00    -0.272 OA
ATOM      5  N   UNL     1       0.003  -0.005  -0.022  0.00  0.00    -0.215 N 
ATOM      6  C   UNL     1       0.005  -0.746  -1.136  0.00  0.00    +0.310 C 
ATOM      7  O   UNL     1      -0.009  -0.280  -2.258  0.00  0.00    -0.252 OA
ATOM      8  N   UNL     1       0.029  -2.066  -0.875  0.00  0.00    -0.281 N 
ATOM      9  H   UNL     1       0.036  -2.785  -1.525  0.00  0.00    +0.152 HD
ENDROOT
BRANCH   2  10
ATOM     10  C   UNL     1      -1.194  -2.942   1.060  0.00  0.00    -0.015 A 
ATOM     11  C   UNL     1      -1.795  -2.595   2.255  0.00  0.00    +0.008 A 
ATOM     12  C   UNL     1      -2.924  -3.269   2.682  0.00  0.00    +0.033 A 
ATOM     13  C   UNL     1      -3.447  -4.295   1.918  0.00  0.00    +0.126 A 
ATOM     14  C   UNL     1      -2.843  -4.646   0.725  0.00  0.00    +0.033 A 
ATOM     15  C   UNL     1      -1.716  -3.969   0.296  0.00  0.00    +0.008 A 
BRANCH  13  16
ATOM     16  N   UNL     1      -4.653  -5.020   2.377  0.00  0.00    +0.056 N 
ATOM     17  O   UNL     1      -5.114  -5.924   1.703  0.00  0.00    -0.126 OA
ATOM     18  O   UNL     1      -5.185  -4.711   3.428  0.00  0.00    -0.126 OA
ENDBRANCH  13  16
ENDBRANCH   2  10
BRANCH   5  19
ATOM     19  C   UNL     1      -0.017   1.460  -0.009  0.00  0.00    +0.214 C 
BRANCH  19  20
ATOM     20  C   UNL     1       1.397   1.982  -0.007  0.00  0.00    +0.235 C 
ATOM     21  O   UNL     1       2.329   1.207  -0.017  0.00  0.00    -0.274 OA
ATOM     22  N   UNL     1       1.624   3.311   0.004  0.00  0.00    -0.283 N 
ATOM     23  H   UNL     1       0.881   3.931  -0.054  0.00  0.00    +0.155 HD
BRANCH  22  24
ATOM     24  C   UNL     1       2.936   3.796   0.100  0.00  0.00    +0.047 A 
ATOM     25  C   UNL     1       3.977   3.108  -0.504  0.00  0.00    +0.024 A 
ATOM     26  C   UNL     1       5.270   3.589  -0.408  0.00  0.00    +0.002 A 
ATOM     27  C   UNL     1       5.529   4.755   0.289  0.00  0.00    +0.001 A 
ATOM     28  C   UNL     1       4.497   5.447   0.894  0.00  0.00    +0.017 A 
ATOM     29  C   UNL     1       3.196   4.975   0.799  0.00  0.00    +0.034 A 
BRANCH  29  30
ATOM     30  S   UNL     1       1.877   5.859   1.563  0.00  0.00    -0.054 S 
BRANCH  30  31
ATOM     31  C   UNL     1       2.692   7.287   2.329  0.00  0.00    +0.404 C 
ATOM     32  F   UNL     1       3.636   6.841   3.260  0.00  0.00    -0.197 F 
ATOM     33  F   UNL     1       3.331   8.044   1.342  0.00  0.00    -0.197 F 
ENDBRANCH  30  31
ENDBRANCH  29  30
ENDBRANCH  22  24
ENDBRANCH  19  20
ENDBRANCH   5  19
TORSDOF 7
