REMARK  Name = ZINC09726042
REMARK  7 active torsions:
REMARK  status: ('A' for Active; 'I' for Inactive)
REMARK    1  A    between atoms: C_2  and  C_3
REMARK    2  A    between atoms: C_3  and  N_4
REMARK    3  A    between atoms: C_8  and  S_32
REMARK    4  A    between atoms: N_13  and  C_14
REMARK    5  A    between atoms: C_14  and  C_16
REMARK    6  A    between atoms: C_18  and  C_26
REMARK    7  A    between atoms: S_32  and  N_35
REMARK                            x       y       z     vdW  Elec       q    Type
REMARK                         _______ _______ _______ _____ _____    ______ ____
ROOT
ATOM      1  N   UNL     1      -0.030  -0.005   0.002  0.00  0.00    -0.310 N 
ATOM      2  C   UNL     1      -0.034  -0.688  -1.199  0.00  0.00    +0.059 A 
ATOM      3  C   UNL     1      -0.062  -0.163  -2.500  0.00  0.00    +0.029 A 
ATOM      4  C   UNL     1      -0.055  -0.994  -3.595  0.00  0.00    +0.030 A 
ATOM      5  C   UNL     1      -0.016  -2.371  -3.450  0.00  0.00    +0.106 A 
ATOM      6  C   UNL     1       0.017  -2.917  -2.179  0.00  0.00    +0.045 A 
ATOM      7  C   UNL     1       0.011  -2.086  -1.083  0.00  0.00    +0.041 A 
ATOM      8  S   UNL     1       0.043  -2.348   0.672  0.00  0.00    -0.052 S 
ATOM      9  C   UNL     1       0.005  -0.690   1.177  0.00  0.00    +0.168 A 
ATOM     10  N   UNL     1       0.011  -0.205   2.414  0.00  0.00    -0.152 NA
ENDROOT
BRANCH   5  11
ATOM     11  S   UNL     1      -0.009  -3.416  -4.869  0.00  0.00    +0.056 S 
ATOM     12  O   UNL     1       0.505  -2.640  -5.942  0.00  0.00    -0.153 OA
ATOM     13  O   UNL     1       0.580  -4.645  -4.465  0.00  0.00    -0.153 OA
BRANCH  11  14
ATOM     14  N   UNL     1      -1.589  -3.749  -5.239  0.00  0.00    -0.204 NA
ATOM     15  H   UNL     1      -2.303  -3.377  -4.698  0.00  0.00    +0.144 HD
ATOM     16  H   UNL     1      -1.800  -4.315  -5.998  0.00  0.00    +0.144 HD
ENDBRANCH  11  14
ENDBRANCH   5  11
BRANCH  10  17
ATOM     17  C   UNL     1       0.048  -1.038   3.458  0.00  0.00    +0.270 C 
ATOM     18  O   UNL     1       0.077  -2.243   3.276  0.00  0.00    -0.268 OA
BRANCH  17  19
ATOM     19  C   UNL     1       0.053  -0.497   4.838  0.00  0.00    +0.050 A 
ATOM     20  C   UNL     1       0.141   0.866   5.070  0.00  0.00    +0.042 A 
ATOM     21  C   UNL     1       0.139   1.343   6.389  0.00  0.00    +0.072 A 
ATOM     22  N   UNL     1       0.065   0.525   7.420  0.00  0.00    -0.247 NA
ATOM     23  C   UNL     1      -0.017  -0.798   7.263  0.00  0.00    +0.072 A 
ATOM     24  C   UNL     1      -0.025  -1.359   5.962  0.00  0.00    +0.013 A 
ATOM     25  C   UNL     1      -0.109  -2.749   5.807  0.00  0.00    +0.011 A 
ATOM     26  C   UNL     1      -0.183  -3.547   6.909  0.00  0.00    +0.001 A 
ATOM     27  C   UNL     1      -0.175  -2.999   8.190  0.00  0.00    +0.002 A 
ATOM     28  C   UNL     1      -0.094  -1.654   8.377  0.00  0.00    +0.028 A 
BRANCH  21  29
ATOM     29  C   UNL     1       0.228   2.804   6.630  0.00  0.00    +0.000 A 
ATOM     30  C   UNL     1       0.312   3.686   5.554  0.00  0.00    +0.010 A 
ATOM     31  C   UNL     1       0.390   5.045   5.784  0.00  0.00    +0.001 A 
ATOM     32  C   UNL     1       0.394   5.531   7.079  0.00  0.00    +0.000 A 
ATOM     33  C   UNL     1       0.315   4.660   8.151  0.00  0.00    +0.001 A 
ATOM     34  C   UNL     1       0.232   3.299   7.933  0.00  0.00    +0.010 A 
ENDBRANCH  21  29
ENDBRANCH  17  19
ENDBRANCH  10  17
BRANCH   1  35
ATOM     35  C   UNL     1      -0.069   1.460   0.011  0.00  0.00    +0.212 C 
BRANCH  35  37
ATOM     36  C   UNL     1       2.401   2.409  -0.021  0.00  0.00    +0.005 C 
ATOM     37  C   UNL     1       1.305   1.988  -0.007  0.00  0.00    -0.084 C 
ENDBRANCH  35  37
ENDBRANCH   1  35
TORSDOF 7
