REMARK  Name = ZINC30522139
REMARK  8 active torsions:
REMARK  status: ('A' for Active; 'I' for Inactive)
REMARK    1  A    between atoms: C_1  and  O_2
REMARK    2  A    between atoms: O_2  and  C_3
REMARK    3  A    between atoms: C_6  and  C_9
REMARK    4  A    between atoms: C_9  and  C_11
REMARK    5  A    between atoms: C_9  and  N_31
REMARK    6  A    between atoms: C_11  and  N_12
REMARK    7  A    between atoms: C_13  and  C_15
REMARK    8  A    between atoms: C_19  and  C_20
REMARK                            x       y       z     vdW  Elec       q    Type
REMARK                         _______ _______ _______ _____ _____    ______ ____
ROOT
ATOM      1  N   UNL     1      -4.963   0.366  -1.276  0.00  0.00    -0.312 N 
ATOM      2  C   UNL     1      -6.119   0.117  -1.922  0.00  0.00    +0.248 C 
ATOM      3  O   UNL     1      -6.375   0.702  -2.958  0.00  0.00    -0.270 OA
ATOM      4  H   UNL     1      -4.731  -0.163  -0.340  0.00  0.00    +0.149 HD
ENDROOT
BRANCH   2   5
ATOM      5  C   UNL     1      -7.074  -0.863  -1.374  0.00  0.00    +0.086 A 
ATOM      6  C   UNL     1      -6.913  -1.620  -0.191  0.00  0.00    +0.148 A 
ATOM      7  N   UNL     1      -7.970  -2.370  -0.043  0.00  0.00    -0.172 NA
ATOM      8  N   UNL     1      -8.843  -2.140  -1.113  0.00  0.00    -0.208 N 
ATOM      9  C   UNL     1      -8.290  -1.218  -1.923  0.00  0.00    +0.161 A 
ATOM     10  C   UNL     1     -10.081  -2.763  -1.308  0.00  0.00    +0.177 A 
ATOM     11  C   UNL     1     -10.595  -3.621  -0.317  0.00  0.00    +0.055 A 
ATOM     12  C   UNL     1     -11.801  -4.222  -0.504  0.00  0.00    +0.077 A 
ATOM     13  C   UNL     1     -12.513  -3.983  -1.697  0.00  0.00    +0.289 A 
ATOM     14  O   UNL     1     -13.594  -4.517  -1.885  0.00  0.00    -0.264 OA
ATOM     15  N   UNL     1     -11.991  -3.160  -2.629  0.00  0.00    -0.105 NA
ATOM     16  N   UNL     1     -10.751  -2.547  -2.413  0.00  0.00    -0.126 NA
BRANCH   9  17
ATOM     17  C   UNL     1      -8.888  -0.673  -3.194  0.00  0.00    +0.435 C 
ATOM     18  F   UNL     1     -10.277  -0.575  -3.051  0.00  0.00    -0.164 F 
ATOM     19  F   UNL     1      -8.356   0.594  -3.454  0.00  0.00    -0.164 F 
ATOM     20  F   UNL     1      -8.588  -1.532  -4.256  0.00  0.00    -0.164 F 
ENDBRANCH   9  17
ENDBRANCH   2   5
BRANCH   1  21
ATOM     21  C   UNL     1      -4.014   1.340  -1.821  0.00  0.00    +0.094 C 
BRANCH  21  22
ATOM     22  C   UNL     1      -2.794   1.432  -0.903  0.00  0.00    -0.020 C 
BRANCH  22  23
ATOM     23  N   UNL     1      -3.232   1.743   0.464  0.00  0.00    +0.385 N 
ATOM     24  C   UNL     1      -3.757   3.112   0.550  0.00  0.00    -0.078 C 
ATOM     25  C   UNL     1      -4.336   3.351   1.947  0.00  0.00    -0.019 C 
ATOM     26  C   UNL     1      -3.238   3.139   2.993  0.00  0.00    -0.004 C 
ATOM     27  C   UNL     1      -2.676   1.722   2.850  0.00  0.00    -0.019 C 
ATOM     28  C   UNL     1      -2.145   1.530   1.427  0.00  0.00    -0.078 C 
ATOM     29  H   UNL     1      -4.050   1.054   0.724  0.00  0.00    -0.081 HD
ENDBRANCH  22  23
BRANCH  22  33
ATOM     30  C   UNL     1      -0.189   4.521  -2.293  0.00  0.00    +0.120 A 
ATOM     31  C   UNL     1      -1.543   4.774  -2.135  0.00  0.00    +0.046 A 
ATOM     32  C   UNL     1      -2.384   3.773  -1.689  0.00  0.00    +0.005 A 
ATOM     33  C   UNL     1      -1.875   2.521  -1.395  0.00  0.00    -0.059 A 
ATOM     34  C   UNL     1      -0.527   2.265  -1.558  0.00  0.00    +0.005 A 
ATOM     35  C   UNL     1       0.318   3.263  -2.004  0.00  0.00    +0.046 A 
BRANCH  30  37
ATOM     36  C   UNL     1       2.023   5.173  -2.872  0.00  0.00    +0.277 C 
ATOM     37  O   UNL     1       0.641   5.505  -2.732  0.00  0.00    -0.495 OA
ENDBRANCH  30  37
ENDBRANCH  22  33
ENDBRANCH  21  22
ENDBRANCH   1  21
TORSDOF 7
