REMARK  Name = ZINC30020931
REMARK  8 active torsions:
REMARK  status: ('A' for Active; 'I' for Inactive)
REMARK    1  A    between atoms: C_1  and  C_2
REMARK    2  A    between atoms: C_7  and  S_30
REMARK    3  A    between atoms: C_12  and  C_14
REMARK    4  A    between atoms: C_14  and  O_15
REMARK    5  A    between atoms: O_15  and  C_16
REMARK    6  A    between atoms: C_19  and  C_22
REMARK    7  A    between atoms: C_25  and  C_28
REMARK    8  A    between atoms: S_30  and  N_33
REMARK                            x       y       z     vdW  Elec       q    Type
REMARK                         _______ _______ _______ _____ _____    ______ ____
ROOT
ATOM      1  C   UNL     1       0.079   2.538  -2.046  0.00  0.00    +0.029 C 
ATOM      2  C   UNL     1      -0.803   1.618  -1.199  0.00  0.00    +0.083 C 
ATOM      3  C   UNL     1      -0.013   1.086   0.008  0.00  0.00    +0.059 C 
ATOM      4  C   UNL     1      -0.767   1.596   1.215  0.00  0.00    -0.022 A 
ATOM      5  C   UNL     1      -0.533   1.438   2.566  0.00  0.00    +0.034 A 
ATOM      6  C   UNL     1      -1.384   2.011   3.491  0.00  0.00    +0.105 A 
ATOM      7  C   UNL     1      -2.474   2.746   3.061  0.00  0.00    +0.030 A 
ATOM      8  C   UNL     1      -2.714   2.907   1.713  0.00  0.00    +0.026 A 
ATOM      9  C   UNL     1      -1.859   2.331   0.772  0.00  0.00    +0.040 A 
ATOM     10  N   UNL     1      -1.920   2.372  -0.624  0.00  0.00    -0.265 N 
ATOM     11  C   UNL     1      -2.869   3.010  -1.337  0.00  0.00    +0.258 C 
ATOM     12  O   UNL     1      -2.836   2.987  -2.549  0.00  0.00    -0.272 OA
ENDROOT
BRANCH   6  13
ATOM     13  S   UNL     1      -1.081   1.807   5.215  0.00  0.00    +0.056 S 
ATOM     14  O   UNL     1       0.306   1.536   5.354  0.00  0.00    -0.153 OA
ATOM     15  O   UNL     1      -1.714   2.898   5.870  0.00  0.00    -0.153 OA
BRANCH  13  16
ATOM     16  N   UNL     1      -1.882   0.439   5.694  0.00  0.00    -0.204 NA
ATOM     17  H   UNL     1      -1.717   0.276   6.770  0.00  0.00    +0.144 HD
ATOM     18  H   UNL     1      -1.501  -0.425   5.130  0.00  0.00    +0.144 HD
ENDBRANCH  13  16
ENDBRANCH   6  13
BRANCH  11  19
ATOM     19  C   UNL     1      -3.971   3.754  -0.628  0.00  0.00    +0.325 C 
BRANCH  19  20
ATOM     20  O   UNL     1      -4.846   4.343  -1.593  0.00  0.00    -0.483 OA
BRANCH  20  21
ATOM     21  C   UNL     1      -5.901   5.054  -1.116  0.00  0.00    +0.121 A 
ATOM     22  C   UNL     1      -6.091   5.177   0.254  0.00  0.00    +0.046 A 
ATOM     23  C   UNL     1      -7.158   5.902   0.740  0.00  0.00    +0.012 A 
ATOM     24  C   UNL     1      -8.052   6.504  -0.145  0.00  0.00    -0.018 A 
ATOM     25  C   UNL     1      -7.861   6.374  -1.520  0.00  0.00    +0.012 A 
ATOM     26  C   UNL     1      -6.789   5.652  -2.000  0.00  0.00    +0.046 A 
BRANCH  24  27
ATOM     27  C   UNL     1      -9.203   7.279   0.375  0.00  0.00    -0.018 A 
ATOM     28  C   UNL     1     -10.093   7.885  -0.512  0.00  0.00    +0.010 A 
ATOM     29  C   UNL     1     -11.166   8.601  -0.031  0.00  0.00    +0.019 A 
ATOM     30  C   UNL     1     -11.356   8.731   1.348  0.00  0.00    +0.052 A 
ATOM     31  C   UNL     1     -10.461   8.128   2.236  0.00  0.00    +0.019 A 
ATOM     32  C   UNL     1      -9.392   7.408   1.752  0.00  0.00    +0.010 A 
BRANCH  30  33
ATOM     33  C   UNL     1     -12.468   9.481   1.850  0.00  0.00    +0.099 C 
ATOM     34  N   UNL     1     -13.350  10.076   2.249  0.00  0.00    -0.191 NA
ENDBRANCH  30  33
ENDBRANCH  24  27
ENDBRANCH  20  21
ENDBRANCH  19  20
ENDBRANCH  11  19
TORSDOF 7
