REMARK  Name = ZINC48759844
REMARK  2 active torsions:
REMARK  status: ('A' for Active; 'I' for Inactive)
REMARK    1  A    between atoms: C_6  and  N_7
REMARK    2  A    between atoms: N_10  and  C_11
REMARK                            x       y       z     vdW  Elec       q    Type
REMARK                         _______ _______ _______ _____ _____    ______ ____
ROOT
ATOM      1  C   UNL     1       0.035   1.415   0.262  0.00  0.00    +0.053 A 
ATOM      2  C   UNL     1       1.249   2.056   0.049  0.00  0.00    +0.038 A 
ATOM      3  C   UNL     1       2.375   1.301  -0.215  0.00  0.00    +0.128 A 
ATOM      4  N   UNL     1       2.309  -0.017  -0.266  0.00  0.00    -0.237 NA
ATOM      5  C   UNL     1       1.170  -0.663  -0.069  0.00  0.00    +0.150 A 
ATOM      6  C   UNL     1      -0.003   0.034   0.202  0.00  0.00    +0.167 A 
ATOM      7  N   UNL     1       1.147  -2.052  -0.133  0.00  0.00    -0.322 N 
ATOM      8 BR   UNL     1       1.359   3.942   0.119  0.00  0.00    -0.049 Br
ATOM      9  H   UNL     1       0.305  -2.527  -0.057  0.00  0.00    +0.148 HD
ENDROOT
BRANCH   7  10
ATOM     10  C   UNL     1       2.394  -2.798  -0.316  0.00  0.00    +0.034 C 
ATOM     11  C   UNL     1       3.343  -2.498   0.846  0.00  0.00    +0.029 C 
ATOM     12  C   UNL     1       4.646  -3.277   0.655  0.00  0.00    -0.008 C 
ATOM     13  C   UNL     1       4.343  -4.776   0.618  0.00  0.00    +0.007 C 
ATOM     14  C   UNL     1       3.394  -5.076  -0.544  0.00  0.00    -0.008 C 
ATOM     15  C   UNL     1       2.091  -4.297  -0.353  0.00  0.00    +0.029 C 
ATOM     16  C   UNL     1       4.051  -4.656  -1.860  0.00  0.00    +0.007 C 
ATOM     17  C   UNL     1       4.354  -3.157  -1.823  0.00  0.00    -0.008 C 
ATOM     18  C   UNL     1       5.303  -2.857  -0.661  0.00  0.00    +0.007 C 
ATOM     19  C   UNL     1       3.051  -2.378  -1.633  0.00  0.00    +0.029 C 
ENDBRANCH   7  10
BRANCH   6  20
ATOM     20  N   UNL     1      -1.273  -0.692   0.422  0.00  0.00    +0.060 N 
ATOM     21  O   UNL     1      -2.311  -0.236   0.003  0.00  0.00    -0.126 OA
ATOM     22  O   UNL     1      -1.273  -1.742   1.022  0.00  0.00    -0.126 OA
ENDBRANCH   6  20
TORSDOF 2
