REMARK  Name = ZINC08728476
REMARK  9 active torsions:
REMARK  status: ('A' for Active; 'I' for Inactive)
REMARK    1  A    between atoms: C_1  and  C_2
REMARK    2  A    between atoms: C_7  and  N_10
REMARK    3  A    between atoms: N_10  and  C_11
REMARK    4  A    between atoms: C_14  and  S_16
REMARK    5  A    between atoms: S_16  and  N_19
REMARK    6  A    between atoms: N_19  and  C_20
REMARK    7  A    between atoms: N_19  and  C_27
REMARK    8  A    between atoms: C_20  and  C_21
REMARK    9  A    between atoms: C_27  and  C_28
REMARK                            x       y       z     vdW  Elec       q    Type
REMARK                         _______ _______ _______ _____ _____    ______ ____
ROOT
ATOM      1  C   UNL     1      -1.737   1.641   0.375  0.00  0.00    +0.096 A 
ATOM      2  C   UNL     1      -1.669   0.258   0.517  0.00  0.00    +0.043 A 
ATOM      3  C   UNL     1      -0.431  -0.343   0.656  0.00  0.00    +0.033 A 
ATOM      4  C   UNL     1       0.701   0.461   0.650  0.00  0.00    +0.121 A 
ATOM      5  C   UNL     1       0.559   1.827   0.505  0.00  0.00    +0.112 A 
ATOM      6  N   UNL     1      -0.640   2.452   0.366  0.00  0.00    -0.348 N 
ATOM      7  H   UNL     1      -0.716   3.470   0.260  0.00  0.00    +0.167 HD
ENDROOT
BRANCH   4   8
ATOM      8  S   UNL     1       2.302  -0.254   0.824  0.00  0.00    +0.063 S 
ATOM      9  O   UNL     1       3.115   0.721   1.462  0.00  0.00    -0.153 OA
ATOM     10  O   UNL     1       2.109  -1.555   1.362  0.00  0.00    -0.153 OA
BRANCH   8  11
ATOM     11  N   UNL     1       2.915  -0.459  -0.700  0.00  0.00    -0.168 NA
BRANCH  11  12
ATOM     12  C   UNL     1       3.692   0.614  -1.327  0.00  0.00    +0.145 C 
BRANCH  12  13
ATOM     13  C   UNL     1       5.161   0.372  -1.093  0.00  0.00    -0.032 A 
ATOM     14  C   UNL     1       5.779   0.901   0.025  0.00  0.00    +0.005 A 
ATOM     15  C   UNL     1       7.125   0.675   0.242  0.00  0.00    +0.000 A 
ATOM     16  C   UNL     1       7.856  -0.070  -0.664  0.00  0.00    +0.000 A 
ATOM     17  C   UNL     1       7.240  -0.594  -1.785  0.00  0.00    +0.000 A 
ATOM     18  C   UNL     1       5.892  -0.373  -2.000  0.00  0.00    +0.005 A 
ENDBRANCH  12  13
ENDBRANCH  11  12
BRANCH  11  19
ATOM     19  C   UNL     1       2.681  -1.712  -1.422  0.00  0.00    +0.145 C 
BRANCH  19  20
ATOM     20  C   UNL     1       1.589  -1.508  -2.441  0.00  0.00    -0.032 A 
ATOM     21  C   UNL     1       0.273  -1.766  -2.104  0.00  0.00    +0.005 A 
ATOM     22  C   UNL     1      -0.729  -1.574  -3.036  0.00  0.00    +0.000 A 
ATOM     23  C   UNL     1      -0.415  -1.135  -4.309  0.00  0.00    +0.000 A 
ATOM     24  C   UNL     1       0.901  -0.883  -4.647  0.00  0.00    +0.000 A 
ATOM     25  C   UNL     1       1.903  -1.069  -3.713  0.00  0.00    +0.005 A 
ENDBRANCH  19  20
ENDBRANCH  11  19
ENDBRANCH   8  11
ENDBRANCH   4   8
BRANCH   1  26
ATOM     26  N   UNL     1      -2.974   2.257   0.228  0.00  0.00    -0.328 N 
ATOM     27  H   UNL     1      -3.027   3.221   0.129  0.00  0.00    +0.148 HD
BRANCH  26  34
ATOM     28  C   UNL     1      -9.066   1.878  -0.767  0.00  0.00    +0.109 C 
ATOM     29  C   UNL     1      -7.984   0.974  -1.299  0.00  0.00    +0.212 C 
ATOM     30  O   UNL     1      -8.154   0.371  -2.337  0.00  0.00    -0.276 OA
ATOM     31  N   UNL     1      -6.827   0.836  -0.622  0.00  0.00    -0.302 N 
ATOM     32  C   UNL     1      -6.651   1.463   0.695  0.00  0.00    +0.109 C 
ATOM     33  C   UNL     1      -5.379   2.317   0.669  0.00  0.00    +0.041 C 
ATOM     34  C   UNL     1      -4.198   1.452   0.222  0.00  0.00    +0.075 C 
ATOM     35  C   UNL     1      -4.456   0.926  -1.192  0.00  0.00    +0.041 C 
ATOM     36  C   UNL     1      -5.717   0.056  -1.187  0.00  0.00    +0.109 C 
ENDBRANCH  26  34
ENDBRANCH   1  26
TORSDOF 8
