REMARK  Name = ZINC52840275
REMARK  4 active torsions:
REMARK  status: ('A' for Active; 'I' for Inactive)
REMARK    1  A    between atoms: C_3  and  N_11
REMARK    2  A    between atoms: C_4  and  N_10
REMARK    3  A    between atoms: C_6  and  N_7
REMARK    4  A    between atoms: N_11  and  C_12
REMARK                            x       y       z     vdW  Elec       q    Type
REMARK                         _______ _______ _______ _____ _____    ______ ____
ROOT
ATOM      1  C   UNL     1      -0.042   1.511  -0.072  0.00  0.00    +0.034 A 
ATOM      2  C   UNL     1       1.171   2.159   0.078  0.00  0.00    +0.027 A 
ATOM      3  C   UNL     1       2.354   1.482  -0.172  0.00  0.00    +0.052 A 
ATOM      4  C   UNL     1       2.317   0.146  -0.576  0.00  0.00    +0.048 A 
ATOM      5  C   UNL     1       1.097  -0.495  -0.724  0.00  0.00    +0.057 A 
ATOM      6  C   UNL     1      -0.078   0.188  -0.472  0.00  0.00    +0.128 A 
ENDROOT
BRANCH   6   7
ATOM      7  N   UNL     1      -1.380  -0.499  -0.632  0.00  0.00    +0.056 N 
ATOM      8  O   UNL     1      -2.409   0.097  -0.412  0.00  0.00    -0.126 OA
ATOM      9  O   UNL     1      -1.414  -1.656  -0.981  0.00  0.00    -0.126 OA
ENDBRANCH   6   7
BRANCH   4  10
ATOM     10  N   UNL     1       3.509  -0.543  -0.831  0.00  0.00    -0.356 N 
ATOM     11  H   UNL     1       4.361  -0.093  -0.727  0.00  0.00    +0.142 HD
ATOM     12  H   UNL     1       3.481  -1.471  -1.111  0.00  0.00    +0.142 HD
ENDBRANCH   4  10
BRANCH   3  13
ATOM     13  N   UNL     1       3.583   2.136  -0.021  0.00  0.00    -0.312 N 
ATOM     14  H   UNL     1       4.405   1.688  -0.276  0.00  0.00    +0.152 HD
BRANCH  13  15
ATOM     15  C   UNL     1       3.625   3.433   0.496  0.00  0.00    +0.051 A 
ATOM     16  C   UNL     1       2.842   3.770   1.593  0.00  0.00    +0.044 A 
ATOM     17  C   UNL     1       2.887   5.054   2.103  0.00  0.00    +0.043 A 
ATOM     18  C   UNL     1       3.709   6.003   1.522  0.00  0.00    +0.021 A 
ATOM     19  C   UNL     1       4.489   5.671   0.429  0.00  0.00    +0.023 A 
ATOM     20  C   UNL     1       4.454   4.387  -0.082  0.00  0.00    +0.062 A 
ATOM     21 CL   UNL     1       5.439   3.969  -1.449  0.00  0.00    -0.082 Cl
ATOM     22 CL   UNL     1       1.909   5.477   3.474  0.00  0.00    -0.083 Cl
ENDBRANCH  13  15
ENDBRANCH   3  13
TORSDOF 4
