REMARK  Name = ZINC38574910
REMARK  10 active torsions:
REMARK  status: ('A' for Active; 'I' for Inactive)
REMARK    1  A    between atoms: C_1  and  C_2
REMARK    2  A    between atoms: C_2  and  C_4
REMARK    3  A    between atoms: C_2  and  N_24
REMARK    4  A    between atoms: C_4  and  C_6
REMARK    5  A    between atoms: C_4  and  N_11
REMARK    6  A    between atoms: N_14  and  C_17
REMARK    7  A    between atoms: C_17  and  C_18
REMARK    8  A    between atoms: N_24  and  S_25
REMARK    9  A    between atoms: S_25  and  C_28
REMARK   10  A    between atoms: C_31  and  N_34
REMARK                            x       y       z     vdW  Elec       q    Type
REMARK                         _______ _______ _______ _____ _____    ______ ____
ROOT
ATOM      1  C   UNL     1       0.718  -0.497  -1.257  0.00  0.00    +0.112 C 
ENDROOT
BRANCH   1   2
ATOM      2  N   UNL     1       0.116   0.030  -2.489  0.00  0.00    -0.297 NA
ATOM      3  C   UNL     1      -1.302  -0.345  -2.584  0.00  0.00    +0.066 C 
ATOM      4  C   UNL     1      -1.906   0.272  -3.848  0.00  0.00    -0.063 C 
ATOM      5  N   UNL     1      -1.174  -0.211  -5.026  0.00  0.00    +0.384 N 
ATOM      6  C   UNL     1       0.235   0.192  -4.928  0.00  0.00    -0.063 C 
ATOM      7  C   UNL     1       0.857  -0.425  -3.674  0.00  0.00    +0.066 C 
ATOM      8  H   UNL     1      -1.233  -1.217  -5.070  0.00  0.00    -0.081 HD
BRANCH   5   9
ATOM      9  C   UNL     1      -1.765   0.367  -6.240  0.00  0.00    -0.043 C 
BRANCH   9  10
ATOM     10  C   UNL     1      -1.095  -0.222  -7.455  0.00  0.00    -0.064 A 
ATOM     11  C   UNL     1       0.029   0.384  -7.986  0.00  0.00    +0.002 A 
ATOM     12  C   UNL     1       0.643  -0.157  -9.100  0.00  0.00    +0.000 A 
ATOM     13  C   UNL     1       0.135  -1.302  -9.683  0.00  0.00    +0.000 A 
ATOM     14  C   UNL     1      -0.989  -1.908  -9.151  0.00  0.00    +0.000 A 
ATOM     15  C   UNL     1      -1.601  -1.370  -8.034  0.00  0.00    +0.002 A 
ENDBRANCH   9  10
ENDBRANCH   5   9
ENDBRANCH   1   2
BRANCH   1  16
ATOM     16  C   UNL     1       0.799  -2.000  -1.340  0.00  0.00    +0.008 A 
ATOM     17  C   UNL     1       1.851  -2.814  -1.082  0.00  0.00    +0.013 A 
ATOM     18  C   UNL     1       1.694  -4.180  -1.226  0.00  0.00    +0.008 A 
ATOM     19  C   UNL     1       0.491  -4.665  -1.622  0.00  0.00    +0.045 A 
ATOM     20  S   UNL     1      -0.470  -3.170  -1.797  0.00  0.00    -0.100 S 
ENDBRANCH   1  16
BRANCH   1  22
ATOM     21  C   UNL     1      -0.225   1.427   0.028  0.00  0.00    +0.027 C 
ATOM     22  C   UNL     1      -0.143  -0.099  -0.057  0.00  0.00    +0.095 C 
BRANCH  22  23
ATOM     23  N   UNL     1       0.457  -0.624   1.172  0.00  0.00    -0.185 NA
ATOM     24  H   UNL     1       1.422  -0.670   1.259  0.00  0.00    +0.148 HD
BRANCH  23  25
ATOM     25  S   UNL     1      -0.511  -1.140   2.412  0.00  0.00    +0.059 S 
ATOM     26  O   UNL     1       0.355  -1.611   3.435  0.00  0.00    -0.153 OA
ATOM     27  O   UNL     1      -1.467  -0.112   2.636  0.00  0.00    -0.153 OA
BRANCH  25  28
ATOM     28  C   UNL     1      -1.407  -2.540   1.826  0.00  0.00    +0.105 A 
ATOM     29  C   UNL     1      -2.631  -2.369   1.207  0.00  0.00    +0.031 A 
ATOM     30  C   UNL     1      -3.333  -3.467   0.748  0.00  0.00    +0.034 A 
ATOM     31  C   UNL     1      -2.811  -4.737   0.907  0.00  0.00    +0.126 A 
ATOM     32  C   UNL     1      -1.586  -4.909   1.525  0.00  0.00    +0.034 A 
ATOM     33  C   UNL     1      -0.882  -3.810   1.981  0.00  0.00    +0.031 A 
BRANCH  31  34
ATOM     34  N   UNL     1      -3.563  -5.913   0.416  0.00  0.00    +0.056 N 
ATOM     35  O   UNL     1      -4.634  -5.763  -0.125  0.00  0.00    -0.126 OA
ATOM     36  O   UNL     1      -3.107  -7.024   0.555  0.00  0.00    -0.126 OA
ENDBRANCH  31  34
ENDBRANCH  25  28
ENDBRANCH  23  25
ENDBRANCH  22  23
ENDBRANCH   1  22
TORSDOF 9
