REMARK  Name = ZINC06032306
REMARK  4 active torsions:
REMARK  status: ('A' for Active; 'I' for Inactive)
REMARK    1  A    between atoms: C_1  and  C_2
REMARK    2  A    between atoms: C_13  and  C_14
REMARK    3  A    between atoms: C_13  and  O_15
REMARK    4  A    between atoms: C_20  and  C_28
REMARK                            x       y       z     vdW  Elec       q    Type
REMARK                         _______ _______ _______ _____ _____    ______ ____
ROOT
ATOM      1  C   UNL     1       0.002  -0.004   0.002  0.00  0.00    +0.014 C 
ATOM      2  C   UNL     1      -0.019   1.526   0.010  0.00  0.00    -0.000 C 
ATOM      3  C   UNL     1      -0.837   2.071   1.181  0.00  0.00    +0.010 C 
ATOM      4  C   UNL     1      -0.123   1.965   2.507  0.00  0.00    +0.005 C 
ATOM      5  C   UNL     1       1.189   2.741   2.405  0.00  0.00    +0.000 C 
ATOM      6  C   UNL     1       2.055   2.038   1.358  0.00  0.00    -0.004 C 
ATOM      7  C   UNL     1       1.409   2.116   0.000  0.00  0.00    +0.001 C 
ATOM      8  C   UNL     1       1.190   3.562  -0.479  0.00  0.00    +0.007 C 
ATOM      9  C   UNL     1       0.116   3.415  -1.582  0.00  0.00    +0.035 C 
ATOM     10  C   UNL     1      -0.633   2.101  -1.294  0.00  0.00    +0.069 C 
ATOM     11  C   UNL     1      -2.124   2.380  -1.094  0.00  0.00    +0.042 C 
ATOM     12  C   UNL     1       3.464   2.614   1.401  0.00  0.00    +0.006 C 
ATOM     13  C   UNL     1       4.135   2.142   2.696  0.00  0.00    +0.025 C 
ATOM     14  C   UNL     1       3.079   1.781   3.737  0.00  0.00    +0.101 C 
ATOM     15  C   UNL     1       1.934   2.797   3.731  0.00  0.00    -0.005 C 
ATOM     16  C   UNL     1       0.968   2.524   4.883  0.00  0.00    +0.038 C 
ATOM     17  C   UNL     1       1.701   2.559   6.205  0.00  0.00    -0.002 C 
ATOM     18  C   UNL     1       2.985   2.188   6.223  0.00  0.00    +0.045 C 
ATOM     19  N   UNL     1       3.683   1.786   5.072  0.00  0.00    -0.250 N 
ATOM     20  N   UNL     1       4.966   1.433   5.472  0.00  0.00    -0.271 N 
ATOM     21  C   UNL     1       5.090   1.635   6.833  0.00  0.00    +0.090 C 
ATOM     22  C   UNL     1       3.931   2.088   7.334  0.00  0.00    +0.041 C 
ATOM     23  C   UNL     1       2.516   4.200   3.913  0.00  0.00    +0.013 C 
ATOM     24  H   UNL     1       5.665   1.097   4.888  0.00  0.00    +0.169 HD
ENDROOT
BRANCH  10  25
ATOM     25  O   UNL     1      -0.446   1.183  -2.372  0.00  0.00    -0.388 OA
ATOM     26  H   UNL     1      -0.809   1.486  -3.216  0.00  0.00    +0.210 HD
ENDBRANCH  10  25
TORSDOF 1
