REMARK  Name = ZINC60090235
REMARK  9 active torsions:
REMARK  status: ('A' for Active; 'I' for Inactive)
REMARK    1  A    between atoms: C_1  and  C_2
REMARK    2  A    between atoms: C_4  and  N_31
REMARK    3  A    between atoms: C_7  and  N_8
REMARK    4  A    between atoms: C_9  and  C_11
REMARK    5  A    between atoms: C_11  and  C_12
REMARK    6  A    between atoms: C_12  and  N_13
REMARK    7  A    between atoms: C_18  and  C_20
REMARK    8  A    between atoms: C_20  and  N_21
REMARK    9  A    between atoms: N_24  and  C_25
REMARK                            x       y       z     vdW  Elec       q    Type
REMARK                         _______ _______ _______ _____ _____    ______ ____
ROOT
ATOM      1  N   UNL     1      -0.398  -0.283   7.232  0.00  0.00    +0.383 N 
ATOM      2  C   UNL     1      -1.716   0.358   7.316  0.00  0.00    -0.078 C 
ATOM      3  C   UNL     1      -1.771   1.258   8.552  0.00  0.00    -0.019 C 
ATOM      4  C   UNL     1      -1.534   0.410   9.805  0.00  0.00    -0.003 C 
ATOM      5  C   UNL     1      -0.191  -0.313   9.674  0.00  0.00    -0.014 C 
ATOM      6  C   UNL     1      -0.194  -1.155   8.396  0.00  0.00    -0.051 C 
ATOM      7  H   UNL     1       0.319   0.426   7.215  0.00  0.00    -0.081 HD
ENDROOT
BRANCH   1   8
ATOM      8  C   UNL     1      -0.322  -1.085   6.003  0.00  0.00    -0.069 C 
BRANCH   8   9
ATOM      9  C   UNL     1      -0.396  -0.160   4.786  0.00  0.00    +0.077 C 
BRANCH   9  11
ATOM     10  N   UNL     1      -0.365  -0.376   2.322  0.00  0.00    -0.285 N 
ATOM     11  C   UNL     1      -0.318  -0.982   3.526  0.00  0.00    +0.215 C 
ATOM     12  O   UNL     1      -0.214  -2.188   3.593  0.00  0.00    -0.276 OA
ATOM     13  H   UNL     1      -0.381   0.592   2.267  0.00  0.00    +0.155 HD
BRANCH  10  20
ATOM     14  C   UNL     1      -1.878   0.589   0.114  0.00  0.00    +0.046 C 
ATOM     15  C   UNL     1      -1.116  -0.711   0.052  0.00  0.00    -0.027 A 
ATOM     16  C   UNL     1      -1.135  -1.468  -1.103  0.00  0.00    +0.038 A 
ATOM     17  C   UNL     1      -0.437  -2.660  -1.161  0.00  0.00    +0.127 A 
ATOM     18  C   UNL     1       0.283  -3.098  -0.064  0.00  0.00    +0.034 A 
ATOM     19  C   UNL     1       0.306  -2.344   1.093  0.00  0.00    +0.026 A 
ATOM     20  C   UNL     1      -0.390  -1.144   1.153  0.00  0.00    +0.036 A 
BRANCH  17  21
ATOM     21  N   UNL     1      -0.459  -3.470  -2.400  0.00  0.00    +0.056 N 
ATOM     22  O   UNL     1      -1.088  -3.089  -3.360  0.00  0.00    -0.126 OA
ATOM     23  O   UNL     1       0.151  -4.513  -2.452  0.00  0.00    -0.126 OA
ENDBRANCH  17  21
ENDBRANCH  10  20
ENDBRANCH   9  11
ENDBRANCH   8   9
ENDBRANCH   1   8
BRANCH   6  24
ATOM     24  C   UNL     1       1.147  -1.879   8.260  0.00  0.00    +0.090 C 
BRANCH  24  25
ATOM     25  N   UNL     1       2.214  -0.897   8.053  0.00  0.00    -0.301 N 
ATOM     26  C   UNL     1       3.473  -1.312   7.804  0.00  0.00    +0.304 C 
ATOM     27  O   UNL     1       3.722  -2.500   7.752  0.00  0.00    -0.253 OA
ATOM     28  N   UNL     1       4.454  -0.408   7.614  0.00  0.00    -0.269 N 
ATOM     29  H   UNL     1       2.015   0.051   8.095  0.00  0.00    +0.150 HD
ATOM     30  H   UNL     1       4.272   0.538   7.729  0.00  0.00    +0.156 HD
BRANCH  28  31
ATOM     31  C   UNL     1       5.737  -0.834   7.249  0.00  0.00    +0.035 A 
ATOM     32  C   UNL     1       6.854  -0.155   7.716  0.00  0.00    +0.023 A 
ATOM     33  C   UNL     1       8.118  -0.579   7.355  0.00  0.00    +0.002 A 
ATOM     34  C   UNL     1       8.272  -1.678   6.530  0.00  0.00    +0.000 A 
ATOM     35  C   UNL     1       7.160  -2.356   6.063  0.00  0.00    +0.002 A 
ATOM     36  C   UNL     1       5.894  -1.941   6.425  0.00  0.00    +0.023 A 
ENDBRANCH  28  31
ENDBRANCH  24  25
ENDBRANCH   6  24
TORSDOF 8
