REMARK  Name = ZINC20933763
REMARK  9 active torsions:
REMARK  status: ('A' for Active; 'I' for Inactive)
REMARK    1  A    between atoms: C_1  and  C_2
REMARK    2  A    between atoms: C_2  and  C_3
REMARK    3  A    between atoms: C_3  and  C_4
REMARK    4  A    between atoms: C_4  and  N_5
REMARK    5  A    between atoms: C_14  and  C_16
REMARK    6  A    between atoms: N_18  and  N_19
REMARK    7  A    between atoms: C_20  and  C_21
REMARK    8  A    between atoms: C_29  and  C_30
REMARK    9  A    between atoms: C_29  and  C_31
REMARK                            x       y       z     vdW  Elec       q    Type
REMARK                         _______ _______ _______ _____ _____    ______ ____
ROOT
ATOM      1  N   UNL     1      -1.175   3.514   0.031  0.00  0.00    -0.228 N 
ATOM      2  C   UNL     1      -1.261   2.168   0.020  0.00  0.00    +0.275 A 
ATOM      3  O   UNL     1      -2.345   1.614   0.022  0.00  0.00    -0.266 OA
ATOM      4  C   UNL     1      -0.017   1.387   0.010  0.00  0.00    +0.050 A 
ATOM      5  C   UNL     1       0.002  -0.004   0.002  0.00  0.00    +0.014 A 
ATOM      6  C   UNL     1       1.213  -0.663  -0.013  0.00  0.00    +0.001 A 
ATOM      7  C   UNL     1       2.407   0.046  -0.021  0.00  0.00    +0.001 A 
ATOM      8  C   UNL     1       2.409   1.425  -0.014  0.00  0.00    +0.011 A 
ATOM      9  C   UNL     1       1.199   2.109   0.002  0.00  0.00    +0.020 A 
ATOM     10  C   UNL     1       1.114   3.579   0.010  0.00  0.00    +0.155 A 
ATOM     11  N   UNL     1      -0.065   4.151   0.024  0.00  0.00    -0.163 NA
ENDROOT
BRANCH  10  12
ATOM     12  C   UNL     1       2.342   4.397   0.002  0.00  0.00    +0.284 C 
ATOM     13  O   UNL     1       3.432   3.859  -0.011  0.00  0.00    -0.267 OA
ATOM     14  N   UNL     1       2.255   5.742   0.010  0.00  0.00    -0.202 N 
ATOM     15  H   UNL     1       1.268   6.230   0.022  0.00  0.00    +0.178 HD
BRANCH  14  16
ATOM     16  N   UNL     1       3.420   6.520   0.002  0.00  0.00    -0.188 NA
ATOM     17  C   UNL     1       3.336   7.817   0.009  0.00  0.00    +0.134 C 
BRANCH  17  18
ATOM     18  C   UNL     1       4.556   8.631   0.002  0.00  0.00    -0.028 C 
ATOM     19  C   UNL     1       5.768   8.070  -0.007  0.00  0.00    -0.021 C 
ATOM     20  C   UNL     1       6.993   8.953  -0.029  0.00  0.00    +0.031 C 
ATOM     21  C   UNL     1       6.571  10.426   0.056  0.00  0.00    -0.000 C 
ATOM     22  C   UNL     1       5.493  10.752  -0.997  0.00  0.00    +0.013 C 
ATOM     23  C   UNL     1       4.496  10.149   0.010  0.00  0.00    +0.026 C 
ATOM     24  C   UNL     1       5.466  10.675   1.097  0.00  0.00    -0.025 C 
ATOM     25  C   UNL     1       5.265  12.151   1.445  0.00  0.00    +0.012 C 
ATOM     26  C   UNL     1       5.561   9.774   2.330  0.00  0.00    +0.012 C 
ENDBRANCH  17  18
ENDBRANCH  14  16
ENDBRANCH  10  12
BRANCH   1  27
ATOM     27  C   UNL     1      -2.418   4.289   0.046  0.00  0.00    +0.147 C 
BRANCH  27  28
ATOM     28  C   UNL     1      -2.838   4.552   1.494  0.00  0.00    +0.023 C 
BRANCH  28  30
ATOM     29  C   UNL     1      -4.557   5.623   2.957  0.00  0.00    +0.004 C 
ATOM     30  C   UNL     1      -4.137   5.360   1.510  0.00  0.00    -0.002 C 
ENDBRANCH  28  30
ENDBRANCH  27  28
ENDBRANCH   1  27
TORSDOF 6
