REMARK  Name = ZINC66338939
REMARK  7 active torsions:
REMARK  status: ('A' for Active; 'I' for Inactive)
REMARK    1  A    between atoms: C_1  and  N_2
REMARK    2  A    between atoms: N_2  and  C_3
REMARK    3  A    between atoms: C_3  and  C_4
REMARK    4  A    between atoms: N_12  and  C_13
REMARK    5  A    between atoms: C_13  and  C_14
REMARK    6  A    between atoms: C_14  and  C_15
REMARK    7  A    between atoms: C_18  and  N_21
REMARK                            x       y       z     vdW  Elec       q    Type
REMARK                         _______ _______ _______ _____ _____    ______ ____
ROOT
ATOM      1  C   UNL     1      -0.018   1.461   0.010  0.00  0.00    +0.134 C 
ATOM      2  N   UNL     1       0.002  -0.004   0.002  0.00  0.00    -0.284 N 
ATOM      3  C   UNL     1       0.000  -0.672  -1.169  0.00  0.00    +0.302 C 
ATOM      4  O   UNL     1       0.017  -1.887  -1.175  0.00  0.00    -0.253 OA
ATOM      5  N   UNL     1      -0.020   0.009  -2.332  0.00  0.00    -0.299 N 
ATOM      6  H   UNL     1      -0.033   0.978  -2.327  0.00  0.00    +0.150 HD
ENDROOT
BRANCH   2   7
ATOM      7  C   UNL     1       0.024  -0.743   1.267  0.00  0.00    +0.144 C 
BRANCH   7   8
ATOM      8  C   UNL     1      -1.389  -1.016   1.714  0.00  0.00    -0.022 A 
ATOM      9  C   UNL     1      -2.057  -0.112   2.519  0.00  0.00    +0.028 A 
ATOM     10  C   UNL     1      -3.328  -0.389   2.903  0.00  0.00    +0.055 A 
ATOM     11  S   UNL     1      -3.616  -1.966   2.119  0.00  0.00    -0.090 S 
ATOM     12  C   UNL     1      -2.026  -2.148   1.328  0.00  0.00    +0.051 A 
ATOM     13 BR   UNL     1      -4.492   0.632   3.989  0.00  0.00    -0.043 Br
ENDBRANCH   7   8
ENDBRANCH   2   7
BRANCH   5  14
ATOM     14  C   UNL     1      -0.022  -0.717  -3.605  0.00  0.00    +0.110 C 
BRANCH  14  15
ATOM     15  C   UNL     1      -0.047   0.283  -4.762  0.00  0.00    +0.054 C 
BRANCH  15  16
ATOM     16  C   UNL     1      -0.049  -0.463  -6.072  0.00  0.00    -0.046 A 
ATOM     17  C   UNL     1       1.147  -0.794  -6.680  0.00  0.00    +0.006 A 
ATOM     18  C   UNL     1       1.145  -1.479  -7.881  0.00  0.00    +0.033 A 
ATOM     19  C   UNL     1      -0.053  -1.833  -8.473  0.00  0.00    +0.126 A 
ATOM     20  C   UNL     1      -1.249  -1.503  -7.864  0.00  0.00    +0.033 A 
ATOM     21  C   UNL     1      -1.247  -0.822  -6.661  0.00  0.00    +0.006 A 
BRANCH  19  22
ATOM     22  N   UNL     1      -0.056  -2.565  -9.759  0.00  0.00    +0.056 N 
ATOM     23  O   UNL     1       0.991  -2.854 -10.293  0.00  0.00    -0.126 OA
ATOM     24  O   UNL     1      -1.103  -2.875 -10.277  0.00  0.00    -0.126 OA
ENDBRANCH  19  22
ENDBRANCH  15  16
ENDBRANCH  14  15
ENDBRANCH   5  14
TORSDOF 6
