REMARK  Name = ZINC08352275
REMARK  3 active torsions:
REMARK  status: ('A' for Active; 'I' for Inactive)
REMARK    1  A    between atoms: C_9  and  C_10
REMARK    2  A    between atoms: C_10  and  N_11
REMARK    3  A    between atoms: C_12  and  C_14
REMARK                            x       y       z     vdW  Elec       q    Type
REMARK                         _______ _______ _______ _____ _____    ______ ____
ROOT
ATOM      1  N   UNL     1       1.178  -0.662  -0.012  0.00  0.00    -0.304 N 
ATOM      2  C   UNL     1       0.002  -0.004   0.002  0.00  0.00    +0.251 C 
ATOM      3  O   UNL     1      -1.044  -0.627   0.008  0.00  0.00    -0.270 OA
ATOM      4  H   UNL     1       2.012  -0.166  -0.017  0.00  0.00    +0.149 HD
ENDROOT
BRANCH   2   5
ATOM      5  C   UNL     1      -0.018   1.462   0.010  0.00  0.00    +0.074 A 
ATOM      6  C   UNL     1      -1.097   2.318   0.019  0.00  0.00    +0.024 A 
ATOM      7  C   UNL     1      -0.851   3.693   0.043  0.00  0.00    -0.036 A 
ATOM      8  C   UNL     1       0.437   4.086  -0.013  0.00  0.00    -0.006 A 
ATOM      9  S   UNL     1       1.347   2.607   0.003  0.00  0.00    -0.088 S 
ATOM     10  C   UNL     1       1.089   5.438  -0.146  0.00  0.00    +0.043 C 
ATOM     11  C   UNL     1       0.065   6.569  -0.250  0.00  0.00    +0.005 C 
ATOM     12  C   UNL     1      -0.478   6.932   1.122  0.00  0.00    +0.000 C 
ATOM     13  C   UNL     1      -0.673   5.723   2.015  0.00  0.00    +0.000 C 
ATOM     14  C   UNL     1      -2.044   5.130   1.674  0.00  0.00    +0.005 C 
ATOM     15  C   UNL     1      -2.026   4.644   0.225  0.00  0.00    +0.036 C 
ENDBRANCH   2   5
BRANCH   1  16
ATOM     16  C   UNL     1       1.198  -2.127  -0.020  0.00  0.00    +0.181 C 
BRANCH  16  25
ATOM     17  C   UNL     1       5.364  -3.531  -2.926  0.00  0.00    +0.005 A 
ATOM     18  C   UNL     1       4.101  -3.102  -3.370  0.00  0.00    +0.018 A 
ATOM     19  C   UNL     1       3.139  -2.778  -2.482  0.00  0.00    +0.094 A 
ATOM     20  N   UNL     1       3.376  -2.867  -1.141  0.00  0.00    -0.285 N 
ATOM     21  C   UNL     1       4.601  -3.277  -0.677  0.00  0.00    +0.161 A 
ATOM     22  C   UNL     1       5.616  -3.619  -1.592  0.00  0.00    +0.048 A 
ATOM     23  N   UNL     1       4.536  -3.259   0.644  0.00  0.00    -0.129 NA
ATOM     24  N   UNL     1       3.368  -2.864   1.011  0.00  0.00    -0.132 NA
ATOM     25  C   UNL     1       2.626  -2.610  -0.036  0.00  0.00    +0.155 A 
ENDBRANCH  16  25
ENDBRANCH   1  16
TORSDOF 3
