REMARK  Name = ZINC36685791
REMARK  8 active torsions:
REMARK  status: ('A' for Active; 'I' for Inactive)
REMARK    1  A    between atoms: C_1  and  C_2
REMARK    2  A    between atoms: N_13  and  C_19
REMARK    3  A    between atoms: C_19  and  C_20
REMARK    4  A    between atoms: N_22  and  N_23
REMARK    5  A    between atoms: C_24  and  C_25
REMARK    6  A    between atoms: C_28  and  N_31
REMARK    7  A    between atoms: N_31  and  C_32
REMARK    8  A    between atoms: N_31  and  C_33
REMARK                            x       y       z     vdW  Elec       q    Type
REMARK                         _______ _______ _______ _____ _____    ______ ____
ROOT
ATOM      1  C   UNL     1       1.036   1.357  -0.486  0.00  0.00    +0.044 C 
ATOM      2  C   UNL     1       0.909  -0.145  -0.509  0.00  0.00    -0.050 A 
ATOM      3  C   UNL     1       0.321  -0.751  -1.607  0.00  0.00    +0.005 A 
ATOM      4  C   UNL     1       0.170  -2.123  -1.697  0.00  0.00    +0.026 A 
ATOM      5  C   UNL     1       0.638  -2.888  -0.631  0.00  0.00    +0.049 A 
ATOM      6  C   UNL     1       1.245  -2.259   0.497  0.00  0.00    +0.003 A 
ATOM      7  C   UNL     1       1.385  -0.868   0.555  0.00  0.00    +0.013 A 
ATOM      8  C   UNL     1       1.611  -3.320   1.396  0.00  0.00    -0.020 A 
ATOM      9  C   UNL     1       1.249  -4.471   0.797  0.00  0.00    +0.009 A 
ATOM     10  N   UNL     1       0.641  -4.231  -0.404  0.00  0.00    -0.347 N 
ATOM     11  C   UNL     1       0.105  -5.335  -1.216  0.00  0.00    +0.103 C 
ATOM     12  C   UNL     1       0.710  -6.642  -0.689  0.00  0.00    -0.055 C 
ATOM     13  N   UNL     1       0.554  -6.753   0.767  0.00  0.00    +0.392 N 
ATOM     14  C   UNL     1       1.482  -5.820   1.439  0.00  0.00    -0.020 C 
ATOM     15  C   UNL     1       1.145  -5.707   2.917  0.00  0.00    -0.009 C 
ATOM     16  C   UNL     1       1.546  -4.424   3.601  0.00  0.00    +0.003 C 
ATOM     17  C   UNL     1       2.254  -3.377   2.754  0.00  0.00    +0.037 C 
ATOM     18  H   UNL     1      -0.395  -6.524   1.022  0.00  0.00    -0.080 HD
ENDROOT
BRANCH  13  19
ATOM     19  C   UNL     1       0.855  -8.128   1.188  0.00  0.00    +0.021 C 
BRANCH  19  20
ATOM     20  C   UNL     1      -0.170  -9.067   0.605  0.00  0.00    +0.216 C 
ATOM     21  O   UNL     1      -1.063  -8.633  -0.093  0.00  0.00    -0.276 OA
ATOM     22  N   UNL     1      -0.094 -10.388   0.858  0.00  0.00    -0.209 N 
ATOM     23  H   UNL     1       0.619 -10.735   1.416  0.00  0.00    +0.177 HD
BRANCH  22  24
ATOM     24  N   UNL     1      -1.047 -11.261   0.316  0.00  0.00    -0.188 NA
ATOM     25  C   UNL     1      -1.045 -12.514   0.654  0.00  0.00    +0.138 C 
BRANCH  25  26
ATOM     26  C   UNL     1      -0.402 -12.938   1.910  0.00  0.00    -0.005 A 
ATOM     27  C   UNL     1      -0.142 -14.292   2.142  0.00  0.00    +0.011 A 
ATOM     28  C   UNL     1       0.460 -14.684   3.318  0.00  0.00    +0.024 A 
ATOM     29  C   UNL     1       0.808 -13.735   4.273  0.00  0.00    +0.029 A 
ATOM     30  C   UNL     1       0.550 -12.387   4.046  0.00  0.00    +0.024 A 
ATOM     31  C   UNL     1      -0.046 -11.987   2.870  0.00  0.00    +0.011 A 
BRANCH  29  32
ATOM     32  N   UNL     1       1.416 -14.136   5.462  0.00  0.00    -0.336 N 
ATOM     33  C   UNL     1       1.688 -15.555   5.704  0.00  0.00    +0.129 C 
ATOM     34  C   UNL     1       1.784 -13.138   6.470  0.00  0.00    +0.129 C 
ENDBRANCH  29  32
ENDBRANCH  25  26
ENDBRANCH  22  24
ENDBRANCH  19  20
ENDBRANCH  13  19
TORSDOF 5
