REMARK  Name = ZINC35497148
REMARK  8 active torsions:
REMARK  status: ('A' for Active; 'I' for Inactive)
REMARK    1  A    between atoms: C_7  and  C_11
REMARK    2  A    between atoms: C_11  and  C_12
REMARK    3  A    between atoms: C_12  and  N_13
REMARK    4  A    between atoms: N_13  and  C_14
REMARK    5  A    between atoms: C_14  and  C_15
REMARK    6  A    between atoms: C_24  and  C_26
REMARK    7  A    between atoms: C_26  and  C_27
REMARK    8  A    between atoms: C_27  and  C_28
REMARK                            x       y       z     vdW  Elec       q    Type
REMARK                         _______ _______ _______ _____ _____    ______ ____
ROOT
ATOM      1  N   UNL     1      -0.595  -5.026  -1.468  0.00  0.00    -0.297 N 
ATOM      2  C   UNL     1       0.292  -6.039  -1.408  0.00  0.00    +0.216 C 
ATOM      3  O   UNL     1       1.481  -5.803  -1.382  0.00  0.00    -0.276 OA
ENDROOT
BRANCH   1   4
ATOM      4  C   UNL     1      -0.129  -3.639  -1.397  0.00  0.00    +0.113 C 
BRANCH   4   5
ATOM      5  C   UNL     1       0.058  -3.238   0.068  0.00  0.00    +0.056 C 
BRANCH   5  12
ATOM      6  C   UNL     1      -1.718   1.097  -0.070  0.00  0.00    +0.001 A 
ATOM      7  C   UNL     1      -0.747   2.083   0.032  0.00  0.00    +0.002 A 
ATOM      8  C   UNL     1       0.584   1.749   0.157  0.00  0.00    +0.026 A 
ATOM      9  C   UNL     1       0.960   0.410   0.183  0.00  0.00    +0.047 A 
ATOM     10  C   UNL     1      -0.029  -0.586   0.080  0.00  0.00    +0.003 A 
ATOM     11  C   UNL     1      -1.371  -0.224  -0.047  0.00  0.00    +0.010 A 
ATOM     12  C   UNL     1       0.679  -1.867   0.138  0.00  0.00    -0.021 A 
ATOM     13  C   UNL     1       1.986  -1.588   0.266  0.00  0.00    +0.087 A 
ATOM     14  N   UNL     1       2.173  -0.233   0.294  0.00  0.00    -0.360 N 
ATOM     15  H   UNL     1       3.031   0.210   0.381  0.00  0.00    +0.165 HD
ENDBRANCH   5  12
ENDBRANCH   4   5
ENDBRANCH   1   4
BRANCH   1  16
ATOM     16  C   UNL     1      -2.026  -5.312  -1.604  0.00  0.00    +0.146 C 
BRANCH  16  17
ATOM     17  C   UNL     1      -2.638  -5.473  -0.236  0.00  0.00    +0.015 A 
ATOM     18  C   UNL     1      -2.835  -6.737   0.288  0.00  0.00    +0.009 A 
ATOM     19  C   UNL     1      -3.396  -6.888   1.542  0.00  0.00    +0.004 A 
ATOM     20  C   UNL     1      -3.763  -5.776   2.278  0.00  0.00    +0.049 A 
ATOM     21  C   UNL     1      -3.569  -4.507   1.758  0.00  0.00    +0.167 A 
ATOM     22  C   UNL     1      -2.999  -4.354   0.497  0.00  0.00    +0.171 A 
ATOM     23  O   UNL     1      -2.909  -3.021   0.217  0.00  0.00    -0.452 OA
ATOM     24  C   UNL     1      -3.797  -2.373   1.146  0.00  0.00    +0.466 C 
ATOM     25  O   UNL     1      -3.839  -3.270   2.268  0.00  0.00    -0.453 OA
ENDBRANCH  16  17
ENDBRANCH   1  16
BRANCH   2  26
ATOM     26  C   UNL     1      -0.195  -7.465  -1.373  0.00  0.00    +0.103 C 
BRANCH  26  27
ATOM     27  C   UNL     1       1.004  -8.411  -1.277  0.00  0.00    +0.083 C 
BRANCH  27  28
ATOM     28  C   UNL     1       0.518  -9.837  -1.242  0.00  0.00    +0.109 A 
ATOM     29  N   UNL     1       0.919 -10.818  -2.094  0.00  0.00    -0.342 N 
ATOM     30  H   UNL     1       1.557 -10.725  -2.819  0.00  0.00    +0.167 HD
ATOM     31  C   UNL     1       0.249 -11.971  -1.737  0.00  0.00    +0.066 A 
ATOM     32  C   UNL     1       0.238 -13.273  -2.221  0.00  0.00    +0.028 A 
ATOM     33  C   UNL     1      -0.567 -14.217  -1.621  0.00  0.00    +0.002 A 
ATOM     34  C   UNL     1      -1.366 -13.876  -0.539  0.00  0.00    +0.002 A 
ATOM     35  C   UNL     1      -1.368 -12.601  -0.049  0.00  0.00    +0.030 A 
ATOM     36  C   UNL     1      -0.559 -11.627  -0.641  0.00  0.00    +0.089 A 
ATOM     37  N   UNL     1      -0.342 -10.310  -0.388  0.00  0.00    -0.232 NA
ENDBRANCH  27  28
ENDBRANCH  26  27
ENDBRANCH   2  26
TORSDOF 8
