REMARK  Name = ZINC01322285
REMARK  6 active torsions:
REMARK  status: ('A' for Active; 'I' for Inactive)
REMARK    1  A    between atoms: C_1  and  N_51
REMARK    2  A    between atoms: C_8  and  O_27
REMARK    3  A    between atoms: C_10  and  C_12
REMARK    4  A    between atoms: N_17  and  C_20
REMARK    5  A    between atoms: C_18  and  O_19
REMARK    6  A    between atoms: O_27  and  C_28
REMARK                            x       y       z     vdW  Elec       q    Type
REMARK                         _______ _______ _______ _____ _____    ______ ____
ROOT
ATOM      1  C   UNL     1      -6.274   1.772  -3.067  0.00  0.00    -0.095 C 
ATOM      2  C   UNL     1      -7.259   3.589  -4.333  0.00  0.00    -0.073 C 
ATOM      3  C   UNL     1      -7.713   5.041  -4.180  0.00  0.00    +0.017 C 
ATOM      4  C   UNL     1      -6.531   5.919  -3.858  0.00  0.00    -0.040 A 
ATOM      5  C   UNL     1      -6.662   7.290  -4.026  0.00  0.00    +0.053 A 
ATOM      6  C   UNL     1      -5.606   8.137  -3.740  0.00  0.00    +0.170 A 
ATOM      7  C   UNL     1      -4.404   7.609  -3.281  0.00  0.00    +0.208 A 
ATOM      8  C   UNL     1      -4.275   6.238  -3.115  0.00  0.00    +0.167 A 
ATOM      9  C   UNL     1      -5.341   5.391  -3.405  0.00  0.00    -0.008 A 
ATOM     10  C   UNL     1      -5.150   3.910  -3.211  0.00  0.00    +0.007 C 
ATOM     11  O   UNL     1      -3.527   8.636  -3.071  0.00  0.00    -0.449 OA
ATOM     12  C   UNL     1      -4.336   9.826  -3.018  0.00  0.00    +0.467 C 
ATOM     13  O   UNL     1      -5.484   9.495  -3.820  0.00  0.00    -0.452 OA
ATOM     14  N   UNL     1      -6.459   3.239  -3.142  0.00  0.00    +0.386 N 
ATOM     15  H   UNL     1      -6.955   3.556  -2.300  0.00  0.00    -0.081 HD
ENDROOT
BRANCH  10  16
ATOM     16  C   UNL     1      -4.409   3.668  -1.921  0.00  0.00    +0.070 A 
ATOM     17  C   UNL     1      -5.048   3.868  -0.679  0.00  0.00    +0.279 A 
ATOM     18  O   UNL     1      -6.212   4.240  -0.640  0.00  0.00    -0.265 OA
ATOM     19  N   UNL     1      -4.373   3.648   0.459  0.00  0.00    -0.183 NA
ATOM     20  C   UNL     1      -3.120   3.242   0.435  0.00  0.00    +0.190 A 
ATOM     21  N   UNL     1      -2.466   3.042  -0.746  0.00  0.00    -0.259 N 
ATOM     22  C   UNL     1      -3.113   3.253  -1.936  0.00  0.00    +0.207 A 
ATOM     23  S   UNL     1      -2.272   2.959   1.953  0.00  0.00    -0.010 SA
BRANCH  21  24
ATOM     24  C   UNL     1      -1.132   2.615  -0.742  0.00  0.00    +0.052 A 
ATOM     25  C   UNL     1      -0.799   1.369  -1.256  0.00  0.00    +0.026 A 
ATOM     26  C   UNL     1       0.517   0.949  -1.247  0.00  0.00    +0.002 A 
ATOM     27  C   UNL     1       1.503   1.772  -0.735  0.00  0.00    +0.000 A 
ATOM     28  C   UNL     1       1.175   3.015  -0.226  0.00  0.00    +0.002 A 
ATOM     29  C   UNL     1      -0.140   3.439  -0.228  0.00  0.00    +0.026 A 
ENDBRANCH  21  24
BRANCH  22  30
ATOM     30  O   UNL     1      -2.471   3.051  -3.109  0.00  0.00    -0.493 OA
ATOM     31  H   UNL     1      -2.554   2.151  -3.453  0.00  0.00    +0.294 HD
ENDBRANCH  22  30
ENDBRANCH  10  16
BRANCH   8  32
ATOM     32  O   UNL     1      -3.101   5.718  -2.667  0.00  0.00    -0.491 OA
ATOM     33  C   UNL     1      -2.070   5.513  -3.635  0.00  0.00    +0.277 C 
ENDBRANCH   8  32
TORSDOF 4
