REMARK  Name = ZINC23737943
REMARK  9 active torsions:
REMARK  status: ('A' for Active; 'I' for Inactive)
REMARK    1  A    between atoms: C_1  and  C_2
REMARK    2  A    between atoms: C_5  and  C_8
REMARK    3  A    between atoms: C_8  and  C_33
REMARK    4  A    between atoms: N_11  and  C_15
REMARK    5  A    between atoms: C_15  and  C_16
REMARK    6  A    between atoms: N_18  and  C_19
REMARK    7  A    between atoms: C_19  and  C_20
REMARK    8  A    between atoms: C_20  and  C_22
REMARK    9  A    between atoms: C_20  and  N_28
REMARK                            x       y       z     vdW  Elec       q    Type
REMARK                         _______ _______ _______ _____ _____    ______ ____
ROOT
ATOM      1  C   UNL     1      -0.105   1.727   0.172  0.00  0.00    +0.231 C 
ATOM      2  O   UNL     1      -0.232   0.605   0.616  0.00  0.00    -0.274 OA
ATOM      3  N   UNL     1       1.122   2.202  -0.118  0.00  0.00    -0.315 N 
ATOM      4  H   UNL     1       1.237   3.220  -0.520  0.00  0.00    +0.149 HD
ENDROOT
BRANCH   1   5
ATOM      5  C   UNL     1      -1.321   2.587  -0.059  0.00  0.00    +0.213 C 
BRANCH   5   9
ATOM      6  C   UNL     1      -4.279   0.964   1.493  0.00  0.00    +0.135 C 
ATOM      7  C   UNL     1      -3.061   1.863   1.562  0.00  0.00    +0.251 C 
ATOM      8  O   UNL     1      -2.653   2.470   2.529  0.00  0.00    -0.272 OA
ATOM      9  N   UNL     1      -2.524   1.846   0.326  0.00  0.00    -0.215 N 
ATOM     10  C   UNL     1      -3.230   1.073  -0.508  0.00  0.00    +0.310 C 
ATOM     11  O   UNL     1      -2.944   0.903  -1.677  0.00  0.00    -0.252 OA
ATOM     12  N   UNL     1      -4.288   0.501   0.094  0.00  0.00    -0.281 N 
ATOM     13  C   UNL     1      -4.130  -0.220   2.450  0.00  0.00    +0.047 C 
ATOM     14  H   UNL     1      -5.076  -0.184  -0.253  0.00  0.00    +0.152 HD
BRANCH   6  19
ATOM     15  C   UNL     1      -9.082   3.951   2.678  0.00  0.00    +0.044 C 
ATOM     16  C   UNL     1      -7.829   3.172   2.369  0.00  0.00    -0.050 A 
ATOM     17  C   UNL     1      -7.884   2.086   1.516  0.00  0.00    +0.004 A 
ATOM     18  C   UNL     1      -6.735   1.371   1.232  0.00  0.00    +0.006 A 
ATOM     19  C   UNL     1      -5.532   1.743   1.802  0.00  0.00    -0.015 A 
ATOM     20  C   UNL     1      -5.478   2.825   2.660  0.00  0.00    +0.006 A 
ATOM     21  C   UNL     1      -6.626   3.543   2.939  0.00  0.00    +0.004 A 
ENDBRANCH   6  19
ENDBRANCH   5   9
ENDBRANCH   1   5
BRANCH   3  22
ATOM     22  C   UNL     1       2.303   1.364   0.102  0.00  0.00    +0.093 C 
BRANCH  22  23
ATOM     23  C   UNL     1       3.567   2.189  -0.146  0.00  0.00    -0.020 C 
BRANCH  23  24
ATOM     24  C   UNL     1       4.780   1.306   0.001  0.00  0.00    -0.059 A 
ATOM     25  C   UNL     1       5.195   0.905   1.257  0.00  0.00    +0.002 A 
ATOM     26  C   UNL     1       6.304   0.091   1.391  0.00  0.00    +0.000 A 
ATOM     27  C   UNL     1       7.005  -0.312   0.270  0.00  0.00    +0.000 A 
ATOM     28  C   UNL     1       6.593   0.094  -0.986  0.00  0.00    +0.000 A 
ATOM     29  C   UNL     1       5.481   0.903  -1.120  0.00  0.00    +0.002 A 
ENDBRANCH  23  24
BRANCH  23  30
ATOM     30  N   UNL     1       3.637   3.283   0.832  0.00  0.00    +0.385 N 
ATOM     31  C   UNL     1       4.975   3.929   0.814  0.00  0.00    -0.078 C 
ATOM     32  C   UNL     1       4.710   5.312   1.460  0.00  0.00    -0.020 C 
ATOM     33  C   UNL     1       3.315   5.689   0.911  0.00  0.00    -0.020 C 
ATOM     34  C   UNL     1       2.669   4.352   0.501  0.00  0.00    -0.078 C 
ATOM     35  H   UNL     1       3.416   2.827   1.808  0.00  0.00    -0.081 HD
ENDBRANCH  23  30
ENDBRANCH  22  23
ENDBRANCH   3  22
TORSDOF 7
