REMARK  Name = ZINC11550337
REMARK  7 active torsions:
REMARK  status: ('A' for Active; 'I' for Inactive)
REMARK    1  A    between atoms: C_1  and  C_2
REMARK    2  A    between atoms: C_8  and  C_10
REMARK    3  A    between atoms: C_11  and  C_27
REMARK    4  A    between atoms: C_16  and  C_18
REMARK    5  A    between atoms: C_21  and  C_24
REMARK    6  A    between atoms: C_24  and  C_25
REMARK    7  A    between atoms: C_24  and  C_26
REMARK                            x       y       z     vdW  Elec       q    Type
REMARK                         _______ _______ _______ _____ _____    ______ ____
ROOT
ATOM      1  C   UNL     1      -1.138   3.136  -0.034  0.00  0.00    +0.056 C 
ATOM      2  C   UNL     1       0.089   3.696  -0.082  0.00  0.00    +0.017 C 
ATOM      3  N   UNL     1       1.216   2.925  -0.086  0.00  0.00    -0.300 N 
ATOM      4  C   UNL     1       1.200   1.586  -0.044  0.00  0.00    +0.135 C 
ATOM      5  S   UNL     1       2.689   0.740  -0.056  0.00  0.00    -0.019 S 
ATOM      6  N   UNL     1       0.051   0.884   0.006  0.00  0.00    -0.315 N 
ATOM      7  C   UNL     1      -1.222   1.623   0.009  0.00  0.00    +0.139 C 
ATOM      8  C   UNL     1       0.218   5.196  -0.132  0.00  0.00    +0.061 C 
ATOM      9  H   UNL     1       2.076   3.371  -0.121  0.00  0.00    +0.154 HD
ATOM     10  H   UNL     1       0.063  -0.086   0.036  0.00  0.00    +0.149 HD
ENDROOT
BRANCH   1  18
ATOM     11  C   UNL     1      -6.572   7.345   0.280  0.00  0.00    +0.089 C 
ATOM     12  C   UNL     1      -5.493   6.636  -0.496  0.00  0.00    +0.136 A 
ATOM     13  C   UNL     1      -4.573   5.777  -0.002  0.00  0.00    +0.091 A 
ATOM     14  C   UNL     1      -3.807   5.403  -1.138  0.00  0.00    +0.168 A 
ATOM     15  N   UNL     1      -4.318   6.051  -2.152  0.00  0.00    -0.063 NA
ATOM     16  O   UNL     1      -5.257   6.734  -1.813  0.00  0.00    -0.358 OA
ATOM     17  N   UNL     1      -2.725   4.526  -1.165  0.00  0.00    -0.264 N 
ATOM     18  C   UNL     1      -2.307   3.934  -0.028  0.00  0.00    +0.249 C 
ATOM     19  O   UNL     1      -2.936   4.087   1.003  0.00  0.00    -0.270 OA
ATOM     20  H   UNL     1      -2.271   4.341  -2.003  0.00  0.00    +0.157 HD
ENDBRANCH   1  18
BRANCH   7  21
ATOM     21  C   UNL     1      -2.029   1.164  -1.178  0.00  0.00    -0.023 A 
ATOM     22  C   UNL     1      -1.395   0.865  -2.370  0.00  0.00    +0.006 A 
ATOM     23  C   UNL     1      -2.134   0.440  -3.458  0.00  0.00    +0.004 A 
ATOM     24  C   UNL     1      -3.508   0.323  -3.357  0.00  0.00    -0.045 A 
ATOM     25  C   UNL     1      -4.142   0.627  -2.167  0.00  0.00    +0.004 A 
ATOM     26  C   UNL     1      -3.402   1.048  -1.078  0.00  0.00    +0.006 A 
BRANCH  24  27
ATOM     27  C   UNL     1      -4.314  -0.135  -4.545  0.00  0.00    +0.013 C 
ATOM     28  C   UNL     1      -4.109   0.840  -5.707  0.00  0.00    +0.012 C 
ATOM     29  C   UNL     1      -3.855  -1.533  -4.965  0.00  0.00    +0.012 C 
ENDBRANCH  24  27
ENDBRANCH   7  21
TORSDOF 3
