REMARK  Name = ZINC20076435
REMARK  14 active torsions:
REMARK  status: ('A' for Active; 'I' for Inactive)
REMARK    1  A    between atoms: C_1  and  C_2
REMARK    2  A    between atoms: C_2  and  N_3
REMARK    3  A    between atoms: N_3  and  C_4
REMARK    4  A    between atoms: C_4  and  C_5
REMARK    5  A    between atoms: C_6  and  C_8
REMARK    6  A    between atoms: N_14  and  S_15
REMARK    7  A    between atoms: S_15  and  C_18
REMARK    8  A    between atoms: C_20  and  N_36
REMARK    9  A    between atoms: C_23  and  N_24
REMARK   10  A    between atoms: N_24  and  N_25
REMARK   11  A    between atoms: C_26  and  C_27
REMARK   12  A    between atoms: C_30  and  N_33
REMARK   13  A    between atoms: N_33  and  C_34
REMARK   14  A    between atoms: N_33  and  C_35
REMARK                            x       y       z     vdW  Elec       q    Type
REMARK                         _______ _______ _______ _____ _____    ______ ____
ROOT
ATOM      1  C   UNL     1       3.970  -1.174  -0.666  0.00  0.00    +0.130 A 
ATOM      2  C   UNL     1       5.178  -0.776  -1.204  0.00  0.00    +0.063 A 
ATOM      3  C   UNL     1       5.476  -1.063  -2.524  0.00  0.00    +0.128 A 
ATOM      4  C   UNL     1       4.563  -1.740  -3.312  0.00  0.00    +0.035 A 
ATOM      5  C   UNL     1       3.352  -2.136  -2.782  0.00  0.00    +0.029 A 
ATOM      6  C   UNL     1       3.050  -1.854  -1.455  0.00  0.00    +0.075 A 
ENDROOT
BRANCH   1   7
ATOM      7  S   UNL     1       3.592  -0.813   1.017  0.00  0.00    +0.063 S 
ATOM      8  O   UNL     1       4.703  -0.096   1.537  0.00  0.00    -0.153 OA
ATOM      9  O   UNL     1       3.127  -2.023   1.597  0.00  0.00    -0.153 OA
BRANCH   7  15
ATOM     10  C   UNL     1       1.122  -0.035   1.838  0.00  0.00    +0.166 C 
ATOM     11  C   UNL     1      -0.119   0.013   0.942  0.00  0.00    +0.030 C 
ATOM     12  C   UNL     1      -0.157   1.353   0.203  0.00  0.00    +0.003 C 
ATOM     13  C   UNL     1       1.084   1.485  -0.682  0.00  0.00    +0.017 C 
ATOM     14  C   UNL     1       2.339   1.453   0.196  0.00  0.00    +0.110 C 
ATOM     15  N   UNL     1       2.310   0.235   1.017  0.00  0.00    -0.165 NA
BRANCH  10  17
ATOM     16  N   UNL     1       1.755  -1.534   3.702  0.00  0.00    -0.301 N 
ATOM     17  C   UNL     1       1.241  -1.401   2.463  0.00  0.00    +0.234 C 
ATOM     18  O   UNL     1       0.874  -2.382   1.851  0.00  0.00    -0.274 OA
BRANCH  16  20
ATOM     19  C   UNL     1       0.945   0.055   5.376  0.00  0.00    +0.024 C 
ATOM     20  C   UNL     1       2.116  -0.343   4.476  0.00  0.00    +0.104 C 
ENDBRANCH  16  20
BRANCH  16  21
ATOM     21  C   UNL     1       1.952  -2.867   4.275  0.00  0.00    +0.104 C 
ATOM     22  C   UNL     1       3.394  -3.318   4.033  0.00  0.00    +0.024 C 
ENDBRANCH  16  21
ENDBRANCH  10  17
ENDBRANCH   7  15
ENDBRANCH   1   7
BRANCH   3  23
ATOM     23  N   UNL     1       6.778  -0.637  -3.097  0.00  0.00    +0.056 N 
ATOM     24  O   UNL     1       7.041  -0.885  -4.261  0.00  0.00    -0.126 OA
ATOM     25  O   UNL     1       7.583  -0.041  -2.405  0.00  0.00    -0.126 OA
ENDBRANCH   3  23
BRANCH   6  26
ATOM     26  N   UNL     1       1.826  -2.252  -0.916  0.00  0.00    -0.236 N 
ATOM     27  H   UNL     1       1.612  -2.082   0.149  0.00  0.00    +0.174 HD
BRANCH  26  28
ATOM     28  N   UNL     1       0.869  -2.868  -1.733  0.00  0.00    -0.190 NA
ATOM     29  C   UNL     1      -0.302  -3.162  -1.253  0.00  0.00    +0.138 C 
BRANCH  29  30
ATOM     30  C   UNL     1      -1.271  -3.906  -2.077  0.00  0.00    -0.005 A 
ATOM     31  C   UNL     1      -0.934  -4.292  -3.378  0.00  0.00    +0.011 A 
ATOM     32  C   UNL     1      -1.840  -4.992  -4.144  0.00  0.00    +0.024 A 
ATOM     33  C   UNL     1      -3.094  -5.305  -3.628  0.00  0.00    +0.029 A 
ATOM     34  C   UNL     1      -3.434  -4.918  -2.336  0.00  0.00    +0.024 A 
ATOM     35  C   UNL     1      -2.531  -4.223  -1.563  0.00  0.00    +0.011 A 
BRANCH  33  36
ATOM     36  N   UNL     1      -4.011  -6.009  -4.409  0.00  0.00    -0.336 N 
ATOM     37  C   UNL     1      -5.331  -6.341  -3.867  0.00  0.00    +0.129 C 
ATOM     38  C   UNL     1      -3.654  -6.417  -5.770  0.00  0.00    +0.129 C 
ENDBRANCH  33  36
ENDBRANCH  29  30
ENDBRANCH  26  28
ENDBRANCH   6  26
TORSDOF 10
