REMARK  Name = ZINC18232531
REMARK  8 active torsions:
REMARK  status: ('A' for Active; 'I' for Inactive)
REMARK    1  A    between atoms: C_4  and  N_32
REMARK    2  A    between atoms: C_5  and  N_7
REMARK    3  A    between atoms: N_7  and  C_8
REMARK    4  A    between atoms: C_8  and  C_9
REMARK    5  A    between atoms: C_9  and  N_10
REMARK    6  A    between atoms: C_11  and  C_13
REMARK    7  A    between atoms: N_16  and  S_19
REMARK    8  A    between atoms: S_19  and  C_22
REMARK                            x       y       z     vdW  Elec       q    Type
REMARK                         _______ _______ _______ _____ _____    ______ ____
ROOT
ATOM      1  C   UNL     1      -1.322   1.913  -0.320  0.00  0.00    +0.077 C 
ATOM      2  C   UNL     1      -1.478   2.983   0.763  0.00  0.00    +0.030 C 
ATOM      3  C   UNL     1      -2.796   3.734   0.546  0.00  0.00    +0.110 C 
ATOM      4  N   UNL     1      -3.894   2.759   0.498  0.00  0.00    -0.177 NA
ATOM      5  C   UNL     1      -3.802   1.637  -0.446  0.00  0.00    +0.110 C 
ATOM      6  C   UNL     1      -2.473   0.909  -0.218  0.00  0.00    +0.030 C 
ENDROOT
BRANCH   1   8
ATOM      7  N   UNL     1       1.148   1.881  -0.186  0.00  0.00    -0.314 N 
ATOM      8  C   UNL     1      -0.011   1.195  -0.131  0.00  0.00    +0.216 C 
ATOM      9  O   UNL     1       0.002  -0.002   0.066  0.00  0.00    -0.276 OA
ATOM     10  H   UNL     1       1.137   2.838  -0.344  0.00  0.00    +0.149 HD
BRANCH   7  11
ATOM     11  C   UNL     1       2.422   1.182  -0.008  0.00  0.00    +0.123 C 
BRANCH  11  12
ATOM     12  C   UNL     1       3.573   2.184  -0.116  0.00  0.00    +0.120 C 
BRANCH  12  13
ATOM     13  N   UNL     1       4.848   1.485   0.063  0.00  0.00    -0.341 N 
ATOM     14  H   UNL     1       4.859   0.528   0.220  0.00  0.00    +0.146 HD
BRANCH  13  19
ATOM     15  C   UNL     1       7.222   4.282  -0.148  0.00  0.00    +0.002 A 
ATOM     16  C   UNL     1       8.428   3.605  -0.108  0.00  0.00    +0.002 A 
ATOM     17  C   UNL     1       8.447   2.226  -0.011  0.00  0.00    +0.034 A 
ATOM     18  C   UNL     1       7.261   1.520   0.046  0.00  0.00    +0.147 A 
ATOM     19  C   UNL     1       6.049   2.196   0.005  0.00  0.00    +0.058 A 
ATOM     20  C   UNL     1       6.033   3.582  -0.098  0.00  0.00    +0.025 A 
BRANCH  18  21
ATOM     21  N   UNL     1       7.283   0.043   0.149  0.00  0.00    +0.058 N 
ATOM     22  O   UNL     1       8.134  -0.508   0.824  0.00  0.00    -0.126 OA
ATOM     23  O   UNL     1       6.449  -0.621  -0.441  0.00  0.00    -0.126 OA
ENDBRANCH  18  21
ENDBRANCH  13  19
ENDBRANCH  12  13
ENDBRANCH  11  12
ENDBRANCH   7  11
ENDBRANCH   1   8
BRANCH   4  24
ATOM     24  S   UNL     1      -5.211   2.922   1.489  0.00  0.00    +0.061 S 
ATOM     25  O   UNL     1      -5.290   4.298   1.836  0.00  0.00    -0.153 OA
ATOM     26  O   UNL     1      -6.281   2.232   0.859  0.00  0.00    -0.153 OA
BRANCH  24  27
ATOM     27  C   UNL     1      -4.855   2.047   2.977  0.00  0.00    +0.106 A 
ATOM     28  C   UNL     1      -5.196   0.712   3.095  0.00  0.00    +0.029 A 
ATOM     29  C   UNL     1      -4.910   0.033   4.261  0.00  0.00    +0.006 A 
ATOM     30  C   UNL     1      -4.294   0.682   5.323  0.00  0.00    -0.044 A 
ATOM     31  C   UNL     1      -3.957   2.012   5.207  0.00  0.00    -0.042 A 
ATOM     32  C   UNL     1      -4.240   2.693   4.029  0.00  0.00    +0.032 A 
ATOM     33  C   UNL     1      -3.279   2.777   6.313  0.00  0.00    +0.035 C 
ATOM     34  C   UNL     1      -3.429   2.043   7.644  0.00  0.00    +0.005 C 
ATOM     35  C   UNL     1      -2.988   0.588   7.446  0.00  0.00    +0.005 C 
ATOM     36  C   UNL     1      -4.025  -0.115   6.572  0.00  0.00    +0.035 C 
ENDBRANCH  24  27
ENDBRANCH   4  24
TORSDOF 8
