REMARK  Name = ZINC38623795
REMARK  8 active torsions:
REMARK  status: ('A' for Active; 'I' for Inactive)
REMARK    1  A    between atoms: C_1  and  N_2
REMARK    2  A    between atoms: N_5  and  C_8
REMARK    3  A    between atoms: C_8  and  C_10
REMARK    4  A    between atoms: C_8  and  C_27
REMARK    5  A    between atoms: C_10  and  N_11
REMARK    6  A    between atoms: C_12  and  C_14
REMARK    7  A    between atoms: C_17  and  O_20
REMARK    8  A    between atoms: O_20  and  C_21
REMARK                            x       y       z     vdW  Elec       q    Type
REMARK                         _______ _______ _______ _____ _____    ______ ____
ROOT
ATOM      1  C   UNL     1       0.930  -3.292   0.660  0.00  0.00    +0.104 C 
ENDROOT
BRANCH   1   2
ATOM      2  C   UNL     1       1.577  -3.573   1.992  0.00  0.00    -0.025 A 
ATOM      3  C   UNL     1       1.203  -2.846   3.107  0.00  0.00    +0.009 A 
ATOM      4  C   UNL     1       1.793  -3.101   4.331  0.00  0.00    +0.050 A 
ATOM      5  C   UNL     1       2.761  -4.085   4.443  0.00  0.00    +0.166 A 
ATOM      6  C   UNL     1       3.138  -4.816   3.319  0.00  0.00    +0.167 A 
ATOM      7  C   UNL     1       2.539  -4.560   2.097  0.00  0.00    +0.054 A 
ATOM      8  O   UNL     1       4.098  -5.715   3.686  0.00  0.00    -0.453 OA
ATOM      9  C   UNL     1       4.597  -5.249   4.954  0.00  0.00    +0.466 C 
ATOM     10  O   UNL     1       3.485  -4.525   5.513  0.00  0.00    -0.453 OA
ENDBRANCH   1   2
BRANCH   1  15
ATOM     11  C   UNL     1       3.655   1.507  -0.476  0.00  0.00    -0.096 C 
ATOM     12  N   UNL     1       3.188   0.237   0.095  0.00  0.00    +0.379 N 
ATOM     13  C   UNL     1       1.785   0.373   0.509  0.00  0.00    -0.064 C 
ATOM     14  C   UNL     1       1.304  -0.944   1.121  0.00  0.00    +0.066 C 
ATOM     15  N   UNL     1       1.436  -2.020   0.128  0.00  0.00    -0.297 NA
ATOM     16  C   UNL     1       2.832  -2.152  -0.315  0.00  0.00    +0.066 C 
ATOM     17  C   UNL     1       3.301  -0.824  -0.915  0.00  0.00    -0.064 C 
ATOM     18  H   UNL     1       3.753  -0.000   0.896  0.00  0.00    -0.082 HD
ENDBRANCH   1  15
BRANCH   1  19
ATOM     19  C   UNL     1      -0.587  -3.203   0.838  0.00  0.00    +0.128 C 
BRANCH  19  20
ATOM     20  N   UNL     1      -1.208  -2.846  -0.440  0.00  0.00    -0.310 N 
ATOM     21  C   UNL     1      -2.551  -2.805  -0.548  0.00  0.00    +0.244 C 
ATOM     22  O   UNL     1      -3.247  -3.065   0.415  0.00  0.00    -0.270 OA
ATOM     23  H   UNL     1      -0.653  -2.639  -1.208  0.00  0.00    +0.149 HD
BRANCH  21  24
ATOM     24  C   UNL     1      -3.177  -2.445  -1.835  0.00  0.00    +0.037 A 
ATOM     25  C   UNL     1      -2.380  -2.152  -2.944  0.00  0.00    +0.016 A 
ATOM     26  C   UNL     1      -2.968  -1.817  -4.144  0.00  0.00    +0.047 A 
ATOM     27  C   UNL     1      -4.353  -1.770  -4.251  0.00  0.00    +0.128 A 
ATOM     28  C   UNL     1      -5.150  -2.061  -3.150  0.00  0.00    +0.047 A 
ATOM     29  C   UNL     1      -4.569  -2.403  -1.949  0.00  0.00    +0.016 A 
BRANCH  27  30
ATOM     30  O   UNL     1      -4.929  -1.439  -5.435  0.00  0.00    -0.456 OA
BRANCH  30  31
ATOM     31  C   UNL     1      -4.960  -2.380  -6.415  0.00  0.00    +0.128 A 
ATOM     32  C   UNL     1      -4.478  -3.657  -6.167  0.00  0.00    +0.046 A 
ATOM     33  C   UNL     1      -4.511  -4.612  -7.165  0.00  0.00    +0.004 A 
ATOM     34  C   UNL     1      -5.024  -4.295  -8.409  0.00  0.00    +0.000 A 
ATOM     35  C   UNL     1      -5.505  -3.023  -8.659  0.00  0.00    +0.004 A 
ATOM     36  C   UNL     1      -5.480  -2.067  -7.662  0.00  0.00    +0.046 A 
ENDBRANCH  30  31
ENDBRANCH  27  30
ENDBRANCH  21  24
ENDBRANCH  19  20
ENDBRANCH   1  19
TORSDOF 7
