REMARK  Name = ZINC40332652
REMARK  7 active torsions:
REMARK  status: ('A' for Active; 'I' for Inactive)
REMARK    1  A    between atoms: C_1  and  C_2
REMARK    2  A    between atoms: C_5  and  N_20
REMARK    3  A    between atoms: C_6  and  S_9
REMARK    4  A    between atoms: C_7  and  C_8
REMARK    5  A    between atoms: S_9  and  N_12
REMARK    6  A    between atoms: N_12  and  C_13
REMARK    7  A    between atoms: C_13  and  C_14
REMARK                            x       y       z     vdW  Elec       q    Type
REMARK                         _______ _______ _______ _____ _____    ______ ____
ROOT
ATOM      1  C   UNL     1      -0.289   1.486  -0.017  0.00  0.00    +0.044 C 
ATOM      2  C   UNL     1      -0.127  -0.012  -0.011  0.00  0.00    -0.046 A 
ATOM      3  C   UNL     1       0.345  -0.659  -1.138  0.00  0.00    +0.005 A 
ATOM      4  C   UNL     1       0.494  -2.032  -1.136  0.00  0.00    +0.025 A 
ATOM      5  C   UNL     1       0.170  -2.763  -0.001  0.00  0.00    +0.052 A 
ATOM      6  C   UNL     1      -0.304  -2.110   1.130  0.00  0.00    +0.129 A 
ATOM      7  C   UNL     1      -0.446  -0.736   1.123  0.00  0.00    -0.019 A 
ATOM      8  C   UNL     1      -0.955  -0.025   2.351  0.00  0.00    +0.046 C 
ENDROOT
BRANCH   6   9
ATOM      9  S   UNL     1      -0.719  -3.032   2.573  0.00  0.00    +0.060 S 
ATOM     10  O   UNL     1      -1.633  -2.236   3.315  0.00  0.00    -0.153 OA
ATOM     11  O   UNL     1      -1.033  -4.348   2.138  0.00  0.00    -0.153 OA
BRANCH   9  12
ATOM     12  N   UNL     1       0.656  -3.152   3.489  0.00  0.00    -0.190 NA
ATOM     13  H   UNL     1       1.063  -4.019   3.641  0.00  0.00    +0.148 HD
BRANCH  12  14
ATOM     14  C   UNL     1       1.256  -1.948   4.069  0.00  0.00    +0.111 C 
BRANCH  14  15
ATOM     15  C   UNL     1       2.263  -2.350   5.149  0.00  0.00    +0.032 C 
ATOM     16  C   UNL     1       2.854  -1.094   5.834  0.00  0.00    +0.035 C 
ATOM     17  C   UNL     1       4.347  -1.482   5.990  0.00  0.00    +0.160 C 
ATOM     18  O   UNL     1       4.631  -2.221   4.783  0.00  0.00    -0.379 OA
ATOM     19  C   UNL     1       3.482  -3.049   4.516  0.00  0.00    +0.164 C 
ENDBRANCH  14  15
ENDBRANCH  12  14
ENDBRANCH   9  12
ENDBRANCH   6   9
BRANCH   5  20
ATOM     20  N   UNL     1       0.319  -4.152   0.005  0.00  0.00    -0.356 N 
ATOM     21  H   UNL     1       0.342  -4.640  -0.833  0.00  0.00    +0.142 HD
ATOM     22  H   UNL     1       0.399  -4.628   0.846  0.00  0.00    +0.142 HD
ENDBRANCH   5  20
TORSDOF 5
