REMARK  Name = ZINC25193375
REMARK  9 active torsions:
REMARK  status: ('A' for Active; 'I' for Inactive)
REMARK    1  A    between atoms: C_1  and  C_2
REMARK    2  A    between atoms: N_10  and  N_14
REMARK    3  A    between atoms: C_15  and  C_17
REMARK    4  A    between atoms: C_17  and  N_18
REMARK    5  A    between atoms: N_18  and  C_19
REMARK    6  A    between atoms: N_18  and  C_30
REMARK    7  A    between atoms: C_19  and  C_20
REMARK    8  A    between atoms: C_23  and  C_26
REMARK    9  A    between atoms: N_28  and  C_29
REMARK                            x       y       z     vdW  Elec       q    Type
REMARK                         _______ _______ _______ _____ _____    ______ ____
ROOT
ATOM      1  N   UNL     1      -8.109   6.247   2.945  0.00  0.00    -0.225 N 
ATOM      2  C   UNL     1      -6.997   5.505   2.769  0.00  0.00    +0.213 C 
ATOM      3  O   UNL     1      -6.345   5.153   3.729  0.00  0.00    -0.276 OA
ATOM      4  H   UNL     1      -8.701   6.566   2.075  0.00  0.00    +0.173 HD
ENDROOT
BRANCH   1  14
ATOM      5  C   UNL     1     -10.192   8.845  10.149  0.00  0.00    +0.007 C 
ATOM      6  C   UNL     1      -9.612   8.949   8.737  0.00  0.00    -0.014 C 
ATOM      7  C   UNL     1      -8.443   7.972   8.593  0.00  0.00    +0.006 C 
ATOM      8  C   UNL     1      -7.856   8.085   7.184  0.00  0.00    +0.035 C 
ATOM      9  C   UNL     1      -8.934   7.769   6.154  0.00  0.00    +0.114 C 
ATOM     10  C   UNL     1     -10.117   8.719   6.301  0.00  0.00    +0.035 C 
ATOM     11  C   UNL     1     -10.695   8.603   7.714  0.00  0.00    +0.006 C 
ATOM     12  C   UNL     1      -8.366   7.848   4.756  0.00  0.00    +0.263 C 
ATOM     13  O   UNL     1      -7.883   8.819   4.214  0.00  0.00    -0.271 OA
ATOM     14  N   UNL     1      -8.511   6.611   4.237  0.00  0.00    -0.137 N 
ATOM     15  C   UNL     1      -9.091   5.776   5.108  0.00  0.00    +0.326 C 
ATOM     16  O   UNL     1      -9.331   4.609   4.869  0.00  0.00    -0.251 OA
ATOM     17  N   UNL     1      -9.375   6.374   6.281  0.00  0.00    -0.284 N 
ATOM     18  H   UNL     1      -9.834   6.025   7.218  0.00  0.00    +0.151 HD
ENDBRANCH   1  14
BRANCH   2  19
ATOM     19  C   UNL     1      -6.565   5.113   1.380  0.00  0.00    +0.021 C 
BRANCH  19  20
ATOM     20  N   UNL     1      -5.398   4.225   1.462  0.00  0.00    +0.390 N 
ATOM     21  H   UNL     1      -5.573   3.513   2.281  0.00  0.00    -0.080 HD
BRANCH  20  22
ATOM     22  C   UNL     1      -5.234   3.455   0.222  0.00  0.00    -0.068 C 
ATOM     23  C   UNL     1      -6.064   3.883  -0.990  0.00  0.00    -0.017 C 
ATOM     24  C   UNL     1      -6.414   2.597  -0.238  0.00  0.00    -0.017 C 
ENDBRANCH  20  22
BRANCH  20  25
ATOM     25  C   UNL     1      -4.180   4.984   1.775  0.00  0.00    -0.042 C 
BRANCH  25  26
ATOM     26  C   UNL     1      -3.060   4.028   2.093  0.00  0.00    -0.064 A 
ATOM     27  C   UNL     1      -2.237   3.571   1.079  0.00  0.00    +0.002 A 
ATOM     28  C   UNL     1      -1.209   2.695   1.363  0.00  0.00    +0.013 A 
ATOM     29  C   UNL     1      -1.001   2.270   2.676  0.00  0.00    +0.037 A 
ATOM     30  C   UNL     1      -1.838   2.731   3.693  0.00  0.00    +0.013 A 
ATOM     31  C   UNL     1      -2.858   3.611   3.397  0.00  0.00    +0.002 A 
BRANCH  29  32
ATOM     32  C   UNL     1       0.098   1.331   2.987  0.00  0.00    +0.244 C 
ATOM     33  O   UNL     1       0.822   0.927   2.099  0.00  0.00    -0.270 OA
ATOM     34  N   UNL     1       0.300   0.928   4.257  0.00  0.00    -0.314 N 
ATOM     35  C   UNL     1       1.393   0.002   4.567  0.00  0.00    +0.128 C 
ATOM     36  H   UNL     1      -0.356   1.293   5.061  0.00  0.00    +0.149 HD
ENDBRANCH  29  32
ENDBRANCH  25  26
ENDBRANCH  20  25
ENDBRANCH  19  20
ENDBRANCH   2  19
TORSDOF 7
