REMARK  Name = ZINC13810194
REMARK  7 active torsions:
REMARK  status: ('A' for Active; 'I' for Inactive)
REMARK    1  A    between atoms: C_1  and  C_2
REMARK    2  A    between atoms: C_5  and  C_8
REMARK    3  A    between atoms: C_10  and  C_33
REMARK    4  A    between atoms: C_11  and  N_13
REMARK    5  A    between atoms: N_13  and  N_14
REMARK    6  A    between atoms: N_22  and  C_25
REMARK    7  A    between atoms: C_25  and  C_26
REMARK                            x       y       z     vdW  Elec       q    Type
REMARK                         _______ _______ _______ _____ _____    ______ ____
ROOT
ATOM      1  N   UNL     1       0.102  -7.304   2.760  0.00  0.00    -0.174 NA
ATOM      2  C   UNL     1       0.018  -8.366   3.529  0.00  0.00    +0.153 C 
ATOM      3  C   UNL     1       0.026  -9.786   3.109  0.00  0.00    +0.028 A 
ATOM      4  C   UNL     1       0.118 -10.413   1.871  0.00  0.00    +0.012 A 
ATOM      5  C   UNL     1       0.097 -11.792   1.799  0.00  0.00    +0.001 A 
ATOM      6  C   UNL     1      -0.014 -12.546   2.955  0.00  0.00    +0.002 A 
ATOM      7  C   UNL     1      -0.106 -11.933   4.188  0.00  0.00    +0.024 A 
ATOM      8  C   UNL     1      -0.086 -10.546   4.281  0.00  0.00    +0.046 A 
ATOM      9  N   UNL     1      -0.161  -9.691   5.375  0.00  0.00    -0.261 N 
ATOM     10  C   UNL     1      -0.099  -8.403   4.997  0.00  0.00    +0.272 C 
ATOM     11  O   UNL     1      -0.136  -7.437   5.737  0.00  0.00    -0.268 OA
ENDROOT
BRANCH   1  12
ATOM     12  N   UNL     1       0.037  -7.429   1.477  0.00  0.00    -0.204 N 
ATOM     13  H   UNL     1      -0.154  -8.295   1.084  0.00  0.00    +0.178 HD
BRANCH  12  17
ATOM     14  C   UNL     1       0.634  -4.306  -0.031  0.00  0.00    +0.231 A 
ATOM     15  N   UNL     1       0.450  -5.037  -1.100  0.00  0.00    -0.196 NA
ATOM     16  C   UNL     1       0.200  -6.310  -0.719  0.00  0.00    +0.203 A 
ATOM     17  C   UNL     1       0.238  -6.333   0.666  0.00  0.00    +0.244 A 
ATOM     18  O   UNL     1       0.514  -5.077   1.066  0.00  0.00    -0.419 OA
BRANCH  14  23
ATOM     19  C   UNL     1       1.798   1.329  -0.020  0.00  0.00    +0.044 C 
ATOM     20  C   UNL     1       1.493  -0.146  -0.023  0.00  0.00    -0.050 A 
ATOM     21  C   UNL     1       1.313  -0.810  -1.223  0.00  0.00    +0.004 A 
ATOM     22  C   UNL     1       1.034  -2.161  -1.233  0.00  0.00    +0.013 A 
ATOM     23  C   UNL     1       0.933  -2.859  -0.028  0.00  0.00    +0.037 A 
ATOM     24  C   UNL     1       1.116  -2.183   1.180  0.00  0.00    +0.013 A 
ATOM     25  C   UNL     1       1.400  -0.833   1.175  0.00  0.00    +0.004 A 
ENDBRANCH  14  23
BRANCH  16  26
ATOM     26  C   UNL     1      -0.057  -7.423  -1.582  0.00  0.00    +0.124 C 
ATOM     27  N   UNL     1      -0.260  -8.306  -2.268  0.00  0.00    -0.189 NA
ENDBRANCH  16  26
ENDBRANCH  12  17
ENDBRANCH   1  12
BRANCH   9  28
ATOM     28  C   UNL     1      -0.287 -10.139   6.764  0.00  0.00    +0.152 C 
BRANCH  28  29
ATOM     29  C   UNL     1       1.086 -10.319   7.360  0.00  0.00    +0.005 A 
ATOM     30  C   UNL     1       1.641 -11.582   7.447  0.00  0.00    +0.008 A 
ATOM     31  C   UNL     1       2.900 -11.748   7.993  0.00  0.00    +0.000 A 
ATOM     32  C   UNL     1       3.606 -10.651   8.452  0.00  0.00    +0.003 A 
ATOM     33  C   UNL     1       3.053  -9.388   8.365  0.00  0.00    +0.038 A 
ATOM     34  C   UNL     1       1.794  -9.220   7.814  0.00  0.00    +0.128 A 
ATOM     35  F   UNL     1       1.254  -7.984   7.724  0.00  0.00    -0.205 F 
ENDBRANCH  28  29
ENDBRANCH   9  28
TORSDOF 6
