REMARK  Name = ZINC05645225
REMARK  7 active torsions:
REMARK  status: ('A' for Active; 'I' for Inactive)
REMARK    1  A    between atoms: C_1  and  C_2
REMARK    2  A    between atoms: C_7  and  C_31
REMARK    3  A    between atoms: C_8  and  C_10
REMARK    4  A    between atoms: C_10  and  O_11
REMARK    5  A    between atoms: O_11  and  C_12
REMARK    6  A    between atoms: C_28  and  C_29
REMARK    7  A    between atoms: C_28  and  C_30
REMARK                            x       y       z     vdW  Elec       q    Type
REMARK                         _______ _______ _______ _____ _____    ______ ____
ROOT
ATOM      1  C   UNL     1      -0.367   0.898  -0.949  0.00  0.00    +0.039 C 
ATOM      2  C   UNL     1      -0.270  -0.587  -0.709  0.00  0.00    -0.070 C 
ATOM      3  C   UNL     1      -0.254  -1.369  -1.738  0.00  0.00    -0.027 C 
ATOM      4  C   UNL     1      -0.143  -2.860  -1.654  0.00  0.00    +0.032 C 
ATOM      5  C   UNL     1      -0.468  -3.357  -0.239  0.00  0.00    +0.012 C 
ATOM      6  C   UNL     1       0.301  -2.500   0.773  0.00  0.00    -0.018 C 
ATOM      7  C   UNL     1      -0.190  -1.067   0.707  0.00  0.00    +0.058 C 
ATOM      8  C   UNL     1       0.051  -3.010   2.196  0.00  0.00    +0.015 C 
ATOM      9  C   UNL     1       0.573  -4.440   2.344  0.00  0.00    +0.075 C 
ATOM     10  C   UNL     1      -0.090  -5.288   1.280  0.00  0.00    +0.139 C 
ATOM     11  O   UNL     1      -0.670  -6.308   1.567  0.00  0.00    -0.297 OA
ATOM     12  C   UNL     1      -0.019  -4.822  -0.157  0.00  0.00    +0.027 C 
ATOM     13  C   UNL     1       1.426  -4.941  -0.645  0.00  0.00    +0.019 C 
ATOM     14  C   UNL     1      -0.927  -5.684  -1.037  0.00  0.00    +0.019 C 
ATOM     15  C   UNL     1       1.796  -2.526   0.449  0.00  0.00    +0.012 C 
ENDROOT
BRANCH   7  16
ATOM     16  C   UNL     1      -1.581  -0.997   1.340  0.00  0.00    +0.237 C 
BRANCH  16  17
ATOM     17  O   UNL     1      -2.025   0.361   1.367  0.00  0.00    -0.492 OA
BRANCH  17  18
ATOM     18  C   UNL     1      -3.251   0.598   1.902  0.00  0.00    +0.120 C 
ATOM     19  C   UNL     1      -3.966  -0.428   2.373  0.00  0.00    +0.067 C 
ATOM     20  C   UNL     1      -5.338  -0.200   2.943  0.00  0.00    +0.233 C 
ATOM     21  C   UNL     1      -5.424   1.187   3.508  0.00  0.00    -0.007 C 
ATOM     22  C   UNL     1      -5.971   1.464   4.685  0.00  0.00    -0.008 C 
ATOM     23  C   UNL     1      -6.514   0.347   5.546  0.00  0.00    +0.148 C 
ATOM     24  C   UNL     1      -5.756  -0.911   5.166  0.00  0.00    +0.312 C 
ATOM     25  O   UNL     1      -5.223  -1.606   5.998  0.00  0.00    -0.250 OA
ATOM     26  O   UNL     1      -5.702  -1.209   3.864  0.00  0.00    -0.452 OA
ATOM     27  C   UNL     1      -4.825   2.281   2.717  0.00  0.00    +0.011 C 
ATOM     28  C   UNL     1      -3.753   1.974   1.954  0.00  0.00    +0.046 C 
ENDBRANCH  17  18
ENDBRANCH  16  17
ENDBRANCH   7  16
TORSDOF 3
