REMARK  Name = ZINC02501354
REMARK  4 active torsions:
REMARK  status: ('A' for Active; 'I' for Inactive)
REMARK    1  A    between atoms: C_3  and  N_23
REMARK    2  A    between atoms: C_6  and  C_7
REMARK    3  A    between atoms: N_9  and  S_13
REMARK    4  A    between atoms: S_13  and  C_16
REMARK                            x       y       z     vdW  Elec       q    Type
REMARK                         _______ _______ _______ _____ _____    ______ ____
ROOT
ATOM      1  C   UNL     1       2.350   1.282  -0.706  0.00  0.00    +0.167 C 
ATOM      2  N   UNL     1       1.339   2.091   0.001  0.00  0.00    -0.159 NA
ATOM      3  C   UNL     1      -0.019   1.553   0.011  0.00  0.00    +0.122 C 
ATOM      4  C   UNL     1       0.002  -0.004   0.002  0.00  0.00    +0.088 C 
ATOM      5  S   UNL     1       1.426  -0.248  -1.152  0.00  0.00    -0.134 S 
ENDROOT
BRANCH   1  11
ATOM      6  C   UNL     1       2.021   2.918  -2.572  0.00  0.00    +0.008 A 
ATOM      7  C   UNL     1       2.467   3.573  -3.705  0.00  0.00    +0.033 A 
ATOM      8  C   UNL     1       3.720   3.293  -4.217  0.00  0.00    +0.126 A 
ATOM      9  C   UNL     1       4.530   2.364  -3.593  0.00  0.00    +0.033 A 
ATOM     10  C   UNL     1       4.087   1.713  -2.457  0.00  0.00    +0.008 A 
ATOM     11  C   UNL     1       2.834   1.992  -1.945  0.00  0.00    -0.019 A 
BRANCH   8  12
ATOM     12  N   UNL     1       4.194   3.990  -5.434  0.00  0.00    +0.056 N 
ATOM     13  O   UNL     1       5.298   3.744  -5.885  0.00  0.00    -0.126 OA
ATOM     14  O   UNL     1       3.480   4.810  -5.984  0.00  0.00    -0.126 OA
ENDBRANCH   8  12
ENDBRANCH   1  11
BRANCH   2  15
ATOM     15  S   UNL     1       1.720   3.523   0.738  0.00  0.00    +0.062 S 
ATOM     16  O   UNL     1       2.888   4.013   0.095  0.00  0.00    -0.153 OA
ATOM     17  O   UNL     1       0.517   4.276   0.809  0.00  0.00    -0.153 OA
BRANCH  15  18
ATOM     18  C   UNL     1       2.178   3.149   2.398  0.00  0.00    +0.106 A 
ATOM     19  C   UNL     1       1.218   3.134   3.393  0.00  0.00    +0.031 A 
ATOM     20  C   UNL     1       1.575   2.836   4.694  0.00  0.00    +0.040 A 
ATOM     21  C   UNL     1       2.897   2.562   5.003  0.00  0.00    +0.124 A 
ATOM     22  C   UNL     1       3.858   2.582   4.007  0.00  0.00    +0.040 A 
ATOM     23  C   UNL     1       3.497   2.875   2.705  0.00  0.00    +0.031 A 
ATOM     24  F   UNL     1       3.248   2.275   6.276  0.00  0.00    -0.205 F 
ENDBRANCH  15  18
ENDBRANCH   2  15
TORSDOF 4
