REMARK  Name = ZINC62546829
REMARK  4 active torsions:
REMARK  status: ('A' for Active; 'I' for Inactive)
REMARK    1  A    between atoms: C_1  and  C_2
REMARK    2  A    between atoms: C_2  and  C_3
REMARK    3  A    between atoms: C_3  and  S_4
REMARK    4  A    between atoms: S_4  and  N_7
REMARK                            x       y       z     vdW  Elec       q    Type
REMARK                         _______ _______ _______ _____ _____    ______ ____
ROOT
ATOM      1  N   UNL     1       1.535  -2.719  -2.663  0.00  0.00    -0.206 N 
ATOM      2  C   UNL     1       0.782  -2.905  -3.908  0.00  0.00    +0.139 C 
ATOM      3  C   UNL     1       1.223  -4.222  -4.562  0.00  0.00    +0.100 C 
ATOM      4  C   UNL     1       2.721  -4.151  -4.781  0.00  0.00    +0.167 C 
ATOM      5  O   UNL     1       3.225  -4.540  -5.814  0.00  0.00    -0.292 OA
ATOM      6  C   UNL     1       3.542  -3.595  -3.695  0.00  0.00    +0.043 A 
ATOM      7  C   UNL     1       2.914  -2.878  -2.658  0.00  0.00    +0.062 A 
ATOM      8  C   UNL     1       3.682  -2.342  -1.633  0.00  0.00    +0.028 A 
ATOM      9  C   UNL     1       5.052  -2.510  -1.637  0.00  0.00    +0.040 A 
ATOM     10  C   UNL     1       5.676  -3.213  -2.660  0.00  0.00    +0.124 A 
ATOM     11  C   UNL     1       4.928  -3.764  -3.687  0.00  0.00    +0.051 A 
ATOM     12  F   UNL     1       7.018  -3.368  -2.648  0.00  0.00    -0.205 F 
ENDROOT
BRANCH   1  13
ATOM     13  S   UNL     1       0.743  -2.311  -1.267  0.00  0.00    +0.045 S 
ATOM     14  O   UNL     1       1.576  -2.795  -0.222  0.00  0.00    -0.155 OA
ATOM     15  O   UNL     1      -0.574  -2.818  -1.437  0.00  0.00    -0.155 OA
BRANCH  13  16
ATOM     16  C   UNL     1       0.718  -0.497  -1.257  0.00  0.00    +0.188 C 
BRANCH  16  18
ATOM     17  C   UNL     1      -0.019   1.526   0.010  0.00  0.00    +0.005 C 
ATOM     18  C   UNL     1       0.002  -0.004   0.002  0.00  0.00    +0.021 C 
ENDBRANCH  16  18
ENDBRANCH  13  16
ENDBRANCH   1  13
TORSDOF 3
