REMARK  Name = ZINC13131737
REMARK  4 active torsions:
REMARK  status: ('A' for Active; 'I' for Inactive)
REMARK    1  A    between atoms: C_1  and  C_2
REMARK    2  A    between atoms: C_2  and  C_3
REMARK    3  A    between atoms: C_6  and  C_9
REMARK    4  A    between atoms: C_12  and  C_21
REMARK                            x       y       z     vdW  Elec       q    Type
REMARK                         _______ _______ _______ _____ _____    ______ ____
ROOT
ATOM      1  C   UNL     1       2.707  -1.868  -4.752  0.00  0.00    +0.106 C 
ATOM      2  C   UNL     1       3.393  -0.689  -5.450  0.00  0.00    +0.058 C 
ATOM      3  C   UNL     1       4.066  -1.172  -6.742  0.00  0.00    +0.143 C 
ATOM      4  N   UNL     1       4.864  -2.360  -6.441  0.00  0.00    -0.224 N 
ATOM      5  C   UNL     1       4.701  -3.131  -5.340  0.00  0.00    +0.216 A 
ATOM      6  N   UNL     1       5.576  -4.100  -5.388  0.00  0.00    -0.180 NA
ATOM      7  C   UNL     1       6.313  -3.982  -6.502  0.00  0.00    +0.233 A 
ATOM      8  N   UNL     1       5.907  -2.928  -7.175  0.00  0.00    -0.132 NA
ATOM      9  N   UNL     1       7.345  -4.840  -6.886  0.00  0.00    -0.326 N 
ATOM     10  N   UNL     1       3.732  -2.862  -4.381  0.00  0.00    -0.307 N 
ATOM     11  H   UNL     1       7.579  -5.597  -6.327  0.00  0.00    +0.145 HD
ATOM     12  H   UNL     1       7.828  -4.679  -7.711  0.00  0.00    +0.145 HD
ATOM     13  H   UNL     1       3.732  -3.299  -3.515  0.00  0.00    +0.149 HD
ENDROOT
BRANCH   3  14
ATOM     14  C   UNL     1       4.957  -0.085  -7.284  0.00  0.00    -0.023 A 
ATOM     15  C   UNL     1       6.010   0.389  -6.523  0.00  0.00    +0.007 A 
ATOM     16  C   UNL     1       6.828   1.386  -7.020  0.00  0.00    +0.020 A 
ATOM     17  C   UNL     1       6.593   1.910  -8.279  0.00  0.00    +0.041 A 
ATOM     18  C   UNL     1       5.540   1.436  -9.040  0.00  0.00    +0.020 A 
ATOM     19  C   UNL     1       4.726   0.435  -8.544  0.00  0.00    +0.007 A 
ATOM     20 CL   UNL     1       7.620   3.163  -8.903  0.00  0.00    -0.084 Cl
ENDBRANCH   3  14
BRANCH   1  24
ATOM     21  C   UNL     1       0.707  -0.490  -1.238  0.00  0.00    -0.048 A 
ATOM     22  C   UNL     1      -0.011  -0.719  -2.397  0.00  0.00    +0.004 A 
ATOM     23  C   UNL     1       0.636  -1.164  -3.534  0.00  0.00    +0.006 A 
ATOM     24  C   UNL     1       2.002  -1.381  -3.513  0.00  0.00    -0.027 A 
ATOM     25  C   UNL     1       2.720  -1.152  -2.354  0.00  0.00    +0.006 A 
ATOM     26  C   UNL     1       2.073  -0.702  -1.218  0.00  0.00    +0.004 A 
BRANCH  21  28
ATOM     27  C   UNL     1      -0.019   1.526   0.010  0.00  0.00    +0.009 C 
ATOM     28  C   UNL     1       0.002  -0.004   0.002  0.00  0.00    +0.032 C 
ENDBRANCH  21  28
ENDBRANCH   1  24
TORSDOF 3
