REMARK  Name = ZINC32694153
REMARK  11 active torsions:
REMARK  status: ('A' for Active; 'I' for Inactive)
REMARK    1  A    between atoms: C_1  and  C_2
REMARK    2  A    between atoms: N_5  and  C_7
REMARK    3  A    between atoms: C_7  and  C_8
REMARK    4  A    between atoms: C_8  and  C_9
REMARK    5  A    between atoms: C_15  and  C_24
REMARK    6  A    between atoms: C_15  and  C_25
REMARK    7  A    between atoms: N_22  and  C_23
REMARK    8  A    between atoms: P_26  and  N_28
REMARK    9  A    between atoms: N_28  and  C_29
REMARK   10  A    between atoms: C_29  and  C_30
REMARK   11  A    between atoms: C_29  and  C_31
REMARK                            x       y       z     vdW  Elec       q    Type
REMARK                         _______ _______ _______ _____ _____    ______ ____
ROOT
ATOM      1  C   UNL     1      -1.445  -1.253   1.016  0.00  0.00    +0.068 C 
ATOM      2  C   UNL     1      -0.336  -1.253  -0.005  0.00  0.00    +0.072 A 
ATOM      3  C   UNL     1       0.820  -0.519   0.063  0.00  0.00    +0.066 A 
ATOM      4  C   UNL     1       1.605  -0.779  -1.061  0.00  0.00    +0.161 A 
ATOM      5  N   UNL     1       0.886  -1.685  -1.795  0.00  0.00    -0.245 N 
ATOM      6  N   UNL     1      -0.308  -1.956  -1.114  0.00  0.00    -0.174 NA
ATOM      7  N   UNL     1       2.796  -0.192  -1.250  0.00  0.00    -0.235 NA
ATOM      8  C   UNL     1       3.543   0.652  -0.637  0.00  0.00    +0.125 C 
ATOM      9  C   UNL     1       3.207   1.262   0.612  0.00  0.00    +0.036 C 
ATOM     10  C   UNL     1       3.991   2.152   1.259  0.00  0.00    +0.032 C 
ATOM     11  C   UNL     1       3.946   2.488   2.735  0.00  0.00    +0.031 C 
ATOM     12  C   UNL     1       5.027   3.530   2.911  0.00  0.00    -0.015 A 
ATOM     13  C   UNL     1       5.478   4.227   4.010  0.00  0.00    +0.006 A 
ATOM     14  C   UNL     1       6.508   5.140   3.874  0.00  0.00    +0.000 A 
ATOM     15  C   UNL     1       7.082   5.351   2.633  0.00  0.00    +0.002 A 
ATOM     16  C   UNL     1       6.633   4.655   1.530  0.00  0.00    +0.024 A 
ATOM     17  C   UNL     1       5.595   3.732   1.660  0.00  0.00    +0.038 A 
ATOM     18  N   UNL     1       4.982   2.917   0.710  0.00  0.00    -0.305 N 
ATOM     19  C   UNL     1       5.354   2.886  -0.707  0.00  0.00    +0.135 C 
ATOM     20  C   UNL     1       2.579   3.066   3.110  0.00  0.00    +0.022 C 
ATOM     21  C   UNL     1       4.251   1.248   3.576  0.00  0.00    +0.022 C 
ATOM     22  P   UNL     1       1.565   0.681   1.226  0.00  0.00    +0.059 P 
ATOM     23  S   UNL     1       1.787  -0.134   2.887  0.00  0.00    -0.040 S 
ENDROOT
BRANCH  22  24
ATOM     24  N   UNL     1       0.537   2.003   1.391  0.00  0.00    -0.281 NA
ATOM     25  H   UNL     1      -0.449   1.660   1.739  0.00  0.00    +0.128 HD
BRANCH  24  26
ATOM     26  C   UNL     1       0.368   2.702   0.110  0.00  0.00    +0.052 C 
ATOM     27  C   UNL     1       0.214   4.203   0.364  0.00  0.00    +0.024 C 
ATOM     28  C   UNL     1      -0.882   2.174  -0.597  0.00  0.00    +0.024 C 
ENDBRANCH  24  26
ENDBRANCH  22  24
BRANCH   5  29
ATOM     29  C   UNL     1       1.295  -2.270  -3.074  0.00  0.00    +0.160 C 
BRANCH  29  30
ATOM     30  C   UNL     1       2.083  -3.555  -2.818  0.00  0.00    +0.142 C 
BRANCH  30  31
ATOM     31  C   UNL     1       2.495  -4.143  -4.103  0.00  0.00    +0.064 C 
ATOM     32  N   UNL     1       2.812  -4.597  -5.095  0.00  0.00    -0.197 NA
ENDBRANCH  30  31
ENDBRANCH  29  30
ENDBRANCH   5  29
TORSDOF 5
