REMARK  Name = ZINC22681143
REMARK  10 active torsions:
REMARK  status: ('A' for Active; 'I' for Inactive)
REMARK    1  A    between atoms: C_1  and  C_2
REMARK    2  A    between atoms: C_6  and  C_33
REMARK    3  A    between atoms: C_7  and  C_13
REMARK    4  A    between atoms: C_13  and  C_14
REMARK    5  A    between atoms: C_14  and  C_15
REMARK    6  A    between atoms: N_17  and  C_18
REMARK    7  A    between atoms: C_18  and  C_19
REMARK    8  A    between atoms: C_19  and  C_21
REMARK    9  A    between atoms: C_19  and  N_26
REMARK   10  A    between atoms: C_29  and  C_32
REMARK                            x       y       z     vdW  Elec       q    Type
REMARK                         _______ _______ _______ _____ _____    ______ ____
ROOT
ATOM      1  C   UNL     1       6.876  -4.046   1.116  0.00  0.00    +0.213 C 
ATOM      2  O   UNL     1       7.395  -4.521   0.128  0.00  0.00    -0.276 OA
ATOM      3  N   UNL     1       7.398  -4.291   2.335  0.00  0.00    -0.317 N 
ATOM      4  H   UNL     1       6.927  -3.861   3.231  0.00  0.00    +0.149 HD
ENDROOT
BRANCH   1   5
ATOM      5  C   UNL     1       5.647  -3.184   0.982  0.00  0.00    +0.100 C 
BRANCH   5   6
ATOM      6  C   UNL     1       5.266  -3.067  -0.495  0.00  0.00    +0.052 C 
BRANCH   6  13
ATOM      7  C   UNL     1      -0.655   2.213  -1.285  0.00  0.00    +0.044 C 
ATOM      8  C   UNL     1       0.609   1.404  -1.150  0.00  0.00    -0.047 A 
ATOM      9  C   UNL     1       1.840   2.041  -1.199  0.00  0.00    +0.004 A 
ATOM     10  C   UNL     1       2.998   1.323  -1.085  0.00  0.00    +0.012 A 
ATOM     11  C   UNL     1       2.939  -0.064  -0.916  0.00  0.00    +0.021 A 
ATOM     12  C   UNL     1       4.162  -0.863  -0.790  0.00  0.00    -0.030 A 
ATOM     13  C   UNL     1       4.037  -2.204  -0.630  0.00  0.00    +0.041 A 
ATOM     14  C   UNL     1       2.753  -2.790  -0.589  0.00  0.00    +0.341 A 
ATOM     15  O   UNL     1       2.655  -3.995  -0.444  0.00  0.00    -0.245 OA
ATOM     16  O   UNL     1       1.639  -2.052  -0.705  0.00  0.00    -0.422 OA
ATOM     17  C   UNL     1       1.693  -0.713  -0.867  0.00  0.00    +0.140 A 
ATOM     18  C   UNL     1       0.530   0.037  -0.986  0.00  0.00    +0.050 A 
ATOM     19  C   UNL     1       5.520  -0.211  -0.837  0.00  0.00    +0.045 C 
ENDBRANCH   6  13
ENDBRANCH   5   6
ENDBRANCH   1   5
BRANCH   3  20
ATOM     20  C   UNL     1       8.592  -5.129   2.466  0.00  0.00    +0.094 C 
BRANCH  20  21
ATOM     21  C   UNL     1       8.973  -5.247   3.943  0.00  0.00    -0.013 C 
BRANCH  21  22
ATOM     22  N   UNL     1       7.822  -5.744   4.708  0.00  0.00    +0.386 N 
ATOM     23  C   UNL     1       7.209  -6.901   4.044  0.00  0.00    -0.078 C 
ATOM     24  C   UNL     1       5.932  -7.300   4.787  0.00  0.00    -0.015 C 
ATOM     25  C   UNL     1       6.279  -7.645   6.238  0.00  0.00    -0.018 C 
ATOM     26  C   UNL     1       6.960  -6.440   6.892  0.00  0.00    -0.015 C 
ATOM     27  C   UNL     1       8.207  -6.066   6.088  0.00  0.00    -0.078 C 
ATOM     28  C   UNL     1       4.998  -7.987   7.003  0.00  0.00    +0.007 C 
ATOM     29  H   UNL     1       7.069  -4.942   4.748  0.00  0.00    -0.081 HD
ENDBRANCH  21  22
BRANCH  21  30
ATOM     30  C   UNL     1      10.126  -6.206   4.089  0.00  0.00    -0.022 A 
ATOM     31  C   UNL     1      11.424  -5.944   4.380  0.00  0.00    +0.009 A 
ATOM     32  C   UNL     1      12.317  -6.995   4.466  0.00  0.00    +0.008 A 
ATOM     33  C   UNL     1      11.870  -8.257   4.256  0.00  0.00    +0.045 A 
ATOM     34  S   UNL     1      10.135  -7.985   3.932  0.00  0.00    -0.103 S 
ENDBRANCH  21  30
ENDBRANCH  20  21
ENDBRANCH   3  20
TORSDOF 7
