REMARK  Name = ZINC40019695
REMARK  18 active torsions:
REMARK  status: ('A' for Active; 'I' for Inactive)
REMARK    1  A    between atoms: C_1  and  C_2
REMARK    2  A    between atoms: C_2  and  C_3
REMARK    3  A    between atoms: C_3  and  C_4
REMARK    4  A    between atoms: C_4  and  N_5
REMARK    5  A    between atoms: N_5  and  C_6
REMARK    6  A    between atoms: N_5  and  C_10
REMARK    7  A    between atoms: C_6  and  C_7
REMARK    8  A    between atoms: C_7  and  C_8
REMARK    9  A    between atoms: C_8  and  C_9
REMARK   10  A    between atoms: C_10  and  C_11
REMARK   11  A    between atoms: C_11  and  C_12
REMARK   12  A    between atoms: C_12  and  N_13
REMARK   13  A    between atoms: C_14  and  C_32
REMARK   14  A    between atoms: C_16  and  C_21
REMARK   15  A    between atoms: C_21  and  C_23
REMARK   16  A    between atoms: C_35  and  O_40
REMARK   17  A    between atoms: C_36  and  O_38
REMARK   18  A    between atoms: O_38  and  C_39
REMARK                            x       y       z     vdW  Elec       q    Type
REMARK                         _______ _______ _______ _____ _____    ______ ____
ROOT
ATOM      1  N   UNL     1      -1.617  -6.281   3.532  0.00  0.00    -0.284 N 
ATOM      2  C   UNL     1      -0.174  -6.492   3.696  0.00  0.00    +0.145 C 
ATOM      3  C   UNL     1       0.083  -6.502   5.185  0.00  0.00    +0.079 C 
ATOM      4  C   UNL     1      -1.113  -6.313   5.789  0.00  0.00    +0.249 C 
ATOM      5  C   UNL     1      -2.161  -6.172   4.758  0.00  0.00    +0.288 C 
ATOM      6  O   UNL     1      -3.341  -5.987   4.984  0.00  0.00    -0.266 OA
ATOM      7  O   UNL     1      -1.316  -6.257   7.126  0.00  0.00    -0.282 OA
ENDROOT
BRANCH   2   8
ATOM      8  C   UNL     1       0.229  -7.812   3.091  0.00  0.00    -0.019 A 
ATOM      9  C   UNL     1       1.214  -7.855   2.123  0.00  0.00    +0.009 A 
ATOM     10  C   UNL     1       1.588  -9.063   1.564  0.00  0.00    +0.049 A 
ATOM     11  C   UNL     1       0.973 -10.235   1.975  0.00  0.00    +0.158 A 
ATOM     12  C   UNL     1      -0.019 -10.193   2.950  0.00  0.00    +0.162 A 
ATOM     13  C   UNL     1      -0.385  -8.979   3.509  0.00  0.00    +0.055 A 
BRANCH  12  14
ATOM     14  O   UNL     1      -0.624 -11.340   3.357  0.00  0.00    -0.491 OA
ATOM     15  C   UNL     1      -1.707 -11.210   4.280  0.00  0.00    +0.277 C 
ENDBRANCH  12  14
BRANCH  11  16
ATOM     16  O   UNL     1       1.339 -11.425   1.427  0.00  0.00    -0.503 OA
ATOM     17  H   UNL     1       2.058 -11.870   1.896  0.00  0.00    +0.292 HD
ENDBRANCH  11  16
ENDBRANCH   2   8
BRANCH   3  18
ATOM     18  C   UNL     1       1.379  -6.682   5.848  0.00  0.00    +0.230 C 
ATOM     19  O   UNL     1       1.434  -6.792   7.060  0.00  0.00    -0.283 OA
BRANCH  18  20
ATOM     20  C   UNL     1       2.612  -6.729   5.050  0.00  0.00    +0.176 A 
ATOM     21  C   UNL     1       3.850  -7.018   5.537  0.00  0.00    +0.061 A 
ATOM     22  C   UNL     1       4.759  -6.949   4.395  0.00  0.00    +0.021 A 
ATOM     23  C   UNL     1       6.135  -7.137   4.232  0.00  0.00    +0.011 A 
ATOM     24  C   UNL     1       6.696  -6.995   2.995  0.00  0.00    +0.001 A 
ATOM     25  C   UNL     1       5.909  -6.664   1.899  0.00  0.00    +0.004 A 
ATOM     26  C   UNL     1       4.551  -6.474   2.038  0.00  0.00    +0.047 A 
ATOM     27  C   UNL     1       3.957  -6.614   3.287  0.00  0.00    +0.136 A 
ATOM     28  O   UNL     1       2.687  -6.499   3.723  0.00  0.00    -0.452 OA
ENDBRANCH  18  20
ENDBRANCH   3  18
BRANCH   1  29
ATOM     29  C   UNL     1      -2.338  -6.199   2.259  0.00  0.00    +0.107 C 
BRANCH  29  30
ATOM     30  C   UNL     1      -2.370  -4.744   1.786  0.00  0.00    +0.000 C 
BRANCH  30  31
ATOM     31  C   UNL     1      -3.123  -4.658   0.456  0.00  0.00    -0.077 C 
BRANCH  31  32
ATOM     32  N   UNL     1      -3.154  -3.261   0.001  0.00  0.00    +0.380 N 
ATOM     33  H   UNL     1      -3.550  -2.680   0.725  0.00  0.00    -0.082 HD
BRANCH  32  34
ATOM     34  C   UNL     1      -1.788  -2.812  -0.296  0.00  0.00    -0.079 C 
BRANCH  34  35
ATOM     35  C   UNL     1      -1.802  -1.318  -0.627  0.00  0.00    -0.019 C 
BRANCH  35  37
ATOM     36  C   UNL     1      -0.382   0.672  -1.141  0.00  0.00    +0.004 C 
ATOM     37  C   UNL     1      -0.367  -0.822  -0.810  0.00  0.00    -0.005 C 
ENDBRANCH  35  37
ENDBRANCH  34  35
ENDBRANCH  32  34
BRANCH  32  38
ATOM     38  C   UNL     1      -3.977  -3.160  -1.212  0.00  0.00    -0.079 C 
BRANCH  38  39
ATOM     39  C   UNL     1      -5.432  -3.485  -0.869  0.00  0.00    -0.019 C 
BRANCH  39  40
ATOM     40  C   UNL     1      -6.310  -3.255  -2.101  0.00  0.00    -0.005 C 
ATOM     41  C   UNL     1      -7.765  -3.581  -1.758  0.00  0.00    +0.004 C 
ENDBRANCH  39  40
ENDBRANCH  38  39
ENDBRANCH  32  38
ENDBRANCH  31  32
ENDBRANCH  30  31
ENDBRANCH  29  30
ENDBRANCH   1  29
TORSDOF 15
