REMARK  Name = ZINC44792531
REMARK  5 active torsions:
REMARK  status: ('A' for Active; 'I' for Inactive)
REMARK    1  A    between atoms: C_4  and  C_7
REMARK    2  A    between atoms: C_4  and  C_11
REMARK    3  A    between atoms: N_8  and  O_9
REMARK    4  A    between atoms: N_13  and  C_14
REMARK    5  A    between atoms: C_14  and  C_15
REMARK                            x       y       z     vdW  Elec       q    Type
REMARK                         _______ _______ _______ _____ _____    ______ ____
ROOT
ATOM      1  C   UNL     1      -0.015   1.391  -0.145  0.00  0.00    +0.000 C 
ATOM      2  C   UNL     1       1.401   1.972  -0.120  0.00  0.00    +0.001 C 
ATOM      3  C   UNL     1       2.104   1.546   1.170  0.00  0.00    +0.024 C 
ATOM      4  C   UNL     1       2.178   0.020   1.231  0.00  0.00    +0.105 C 
ATOM      5  C   UNL     1       0.763  -0.561   1.207  0.00  0.00    +0.024 C 
ATOM      6  C   UNL     1       0.059  -0.136  -0.084  0.00  0.00    +0.001 C 
ENDROOT
BRANCH   4   7
ATOM      7  C   UNL     1       2.871  -0.399   2.502  0.00  0.00    +0.147 C 
ATOM      8  N   UNL     1       4.118  -0.113   2.682  0.00  0.00    -0.076 NA
ATOM      9  N   UNL     1       2.176  -1.088   3.470  0.00  0.00    -0.343 N 
ATOM     10  H   UNL     1       1.223  -1.239   3.369  0.00  0.00    +0.144 HD
ATOM     11  H   UNL     1       2.639  -1.422   4.255  0.00  0.00    +0.144 HD
BRANCH   8  12
ATOM     12  O   UNL     1       4.805   0.684   1.735  0.00  0.00    -0.408 OA
ATOM     13  H   UNL     1       5.733   0.845   1.956  0.00  0.00    +0.328 HD
ENDBRANCH   8  12
ENDBRANCH   4   7
BRANCH   4  14
ATOM     14  C   UNL     1       2.952  -0.494   0.044  0.00  0.00    +0.227 C 
ATOM     15  O   UNL     1       3.503   0.286  -0.704  0.00  0.00    -0.275 OA
ATOM     16  N   UNL     1       3.031  -1.819  -0.186  0.00  0.00    -0.312 N 
ATOM     17  H   UNL     1       2.532  -2.439   0.368  0.00  0.00    +0.149 HD
BRANCH  16  18
ATOM     18  C   UNL     1       3.873  -2.325  -1.274  0.00  0.00    +0.135 C 
BRANCH  18  19
ATOM     19  C   UNL     1       3.786  -3.851  -1.319  0.00  0.00    +0.135 C 
ATOM     20  C   UNL     1       4.665  -4.380  -2.456  0.00  0.00    +0.033 C 
ATOM     21  C   UNL     1       4.620  -5.911  -2.456  0.00  0.00    +0.005 C 
ATOM     22  C   UNL     1       5.071  -6.424  -1.085  0.00  0.00    +0.028 C 
ATOM     23  C   UNL     1       4.176  -5.817  -0.002  0.00  0.00    +0.160 C 
ATOM     24  O   UNL     1       4.240  -4.391  -0.077  0.00  0.00    -0.375 OA
ENDBRANCH  18  19
ENDBRANCH  16  18
ENDBRANCH   4  14
TORSDOF 5
