REMARK  Name = ZINC24877568
REMARK  9 active torsions:
REMARK  status: ('A' for Active; 'I' for Inactive)
REMARK    1  A    between atoms: C_1  and  C_2
REMARK    2  A    between atoms: C_3  and  C_32
REMARK    3  A    between atoms: N_4  and  C_25
REMARK    4  A    between atoms: C_5  and  N_9
REMARK    5  A    between atoms: C_6  and  C_7
REMARK    6  A    between atoms: C_10  and  C_12
REMARK    7  A    between atoms: C_12  and  S_13
REMARK    8  A    between atoms: S_13  and  C_14
REMARK    9  A    between atoms: C_17  and  C_19
REMARK                            x       y       z     vdW  Elec       q    Type
REMARK                         _______ _______ _______ _____ _____    ______ ____
ROOT
ATOM      1  N   UNL     1       9.465  -0.707   0.022  0.00  0.00    -0.270 N 
ATOM      2  C   UNL     1       8.637  -0.395  -0.995  0.00  0.00    +0.229 C 
ATOM      3  O   UNL     1       9.084   0.074  -2.020  0.00  0.00    -0.275 OA
ATOM      4  H   UNL     1       9.053  -1.051   0.982  0.00  0.00    +0.156 HD
ENDROOT
BRANCH   1   9
ATOM      5  C   UNL     1      14.371  -1.753  -0.598  0.00  0.00    +0.047 C 
ATOM      6  C   UNL     1      13.060  -1.031  -0.423  0.00  0.00    -0.010 A 
ATOM      7  C   UNL     1      12.878   0.298  -0.370  0.00  0.00    +0.027 A 
ATOM      8  N   UNL     1      11.544   0.567  -0.202  0.00  0.00    -0.300 N 
ATOM      9  C   UNL     1      10.838  -0.594  -0.143  0.00  0.00    +0.128 A 
ATOM     10  C   UNL     1      11.735  -1.645  -0.270  0.00  0.00    +0.095 A 
ATOM     11  C   UNL     1      13.969   1.333  -0.478  0.00  0.00    +0.064 C 
BRANCH   8  12
ATOM     12  C   UNL     1      10.989   1.852  -0.106  0.00  0.00    +0.048 A 
ATOM     13  C   UNL     1      11.008   2.701  -1.204  0.00  0.00    +0.029 A 
ATOM     14  C   UNL     1      10.457   3.964  -1.109  0.00  0.00    +0.040 A 
ATOM     15  C   UNL     1       9.895   4.386   0.084  0.00  0.00    +0.124 A 
ATOM     16  C   UNL     1       9.879   3.542   1.182  0.00  0.00    +0.040 A 
ATOM     17  C   UNL     1      10.425   2.277   1.089  0.00  0.00    +0.029 A 
ATOM     18  F   UNL     1       9.361   5.624   0.177  0.00  0.00    -0.205 F 
ENDBRANCH   8  12
BRANCH  10  19
ATOM     19  C   UNL     1      11.430  -3.044  -0.258  0.00  0.00    +0.103 C 
ATOM     20  N   UNL     1      11.188  -4.154  -0.249  0.00  0.00    -0.191 NA
ENDBRANCH  10  19
ENDBRANCH   1   9
BRANCH   2  21
ATOM     21  C   UNL     1       7.154  -0.628  -0.857  0.00  0.00    +0.175 C 
BRANCH  21  22
ATOM     22  S   UNL     1       6.319  -0.112  -2.377  0.00  0.00    -0.056 S 
BRANCH  22  23
ATOM     23  C   UNL     1       4.650  -0.485  -1.951  0.00  0.00    +0.278 A 
ATOM     24  N   UNL     1       4.234  -0.995  -0.816  0.00  0.00    -0.101 NA
ATOM     25  N   UNL     1       2.955  -1.129  -0.848  0.00  0.00    -0.105 NA
ATOM     26  C   UNL     1       2.503  -0.718  -2.010  0.00  0.00    +0.265 A 
ATOM     27  O   UNL     1       3.567  -0.298  -2.731  0.00  0.00    -0.410 OA
BRANCH  26  28
ATOM     28  C   UNL     1       1.098  -0.711  -2.446  0.00  0.00    +0.104 A 
ATOM     29  C   UNL     1       0.632  -0.277  -3.654  0.00  0.00    +0.032 A 
ATOM     30  C   UNL     1      -0.760  -0.446  -3.650  0.00  0.00    +0.020 A 
ATOM     31  C   UNL     1      -1.108  -0.977  -2.457  0.00  0.00    +0.083 A 
ATOM     32  N   UNL     1       0.021  -1.138  -1.709  0.00  0.00    -0.357 N 
ATOM     33  H   UNL     1       0.170  -1.528  -0.691  0.00  0.00    +0.165 HD
ENDBRANCH  26  28
ENDBRANCH  22  23
ENDBRANCH  21  22
ENDBRANCH   2  21
TORSDOF 7
