REMARK  Name = ZINC49248985
REMARK  4 active torsions:
REMARK  status: ('A' for Active; 'I' for Inactive)
REMARK    1  A    between atoms: C_1  and  C_2
REMARK    2  A    between atoms: C_2  and  C_3
REMARK    3  A    between atoms: C_13  and  C_15
REMARK    4  A    between atoms: C_17  and  C_21
REMARK                            x       y       z     vdW  Elec       q    Type
REMARK                         _______ _______ _______ _____ _____    ______ ____
ROOT
ATOM      1  C   UNL     1      -1.433  -0.534   0.013  0.00  0.00    -0.006 C 
ATOM      2  C   UNL     1      -1.416  -2.061   0.124  0.00  0.00    +0.010 C 
ATOM      3  C   UNL     1      -2.830  -2.586   0.382  0.00  0.00    +0.056 C 
ATOM      4  C   UNL     1      -3.763  -2.014  -0.676  0.00  0.00    +0.054 A 
ATOM      5  C   UNL     1      -3.403  -0.921  -1.396  0.00  0.00    +0.015 A 
ATOM      6  S   UNL     1      -4.801  -0.679  -2.456  0.00  0.00    -0.057 S 
ATOM      7  C   UNL     1      -5.724  -1.977  -1.902  0.00  0.00    +0.165 A 
ATOM      8  N   UNL     1      -4.959  -2.513  -0.976  0.00  0.00    -0.229 NA
ATOM      9  N   UNL     1      -6.984  -2.381  -2.322  0.00  0.00    -0.259 N 
ATOM     10  C   UNL     1      -7.570  -3.455  -1.756  0.00  0.00    +0.267 C 
ATOM     11  O   UNL     1      -6.996  -4.069  -0.877  0.00  0.00    -0.268 OA
ATOM     12  C   UNL     1      -2.139  -0.136  -1.294  0.00  0.00    +0.048 C 
ATOM     13  H   UNL     1      -7.442  -1.892  -3.022  0.00  0.00    +0.157 HD
ENDROOT
BRANCH  10  14
ATOM     14  C   UNL     1      -8.905  -3.884  -2.200  0.00  0.00    +0.121 A 
ATOM     15  C   UNL     1      -9.638  -4.954  -1.717  0.00  0.00    +0.057 A 
ATOM     16  C   UNL     1     -10.827  -4.949  -2.450  0.00  0.00    +0.060 A 
ATOM     17  N   UNL     1     -10.777  -3.947  -3.290  0.00  0.00    -0.178 NA
ATOM     18  N   UNL     1      -9.674  -3.301  -3.168  0.00  0.00    -0.272 N 
ATOM     19  H   UNL     1      -9.423  -2.521  -3.687  0.00  0.00    +0.189 HD
ATOM     20  C   UNL     1     -11.966  -5.925  -2.299  0.00  0.00    +0.067 C 
ENDBRANCH  10  14
BRANCH   1  22
ATOM     21  C   UNL     1      -0.019   1.526   0.010  0.00  0.00    +0.004 C 
ATOM     22  C   UNL     1       0.002  -0.004   0.002  0.00  0.00    +0.000 C 
ENDBRANCH   1  22
TORSDOF 2
