REMARK  Name = ZINC24986374
REMARK  15 active torsions:
REMARK  status: ('A' for Active; 'I' for Inactive)
REMARK    1  A    between atoms: C_1  and  C_2
REMARK    2  A    between atoms: C_2  and  C_4
REMARK    3  A    between atoms: C_2  and  S_14
REMARK    4  A    between atoms: N_10  and  C_11
REMARK    5  A    between atoms: N_10  and  C_12
REMARK    6  A    between atoms: S_14  and  C_15
REMARK    7  A    between atoms: N_25  and  C_26
REMARK    8  A    between atoms: C_26  and  C_27
REMARK    9  A    between atoms: C_27  and  N_28
REMARK   10  A    between atoms: N_28  and  C_29
REMARK   11  A    between atoms: N_28  and  C_32
REMARK   12  A    between atoms: C_29  and  C_30
REMARK   13  A    between atoms: C_29  and  C_31
REMARK   14  A    between atoms: C_32  and  C_33
REMARK   15  A    between atoms: C_32  and  C_34
REMARK                            x       y       z     vdW  Elec       q    Type
REMARK                         _______ _______ _______ _____ _____    ______ ____
ROOT
ATOM      1  C   UNL     1       3.204   0.579   1.824  0.00  0.00    +0.173 A 
ATOM      2  N   UNL     1       3.544   1.418   0.877  0.00  0.00    -0.223 NA
ATOM      3  C   UNL     1       4.831   1.758   0.663  0.00  0.00    +0.079 A 
ATOM      4  C   UNL     1       5.194   2.653  -0.348  0.00  0.00    +0.028 A 
ATOM      5  C   UNL     1       6.511   2.971  -0.529  0.00  0.00    +0.002 A 
ATOM      6  C   UNL     1       7.497   2.417   0.278  0.00  0.00    +0.001 A 
ATOM      7  C   UNL     1       7.173   1.539   1.275  0.00  0.00    +0.015 A 
ATOM      8  C   UNL     1       5.838   1.197   1.482  0.00  0.00    +0.065 A 
ATOM      9  C   UNL     1       5.431   0.260   2.538  0.00  0.00    +0.262 A 
ATOM     10  O   UNL     1       6.251  -0.255   3.275  0.00  0.00    -0.267 OA
ATOM     11  N   UNL     1       4.109  -0.004   2.664  0.00  0.00    -0.289 N 
ENDROOT
BRANCH   1  12
ATOM     12  S   UNL     1       1.497   0.192   2.030  0.00  0.00    -0.077 S 
BRANCH  12  14
ATOM     13  C   UNL     1       0.848   2.653   1.027  0.00  0.00    +0.028 C 
ATOM     14  C   UNL     1       0.669   1.161   0.740  0.00  0.00    +0.119 C 
BRANCH  14  15
ATOM     15  C   UNL     1      -0.800   0.826   0.725  0.00  0.00    +0.149 A 
ATOM     16  N   UNL     1      -1.471   0.754   1.861  0.00  0.00    -0.198 NA
ATOM     17  C   UNL     1      -2.769   0.458   1.852  0.00  0.00    +0.217 A 
ATOM     18  N   UNL     1      -3.390   0.235   0.699  0.00  0.00    -0.181 NA
ATOM     19  C   UNL     1      -2.712   0.308  -0.441  0.00  0.00    +0.222 A 
ATOM     20  N   UNL     1      -1.415   0.610  -0.424  0.00  0.00    -0.198 NA
ATOM     21  N   UNL     1      -3.352   0.077  -1.642  0.00  0.00    -0.306 N 
ATOM     22  C   UNL     1      -4.780  -0.249  -1.659  0.00  0.00    +0.132 C 
ATOM     23  C   UNL     1      -2.604   0.158  -2.898  0.00  0.00    +0.132 C 
ATOM     24  N   UNL     1      -3.469   0.383   3.039  0.00  0.00    -0.327 N 
ATOM     25  H   UNL     1      -3.015   0.546   3.881  0.00  0.00    +0.145 HD
ATOM     26  H   UNL     1      -4.415   0.168   3.032  0.00  0.00    +0.145 HD
ENDBRANCH  14  15
ENDBRANCH  12  14
ENDBRANCH   1  12
BRANCH  11  27
ATOM     27  C   UNL     1       3.648  -0.927   3.704  0.00  0.00    +0.109 C 
BRANCH  27  28
ATOM     28  C   UNL     1       3.627  -2.353   3.148  0.00  0.00    -0.056 C 
BRANCH  28  29
ATOM     29  N   UNL     1       3.302  -3.294   4.228  0.00  0.00    +0.384 N 
ATOM     30  H   UNL     1       3.947  -3.163   4.993  0.00  0.00    -0.081 HD
BRANCH  29  31
ATOM     31  C   UNL     1       1.931  -3.050   4.695  0.00  0.00    -0.074 C 
ATOM     32  C   UNL     1       0.945  -3.795   3.792  0.00  0.00    -0.014 C 
ATOM     33  C   UNL     1       1.785  -3.552   6.133  0.00  0.00    -0.014 C 
ENDBRANCH  29  31
BRANCH  29  34
ATOM     34  C   UNL     1       3.411  -4.671   3.726  0.00  0.00    -0.074 C 
ATOM     35  C   UNL     1       4.795  -4.880   3.108  0.00  0.00    -0.014 C 
ATOM     36  C   UNL     1       3.215  -5.652   4.883  0.00  0.00    -0.014 C 
ENDBRANCH  29  34
ENDBRANCH  28  29
ENDBRANCH  27  28
ENDBRANCH  11  27
TORSDOF 8
