REMARK  Name = ZINC40370541
REMARK  7 active torsions:
REMARK  status: ('A' for Active; 'I' for Inactive)
REMARK    1  A    between atoms: C_1  and  C_2
REMARK    2  A    between atoms: C_2  and  C_3
REMARK    3  A    between atoms: C_3  and  C_4
REMARK    4  A    between atoms: C_4  and  C_6
REMARK    5  A    between atoms: C_4  and  N_10
REMARK    6  A    between atoms: N_7  and  O_8
REMARK    7  A    between atoms: C_11  and  C_13
REMARK                            x       y       z     vdW  Elec       q    Type
REMARK                         _______ _______ _______ _____ _____    ______ ____
ROOT
ATOM      1  N   UNL     1      -0.605  -2.548   1.364  0.00  0.00    -0.302 N 
ATOM      2  C   UNL     1      -0.918  -3.772   0.893  0.00  0.00    +0.248 C 
ATOM      3  O   UNL     1      -0.064  -4.455   0.361  0.00  0.00    -0.270 OA
ATOM      4  H   UNL     1      -1.286  -2.004   1.789  0.00  0.00    +0.150 HD
ENDROOT
BRANCH   2   5
ATOM      5  C   UNL     1      -2.296  -4.284   1.025  0.00  0.00    +0.079 A 
ATOM      6  C   UNL     1      -3.280  -3.498   1.632  0.00  0.00    +0.057 A 
ATOM      7  C   UNL     1      -4.568  -3.979   1.753  0.00  0.00    +0.163 A 
ATOM      8  C   UNL     1      -4.889  -5.242   1.274  0.00  0.00    +0.208 A 
ATOM      9  C   UNL     1      -3.918  -6.029   0.670  0.00  0.00    +0.252 A 
ATOM     10  C   UNL     1      -2.623  -5.553   0.538  0.00  0.00    +0.185 A 
ATOM     11  F   UNL     1      -1.677  -6.315  -0.054  0.00  0.00    -0.201 F 
ATOM     12  O   UNL     1      -4.239  -7.265   0.203  0.00  0.00    -0.282 OA
ATOM     13  F   UNL     1      -6.152  -5.707   1.397  0.00  0.00    -0.198 F 
ATOM     14  F   UNL     1      -5.518  -3.219   2.340  0.00  0.00    -0.202 F 
ENDBRANCH   2   5
BRANCH   1  15
ATOM     15  C   UNL     1       0.763  -2.041   1.233  0.00  0.00    +0.140 C 
BRANCH  15  16
ATOM     16  C   UNL     1       1.596  -2.538   2.386  0.00  0.00    +0.152 C 
ATOM     17  N   UNL     1       1.063  -2.675   3.556  0.00  0.00    -0.075 NA
ATOM     18  N   UNL     1       2.924  -2.847   2.194  0.00  0.00    -0.342 N 
ATOM     19  H   UNL     1       3.324  -2.744   1.316  0.00  0.00    +0.144 HD
ATOM     20  H   UNL     1       3.460  -3.167   2.936  0.00  0.00    +0.144 HD
BRANCH  17  21
ATOM     21  O   UNL     1       1.846  -3.143   4.639  0.00  0.00    -0.408 OA
ATOM     22  H   UNL     1       1.361  -3.212   5.473  0.00  0.00    +0.328 HD
ENDBRANCH  17  21
ENDBRANCH  15  16
BRANCH  15  23
ATOM     23  C   UNL     1       0.742  -0.511   1.242  0.00  0.00    +0.030 C 
BRANCH  23  25
ATOM     24  C   UNL     1      -0.019   1.526   0.010  0.00  0.00    +0.004 C 
ATOM     25  C   UNL     1       0.002  -0.004   0.002  0.00  0.00    -0.001 C 
ENDBRANCH  23  25
ENDBRANCH  15  23
ENDBRANCH   1  15
TORSDOF 6
