REMARK  Name = ZINC22751295
REMARK  8 active torsions:
REMARK  status: ('A' for Active; 'I' for Inactive)
REMARK    1  A    between atoms: C_1  and  C_2
REMARK    2  A    between atoms: C_2  and  C_3
REMARK    3  A    between atoms: C_2  and  C_4
REMARK    4  A    between atoms: C_6  and  C_9
REMARK    5  A    between atoms: C_9  and  S_10
REMARK    6  A    between atoms: S_10  and  C_11
REMARK    7  A    between atoms: C_14  and  C_19
REMARK    8  A    between atoms: N_15  and  C_16
REMARK                            x       y       z     vdW  Elec       q    Type
REMARK                         _______ _______ _______ _____ _____    ______ ____
ROOT
ATOM      1  C   UNL     1       2.555   5.342   1.494  0.00  0.00    +0.193 A 
ATOM      2  N   UNL     1       2.702   5.842   0.289  0.00  0.00    -0.122 NA
ATOM      3  N   UNL     1       3.193   7.027   0.358  0.00  0.00    -0.128 NA
ATOM      4  C   UNL     1       3.392   7.358   1.613  0.00  0.00    +0.167 A 
ATOM      5  N   UNL     1       2.984   6.292   2.381  0.00  0.00    -0.299 N 
ENDROOT
BRANCH   4   6
ATOM      6  C   UNL     1       3.943   8.636   2.107  0.00  0.00    +0.044 A 
ATOM      7  C   UNL     1       4.031   9.034   3.403  0.00  0.00    +0.095 A 
ATOM      8  N   UNL     1       4.597  10.275   3.466  0.00  0.00    -0.360 N 
ATOM      9  H   UNL     1       4.749  10.761   4.441  0.00  0.00    +0.165 HD
ATOM     10  C   UNL     1       4.897  10.726   2.198  0.00  0.00    +0.047 A 
ATOM     11  C   UNL     1       4.509   9.724   1.292  0.00  0.00    +0.010 A 
ATOM     12  C   UNL     1       4.690   9.913  -0.076  0.00  0.00    +0.011 A 
ATOM     13  C   UNL     1       5.261  11.080  -0.534  0.00  0.00    +0.001 A 
ATOM     14  C   UNL     1       5.649  12.068   0.360  0.00  0.00    +0.002 A 
ATOM     15  C   UNL     1       5.471  11.897   1.716  0.00  0.00    +0.026 A 
ENDBRANCH   4   6
BRANCH   5  16
ATOM     16  C   UNL     1       3.006   6.192   3.842  0.00  0.00    +0.091 C 
ATOM     17  C   UNL     1       2.857   4.800   4.458  0.00  0.00    +0.027 C 
ATOM     18  C   UNL     1       1.704   5.803   4.544  0.00  0.00    +0.027 C 
ENDBRANCH   5  16
BRANCH   1  19
ATOM     19  S   UNL     1       1.919   3.749   1.895  0.00  0.00    -0.076 S 
BRANCH  19  20
ATOM     20  C   UNL     1       1.578   3.119   0.232  0.00  0.00    +0.176 C 
BRANCH  20  23
ATOM     21  C   UNL     1      -0.288   0.063   0.485  0.00  0.00    +0.174 A 
ATOM     22  N   UNL     1      -0.258   1.406   0.427  0.00  0.00    -0.195 NA
ATOM     23  C   UNL     1       1.010   1.727   0.329  0.00  0.00    +0.238 A 
ATOM     24  O   UNL     1       1.701   0.583   0.331  0.00  0.00    -0.337 OA
ATOM     25  N   UNL     1       0.940  -0.357   0.421  0.00  0.00    -0.061 NA
BRANCH  21  27
ATOM     26  C   UNL     1      -1.607  -1.732  -0.605  0.00  0.00    +0.015 C 
ATOM     27  C   UNL     1      -1.520  -0.797   0.604  0.00  0.00    +0.054 C 
ATOM     28  C   UNL     1      -1.441  -1.627   1.886  0.00  0.00    +0.015 C 
ENDBRANCH  21  27
ENDBRANCH  20  23
ENDBRANCH  19  20
ENDBRANCH   1  19
TORSDOF 6
