REMARK  Name = ZINC06099466
REMARK  6 active torsions:
REMARK  status: ('A' for Active; 'I' for Inactive)
REMARK    1  A    between atoms: C_1  and  C_2
REMARK    2  A    between atoms: C_2  and  C_4
REMARK    3  A    between atoms: C_2  and  S_15
REMARK    4  A    between atoms: N_6  and  C_7
REMARK    5  A    between atoms: C_7  and  C_13
REMARK    6  A    between atoms: S_15  and  C_16
REMARK                            x       y       z     vdW  Elec       q    Type
REMARK                         _______ _______ _______ _____ _____    ______ ____
ROOT
ATOM      1  C   UNL     1      -0.019   1.526   0.010  0.00  0.00    +0.029 C 
ATOM      2  C   UNL     1       0.002  -0.004   0.002  0.00  0.00    +0.137 C 
ENDROOT
BRANCH   2   3
ATOM      3  C   UNL     1      -1.412  -0.526   0.013  0.00  0.00    +0.227 C 
ATOM      4  O   UNL     1      -1.939  -0.827   1.062  0.00  0.00    -0.275 OA
ATOM      5  N   UNL     1      -2.090  -0.657  -1.144  0.00  0.00    -0.296 N 
ATOM      6  H   UNL     1      -1.669  -0.416  -1.984  0.00  0.00    +0.150 HD
BRANCH   5   7
ATOM      7  C   UNL     1      -3.465  -1.164  -1.134  0.00  0.00    +0.121 C 
ATOM      8  C   UNL     1      -3.485  -2.571  -0.532  0.00  0.00    +0.041 C 
ATOM      9  C   UNL     1      -4.920  -3.100  -0.521  0.00  0.00    +0.003 C 
ATOM     10  C   UNL     1      -5.456  -3.151  -1.953  0.00  0.00    +0.000 C 
ATOM     11  C   UNL     1      -5.436  -1.745  -2.555  0.00  0.00    +0.003 C 
ATOM     12  C   UNL     1      -4.000  -1.215  -2.566  0.00  0.00    +0.041 C 
BRANCH   7  13
ATOM     13  C   UNL     1      -4.311  -0.272  -0.325  0.00  0.00    +0.088 C 
ATOM     14  N   UNL     1      -4.964   0.417   0.299  0.00  0.00    -0.194 NA
ENDBRANCH   7  13
ENDBRANCH   5   7
ENDBRANCH   2   3
BRANCH   2  15
ATOM     15  S   UNL     1       0.879  -0.605   1.472  0.00  0.00    -0.073 S 
BRANCH  15  16
ATOM     16  C   UNL     1       2.533  -0.042   1.241  0.00  0.00    +0.197 A 
ATOM     17  N   UNL     1       2.983   0.657   0.223  0.00  0.00    -0.122 NA
ATOM     18  N   UNL     1       4.237   0.901   0.369  0.00  0.00    -0.127 NA
ATOM     19  C   UNL     1       4.666   0.368   1.498  0.00  0.00    +0.180 A 
ATOM     20  N   UNL     1       3.582  -0.246   2.088  0.00  0.00    -0.275 N 
ATOM     21  C   UNL     1       3.718  -0.890   3.288  0.00  0.00    +0.115 A 
ATOM     22  C   UNL     1       4.914  -0.929   3.911  0.00  0.00    +0.059 A 
ATOM     23  C   UNL     1       6.039  -0.308   3.334  0.00  0.00    +0.045 A 
ATOM     24  C   UNL     1       5.922   0.330   2.139  0.00  0.00    +0.087 A 
ATOM     25 CL   UNL     1       7.299   1.101   1.417  0.00  0.00    -0.080 Cl
ATOM     26 CL   UNL     1       5.066  -1.749   5.433  0.00  0.00    -0.082 Cl
ENDBRANCH  15  16
ENDBRANCH   2  15
TORSDOF 5
