REMARK  Name = ZINC39756175
REMARK  13 active torsions:
REMARK  status: ('A' for Active; 'I' for Inactive)
REMARK    1  A    between atoms: C_1  and  C_2
REMARK    2  A    between atoms: C_2  and  N_3
REMARK    3  A    between atoms: C_4  and  CA_22
REMARK    4  A    between atoms: C_7  and  S_8
REMARK    5  A    between atoms: S_8  and  C_9
REMARK    6  A    between atoms: C_9  and  C_11
REMARK    7  A    between atoms: C_9  and  C_12
REMARK    8  A    between atoms: N_14  and  C_15
REMARK    9  A    between atoms: C_20  and  C_21
REMARK   10  A    between atoms: CA_22  and  C_24
REMARK   11  A    between atoms: CA_22  and  N_26
REMARK   12  A    between atoms: C_24  and  O_25
REMARK   13  A    between atoms: C_27  and  C_29
REMARK                            x       y       z     vdW  Elec       q    Type
REMARK                         _______ _______ _______ _____ _____    ______ ____
ROOT
ATOM      1  N   UNL     1       0.705  -0.452   1.187  0.00  0.00    -0.305 N 
ATOM      2  C   UNL     1       2.046  -0.694   1.303  0.00  0.00    +0.157 A 
ATOM      3  N   UNL     1       2.262  -1.108   2.519  0.00  0.00    -0.131 NA
ATOM      4  N   UNL     1       1.158  -1.143   3.176  0.00  0.00    -0.122 NA
ATOM      5  C   UNL     1       0.170  -0.746   2.408  0.00  0.00    +0.192 A 
ENDROOT
BRANCH   1   7
ATOM      6  C   UNL     1      -0.041   1.559   0.012  0.00  0.00    +0.027 C 
ATOM      7  C   UNL     1      -0.008   0.029   0.001  0.00  0.00    +0.122 C 
ENDBRANCH   1   7
BRANCH   5   8
ATOM      8  S   UNL     1      -1.527  -0.620   2.866  0.00  0.00    -0.074 S 
BRANCH   8   9
ATOM      9  C   UNL     1      -1.555  -1.154   4.600  0.00  0.00    +0.137 C 
ATOM     10  C   UNL     1      -1.155  -2.628   4.686  0.00  0.00    +0.029 C 
BRANCH   9  11
ATOM     11  C   UNL     1      -2.943  -0.976   5.158  0.00  0.00    +0.230 C 
ATOM     12  O   UNL     1      -3.901  -0.980   4.414  0.00  0.00    -0.274 OA
ATOM     13  N   UNL     1      -3.121  -0.813   6.484  0.00  0.00    -0.284 N 
ATOM     14  H   UNL     1      -2.365  -0.890   7.087  0.00  0.00    +0.155 HD
BRANCH  13  15
ATOM     15  C   UNL     1      -4.395  -0.533   6.990  0.00  0.00    +0.036 A 
ATOM     16  C   UNL     1      -5.347   0.074   6.182  0.00  0.00    +0.023 A 
ATOM     17  C   UNL     1      -6.603   0.349   6.684  0.00  0.00    +0.002 A 
ATOM     18  C   UNL     1      -6.914   0.021   7.991  0.00  0.00    +0.000 A 
ATOM     19  C   UNL     1      -5.968  -0.584   8.799  0.00  0.00    +0.005 A 
ATOM     20  C   UNL     1      -4.712  -0.867   8.300  0.00  0.00    -0.029 A 
ATOM     21  C   UNL     1      -3.684  -1.533   9.179  0.00  0.00    +0.045 C 
ENDBRANCH  13  15
ENDBRANCH   9  11
ENDBRANCH   8   9
ENDBRANCH   5   8
BRANCH   2  22
ATOM     22  CA  UNL     1       3.082  -0.515   0.223  0.00  0.00    +0.167 C 
BRANCH  22  23
ATOM     23  N   UNL     1       3.971  -1.680   0.202  0.00  0.00    -0.299 N 
ATOM     24  C   UNL     1       4.625  -2.008  -0.929  0.00  0.00    +0.245 C 
ATOM     25  O   UNL     1       4.478  -1.337  -1.933  0.00  0.00    -0.270 OA
ATOM     26  H   UNL     1       4.089  -2.215   1.003  0.00  0.00    +0.150 HD
BRANCH  24  27
ATOM     27  C   UNL     1       5.522  -3.182  -0.951  0.00  0.00    +0.037 A 
ATOM     28  C   UNL     1       5.689  -3.957   0.199  0.00  0.00    +0.014 A 
ATOM     29  C   UNL     1       6.527  -5.052   0.173  0.00  0.00    +0.021 A 
ATOM     30  C   UNL     1       7.203  -5.383  -0.990  0.00  0.00    +0.041 A 
ATOM     31  C   UNL     1       7.041  -4.618  -2.133  0.00  0.00    +0.021 A 
ATOM     32  C   UNL     1       6.202  -3.524  -2.121  0.00  0.00    +0.014 A 
ATOM     33 CL   UNL     1       8.257  -6.763  -1.015  0.00  0.00    -0.084 Cl
ENDBRANCH  24  27
ENDBRANCH  22  23
BRANCH  22  34
ATOM     34  C   UNL     1       3.900   0.746   0.505  0.00  0.00    +0.186 C 
BRANCH  34  35
ATOM     35  O   UNL     1       4.455   0.670   1.819  0.00  0.00    -0.393 OA
ATOM     36  H   UNL     1       4.988   1.439   2.067  0.00  0.00    +0.209 HD
ENDBRANCH  34  35
ENDBRANCH  22  34
ENDBRANCH   2  22
TORSDOF 10
