REMARK  Name = ZINC39582691
REMARK  2 active torsions:
REMARK  status: ('A' for Active; 'I' for Inactive)
REMARK    1  A    between atoms: C_9  and  O_18
REMARK    2  A    between atoms: C_10  and  C_15
REMARK                            x       y       z     vdW  Elec       q    Type
REMARK                         _______ _______ _______ _____ _____    ______ ____
ROOT
ATOM      1  C   UNL     1      -0.069   1.318   0.054  0.00  0.00    +0.001 A 
ATOM      2  C   UNL     1       1.048   2.104  -0.253  0.00  0.00    +0.002 A 
ATOM      3  C   UNL     1       2.270   1.557  -0.456  0.00  0.00    +0.026 A 
ATOM      4  C   UNL     1       2.431   0.104  -0.353  0.00  0.00    +0.044 A 
ATOM      5  N   UNL     1       3.475  -0.679  -0.536  0.00  0.00    -0.374 N 
ATOM      6  C   UNL     1       3.100  -2.024  -0.156  0.00  0.00    +0.137 C 
ATOM      7  C   UNL     1       3.537  -3.140  -1.038  0.00  0.00    +0.048 C 
ATOM      8  C   UNL     1       2.760  -4.229  -1.171  0.00  0.00    +0.129 C 
ATOM      9  C   UNL     1       1.437  -4.330  -0.539  0.00  0.00    +0.105 C 
ATOM     10  C   UNL     1       0.826  -3.187  -0.025  0.00  0.00    +0.025 C 
ATOM     11  C   UNL     1       1.598  -2.034  -0.015  0.00  0.00    -0.011 C 
ATOM     12  C   UNL     1       1.226  -0.701  -0.040  0.00  0.00    +0.003 A 
ATOM     13  C   UNL     1       0.001  -0.030   0.160  0.00  0.00    +0.010 A 
ATOM     14  H   UNL     1       4.343  -0.403  -0.868  0.00  0.00    +0.161 HD
ENDROOT
BRANCH   9  15
ATOM     15  C   UNL     1       0.760  -5.635  -0.449  0.00  0.00    +0.390 C 
ATOM     16  O   UNL     1      -0.390  -5.700  -0.036  0.00  0.00    -0.240 OA
ATOM     17  O   UNL     1       1.347  -6.654  -0.786  0.00  0.00    -0.240 OA
ENDBRANCH   9  15
BRANCH   8  18
ATOM     18  O   UNL     1       3.213  -5.271  -1.915  0.00  0.00    -0.506 OA
ATOM     19  H   UNL     1       2.565  -5.978  -2.037  0.00  0.00    +0.292 HD
ENDBRANCH   8  18
TORSDOF 2
