REMARK  Name = ZINC14963679
REMARK  8 active torsions:
REMARK  status: ('A' for Active; 'I' for Inactive)
REMARK    1  A    between atoms: C_1  and  C_2
REMARK    2  A    between atoms: C_9  and  C_21
REMARK    3  A    between atoms: N_12  and  C_13
REMARK    4  A    between atoms: C_13  and  C_14
REMARK    5  A    between atoms: C_21  and  N_51
REMARK    6  A    between atoms: C_22  and  C_24
REMARK    7  A    between atoms: C_22  and  C_25
REMARK    8  A    between atoms: C_22  and  N_51
REMARK                            x       y       z     vdW  Elec       q    Type
REMARK                         _______ _______ _______ _____ _____    ______ ____
ROOT
ATOM      1  C   UNL     1       6.336  -0.153   0.705  0.00  0.00    +0.044 C 
ATOM      2  C   UNL     1       4.967   0.449   0.519  0.00  0.00    -0.050 A 
ATOM      3  C   UNL     1       4.817   1.829   0.522  0.00  0.00    +0.005 A 
ATOM      4  C   UNL     1       3.574   2.401   0.354  0.00  0.00    +0.027 A 
ATOM      5  C   UNL     1       2.458   1.589   0.179  0.00  0.00    +0.052 A 
ATOM      6  C   UNL     1       2.615   0.191   0.177  0.00  0.00    -0.001 A 
ATOM      7  C   UNL     1       3.886  -0.368   0.350  0.00  0.00    +0.013 A 
ATOM      8  C   UNL     1       1.435  -0.655  -0.007  0.00  0.00    +0.017 A 
ATOM      9  C   UNL     1       0.228  -0.058  -0.170  0.00  0.00    +0.001 A 
ATOM     10  C   UNL     1       0.125   1.350  -0.160  0.00  0.00    +0.253 A 
ATOM     11  O   UNL     1      -0.968   1.867  -0.314  0.00  0.00    -0.267 OA
ATOM     12  N   UNL     1       1.204   2.135   0.009  0.00  0.00    -0.304 N 
ENDROOT
BRANCH  12  13
ATOM     13  C   UNL     1       1.044   3.591   0.011  0.00  0.00    +0.162 C 
BRANCH  13  14
ATOM     14  C   UNL     1       0.908   4.080   1.430  0.00  0.00    -0.009 A 
ATOM     15  C   UNL     1       0.975   3.182   2.479  0.00  0.00    +0.007 A 
ATOM     16  C   UNL     1       0.850   3.630   3.781  0.00  0.00    +0.000 A 
ATOM     17  C   UNL     1       0.658   4.975   4.035  0.00  0.00    +0.001 A 
ATOM     18  C   UNL     1       0.591   5.873   2.986  0.00  0.00    +0.020 A 
ATOM     19  C   UNL     1       0.721   5.427   1.683  0.00  0.00    +0.046 A 
ATOM     20 CL   UNL     1       0.643   6.555   0.367  0.00  0.00    -0.083 Cl
ENDBRANCH  13  14
ENDBRANCH  12  13
BRANCH   9  21
ATOM     21  C   UNL     1      -1.007  -0.899  -0.363  0.00  0.00    -0.040 C 
BRANCH  21  22
ATOM     22  N   UNL     1      -1.669  -1.093   0.941  0.00  0.00    +0.388 N 
ATOM     23  H   UNL     1      -1.927  -0.178   1.328  0.00  0.00    -0.084 HD
ATOM     24  H   UNL     1      -1.021  -1.566   1.582  0.00  0.00    -0.084 HD
BRANCH  22  25
ATOM     25  C   UNL     1      -2.883  -1.915   0.782  0.00  0.00    -0.007 C 
ATOM     26  C   UNL     1      -2.506  -3.397   0.824  0.00  0.00    -0.006 C 
BRANCH  25  27
ATOM     27  C   UNL     1      -3.839  -1.608   1.906  0.00  0.00    +0.091 A 
ATOM     28  C   UNL     1      -5.174  -1.491   1.793  0.00  0.00    +0.043 A 
ATOM     29  C   UNL     1      -5.670  -1.203   3.085  0.00  0.00    +0.041 A 
ATOM     30  C   UNL     1      -4.608  -1.153   3.909  0.00  0.00    +0.195 A 
ATOM     31  O   UNL     1      -3.501  -1.399   3.189  0.00  0.00    -0.469 OA
ENDBRANCH  25  27
ENDBRANCH  22  25
ENDBRANCH  21  22
ENDBRANCH   9  21
TORSDOF 6
