REMARK  Name = ZINC35379131
REMARK  8 active torsions:
REMARK  status: ('A' for Active; 'I' for Inactive)
REMARK    1  A    between atoms: C_1  and  C_2
REMARK    2  A    between atoms: C_5  and  N_9
REMARK    3  A    between atoms: C_7  and  C_8
REMARK    4  A    between atoms: C_10  and  C_12
REMARK    5  A    between atoms: N_17  and  S_19
REMARK    6  A    between atoms: S_19  and  C_22
REMARK    7  A    between atoms: C_27  and  C_28
REMARK    8  A    between atoms: C_32  and  C_35
REMARK                            x       y       z     vdW  Elec       q    Type
REMARK                         _______ _______ _______ _____ _____    ______ ____
ROOT
ATOM      1  C   UNL     1      -0.134  -6.343  -1.187  0.00  0.00    +0.091 C 
ATOM      2  C   UNL     1      -1.377  -6.777  -0.407  0.00  0.00    +0.015 C 
ATOM      3  C   UNL     1      -1.455  -8.305  -0.379  0.00  0.00    +0.018 C 
ATOM      4  C   UNL     1      -1.575  -8.833  -1.812  0.00  0.00    +0.109 C 
ATOM      5  N   UNL     1      -0.460  -8.301  -2.607  0.00  0.00    -0.176 NA
ATOM      6  C   UNL     1      -0.238  -6.848  -2.629  0.00  0.00    +0.122 C 
ENDROOT
BRANCH   1   8
ATOM      7  N   UNL     1       0.059  -4.170  -0.021  0.00  0.00    -0.285 N 
ATOM      8  C   UNL     1      -0.040  -4.839  -1.187  0.00  0.00    +0.222 C 
ATOM      9  O   UNL     1      -0.054  -4.230  -2.236  0.00  0.00    -0.275 OA
ATOM     10  H   UNL     1       0.147  -4.658   0.812  0.00  0.00    +0.155 HD
BRANCH   7  15
ATOM     11  C   UNL     1      -0.042   1.502   0.014  0.00  0.00    +0.044 C 
ATOM     12  C   UNL     1      -0.015  -0.004   0.004  0.00  0.00    -0.047 A 
ATOM     13  C   UNL     1      -0.752  -0.702  -0.935  0.00  0.00    +0.005 A 
ATOM     14  C   UNL     1      -0.730  -2.083  -0.946  0.00  0.00    +0.023 A 
ATOM     15  C   UNL     1       0.034  -2.771  -0.013  0.00  0.00    +0.034 A 
ATOM     16  C   UNL     1       0.773  -2.068   0.929  0.00  0.00    +0.027 A 
ATOM     17  C   UNL     1       0.751  -0.686   0.932  0.00  0.00    -0.046 A 
ATOM     18  C   UNL     1       1.557   0.078   1.950  0.00  0.00    +0.044 C 
ENDBRANCH   7  15
ENDBRANCH   1   8
BRANCH   5  19
ATOM     19  S   UNL     1       0.529  -9.318  -3.460  0.00  0.00    +0.061 S 
ATOM     20  O   UNL     1       1.762  -8.633  -3.635  0.00  0.00    -0.153 OA
ATOM     21  O   UNL     1       0.446 -10.589  -2.830  0.00  0.00    -0.153 OA
BRANCH  19  22
ATOM     22  C   UNL     1      -0.175  -9.505  -5.064  0.00  0.00    +0.112 A 
ATOM     23  C   UNL     1       0.506  -9.039  -6.175  0.00  0.00    +0.076 A 
ATOM     24  C   UNL     1      -0.047  -9.185  -7.434  0.00  0.00    +0.145 A 
ATOM     25  C   UNL     1      -1.289  -9.802  -7.580  0.00  0.00    +0.076 A 
ATOM     26  C   UNL     1      -1.966 -10.267  -6.465  0.00  0.00    +0.032 A 
ATOM     27  C   UNL     1      -1.404 -10.121  -5.209  0.00  0.00    -0.022 A 
ATOM     28  C   UNL     1      -2.136 -10.632  -3.995  0.00  0.00    +0.046 C 
ATOM     29  N   UNL     1      -1.839  -9.943  -8.862  0.00  0.00    -0.280 N 
ATOM     30  C   UNL     1      -1.040  -9.775  -9.939  0.00  0.00    +0.258 C 
ATOM     31  O   UNL     1      -1.500  -9.861 -11.058  0.00  0.00    -0.271 OA
ATOM     32  C   UNL     1       0.425  -9.479  -9.744  0.00  0.00    +0.256 C 
ATOM     33  O   UNL     1       0.609  -8.734  -8.537  0.00  0.00    -0.478 OA
ATOM     34  C   UNL     1       1.203 -10.793  -9.653  0.00  0.00    +0.062 C 
ATOM     35  H   UNL     1      -2.778 -10.158  -8.975  0.00  0.00    +0.155 HD
ENDBRANCH  19  22
ENDBRANCH   5  19
TORSDOF 4
