REMARK  Name = ZINC39653002
REMARK  13 active torsions:
REMARK  status: ('A' for Active; 'I' for Inactive)
REMARK    1  A    between atoms: C_1  and  O_2
REMARK    2  A    between atoms: O_2  and  C_3
REMARK    3  A    between atoms: C_5  and  C_11
REMARK    4  A    between atoms: C_7  and  O_9
REMARK    5  A    between atoms: O_9  and  C_10
REMARK    6  A    between atoms: C_11  and  C_12
REMARK    7  A    between atoms: C_12  and  N_13
REMARK    8  A    between atoms: C_14  and  C_16
REMARK    9  A    between atoms: C_27  and  C_29
REMARK   10  A    between atoms: C_31  and  O_37
REMARK   11  A    between atoms: C_33  and  O_35
REMARK   12  A    between atoms: O_35  and  C_36
REMARK   13  A    between atoms: O_37  and  C_38
REMARK                            x       y       z     vdW  Elec       q    Type
REMARK                         _______ _______ _______ _____ _____    ______ ____
ROOT
ATOM      1  C   UNL     1      -3.245  -7.963   2.762  0.00  0.00    +0.100 C 
ATOM      2  C   UNL     1      -4.409  -8.710   2.073  0.00  0.00    +0.121 C 
ATOM      3  N   UNL     1      -4.636  -9.908   2.915  0.00  0.00    -0.296 N 
ATOM      4  C   UNL     1      -4.468  -9.419   4.305  0.00  0.00    +0.115 C 
ATOM      5  C   UNL     1      -3.287  -8.431   4.226  0.00  0.00    -0.004 C 
ATOM      6  C   UNL     1      -1.985  -9.136   4.594  0.00  0.00    -0.010 C 
ATOM      7  C   UNL     1      -2.028  -9.541   6.070  0.00  0.00    -0.082 C 
ATOM      8  N   UNL     1      -2.214  -8.347   6.902  0.00  0.00    +0.379 N 
ATOM      9  C   UNL     1      -3.511  -7.727   6.607  0.00  0.00    -0.082 C 
ATOM     10  C   UNL     1      -3.531  -7.245   5.154  0.00  0.00    -0.010 C 
ATOM     11  C   UNL     1      -4.929 -11.159   2.509  0.00  0.00    +0.247 C 
ATOM     12  O   UNL     1      -4.908 -11.435   1.325  0.00  0.00    -0.270 OA
ATOM     13  H   UNL     1      -2.181  -8.608   7.876  0.00  0.00    -0.086 HD
ATOM     14  H   UNL     1      -1.476  -7.686   6.709  0.00  0.00    -0.086 HD
ENDROOT
BRANCH  11  15
ATOM     15  C   UNL     1      -5.276 -12.197   3.504  0.00  0.00    +0.044 A 
ATOM     16  C   UNL     1      -5.724 -11.828   4.773  0.00  0.00    +0.059 A 
ATOM     17  C   UNL     1      -6.048 -12.803   5.701  0.00  0.00    +0.124 A 
ATOM     18  C   UNL     1      -5.929 -14.145   5.371  0.00  0.00    +0.091 A 
ATOM     19  C   UNL     1      -5.484 -14.517   4.111  0.00  0.00    +0.124 A 
ATOM     20  C   UNL     1      -5.163 -13.548   3.174  0.00  0.00    +0.059 A 
BRANCH  19  21
ATOM     21  O   UNL     1      -5.369 -15.833   3.792  0.00  0.00    -0.495 OA
ATOM     22  C   UNL     1      -5.722 -16.778   4.804  0.00  0.00    +0.277 C 
ENDBRANCH  19  21
BRANCH  17  23
ATOM     23  O   UNL     1      -6.484 -12.445   6.938  0.00  0.00    -0.495 OA
ATOM     24  C   UNL     1      -6.801 -13.502   7.846  0.00  0.00    +0.277 C 
ENDBRANCH  17  23
ENDBRANCH  11  15
BRANCH   1  26
ATOM     25  N   UNL     1      -2.394  -5.644   2.640  0.00  0.00    -0.315 N 
ATOM     26  C   UNL     1      -3.456  -6.474   2.681  0.00  0.00    +0.218 C 
ATOM     27  O   UNL     1      -4.581  -6.021   2.653  0.00  0.00    -0.275 OA
ATOM     28  H   UNL     1      -1.495  -6.006   2.662  0.00  0.00    +0.149 HD
BRANCH  25  29
ATOM     29  C   UNL     1      -2.599  -4.196   2.561  0.00  0.00    +0.109 C 
BRANCH  29  30
ATOM     30  C   UNL     1      -1.242  -3.489   2.527  0.00  0.00    +0.054 C 
BRANCH  30  33
ATOM     31  C   UNL     1      -1.748   0.119   3.533  0.00  0.00    +0.124 A 
ATOM     32  C   UNL     1      -1.554  -1.253   3.605  0.00  0.00    +0.049 A 
ATOM     33  C   UNL     1      -1.453  -2.000   2.446  0.00  0.00    -0.039 A 
ATOM     34  C   UNL     1      -1.546  -1.382   1.214  0.00  0.00    +0.049 A 
ATOM     35  C   UNL     1      -1.740  -0.010   1.136  0.00  0.00    +0.124 A 
ATOM     36  C   UNL     1      -1.847   0.740   2.297  0.00  0.00    +0.091 A 
BRANCH  31  38
ATOM     37  C   UNL     1      -2.051   2.259   4.523  0.00  0.00    +0.277 C 
ATOM     38  O   UNL     1      -1.846   0.853   4.673  0.00  0.00    -0.495 OA
ENDBRANCH  31  38
BRANCH  35  39
ATOM     39  O   UNL     1      -1.830   0.597  -0.076  0.00  0.00    -0.495 OA
ATOM     40  C   UNL     1      -2.030   2.012  -0.080  0.00  0.00    +0.277 C 
ENDBRANCH  35  39
ENDBRANCH  30  33
ENDBRANCH  29  30
ENDBRANCH  25  29
ENDBRANCH   1  26
TORSDOF 9
