REMARK  Name = ZINC63573208
REMARK  4 active torsions:
REMARK  status: ('A' for Active; 'I' for Inactive)
REMARK    1  A    between atoms: C_1  and  O_2
REMARK    2  A    between atoms: O_2  and  C_3
REMARK    3  A    between atoms: C_10  and  C_28
REMARK    4  A    between atoms: N_20  and  C_21
REMARK                            x       y       z     vdW  Elec       q    Type
REMARK                         _______ _______ _______ _____ _____    ______ ____
ROOT
ATOM      1  C   UNL     1       0.541  -2.165   0.507  0.00  0.00    +0.121 A 
ATOM      2  C   UNL     1      -0.228  -1.228  -0.207  0.00  0.00    +0.047 A 
ATOM      3  C   UNL     1      -1.451  -1.518  -0.699  0.00  0.00    +0.029 A 
ATOM      4  C   UNL     1      -2.023  -2.852  -0.496  0.00  0.00    +0.043 A 
ATOM      5  N   UNL     1      -3.175  -3.374  -0.847  0.00  0.00    -0.375 N 
ATOM      6  C   UNL     1      -3.188  -4.779  -0.446  0.00  0.00    +0.131 C 
ATOM      7  C   UNL     1      -4.368  -5.098   0.480  0.00  0.00    +0.134 C 
ATOM      8  N   UNL     1      -4.087  -6.380   1.145  0.00  0.00    -0.276 N 
ATOM      9  C   UNL     1      -2.895  -6.540   1.985  0.00  0.00    +0.114 C 
ATOM     10  C   UNL     1      -1.638  -6.239   1.149  0.00  0.00    +0.052 C 
ATOM     11  C   UNL     1      -1.911  -4.984   0.351  0.00  0.00    -0.035 C 
ATOM     12  C   UNL     1      -1.216  -3.841   0.263  0.00  0.00    +0.003 A 
ATOM     13  C   UNL     1       0.105  -3.425   0.747  0.00  0.00    +0.055 A 
ATOM     14  C   UNL     1      -4.932  -7.417   0.980  0.00  0.00    +0.307 C 
ATOM     15  O   UNL     1      -5.895  -7.305   0.246  0.00  0.00    -0.252 OA
ATOM     16  N   UNL     1      -4.710  -8.576   1.630  0.00  0.00    -0.269 N 
ATOM     17  H   UNL     1      -3.940  -8.666   2.213  0.00  0.00    +0.156 HD
ATOM     18  H   UNL     1      -3.895  -2.906  -1.296  0.00  0.00    +0.160 HD
ENDROOT
BRANCH  16  19
ATOM     19  C   UNL     1      -5.591  -9.652   1.463  0.00  0.00    +0.035 A 
ATOM     20  C   UNL     1      -6.916  -9.418   1.118  0.00  0.00    +0.024 A 
ATOM     21  C   UNL     1      -7.782 -10.481   0.954  0.00  0.00    +0.017 A 
ATOM     22  C   UNL     1      -7.332 -11.777   1.133  0.00  0.00    +0.018 A 
ATOM     23  C   UNL     1      -6.013 -12.012   1.478  0.00  0.00    +0.017 A 
ATOM     24  C   UNL     1      -5.140 -10.953   1.637  0.00  0.00    +0.024 A 
ATOM     25 BR   UNL     1      -8.522 -13.229   0.909  0.00  0.00    -0.050 Br
ENDBRANCH  16  19
BRANCH   7  26
ATOM     26  C   UNL     1      -4.515  -4.009   1.512  0.00  0.00    -0.025 A 
ATOM     27  C   UNL     1      -3.430  -3.636   2.283  0.00  0.00    +0.008 A 
ATOM     28  C   UNL     1      -3.564  -2.638   3.229  0.00  0.00    +0.038 A 
ATOM     29  C   UNL     1      -4.785  -2.010   3.404  0.00  0.00    +0.123 A 
ATOM     30  C   UNL     1      -5.872  -2.384   2.631  0.00  0.00    +0.038 A 
ATOM     31  C   UNL     1      -5.734  -3.379   1.682  0.00  0.00    +0.008 A 
ATOM     32  F   UNL     1      -4.918  -1.034   4.328  0.00  0.00    -0.205 F 
ENDBRANCH   7  26
BRANCH   1  34
ATOM     33  C   UNL     1       2.185  -0.457   0.691  0.00  0.00    +0.277 C 
ATOM     34  O   UNL     1       1.765  -1.795   0.966  0.00  0.00    -0.495 OA
ENDBRANCH   1  34
TORSDOF 3
