REMARK  Name = ZINC41485687
REMARK  8 active torsions:
REMARK  status: ('A' for Active; 'I' for Inactive)
REMARK    1  A    between atoms: C_1  and  C_2
REMARK    2  A    between atoms: C_2  and  C_3
REMARK    3  A    between atoms: C_2  and  C_4
REMARK    4  A    between atoms: C_9  and  O_10
REMARK    5  A    between atoms: O_10  and  C_11
REMARK    6  A    between atoms: C_11  and  C_12
REMARK    7  A    between atoms: C_12  and  N_13
REMARK    8  A    between atoms: C_15  and  C_20
REMARK                            x       y       z     vdW  Elec       q    Type
REMARK                         _______ _______ _______ _____ _____    ______ ____
ROOT
ATOM      1  O   UNL     1      -1.035  -1.636  -2.057  0.00  0.00    -0.490 OA
ENDROOT
BRANCH   1   7
ATOM      2  C   UNL     1      -1.412  -0.526   0.013  0.00  0.00    -0.003 A 
ATOM      3  C   UNL     1      -2.259  -0.205   1.056  0.00  0.00    +0.007 A 
ATOM      4  C   UNL     1      -3.556  -0.683   1.066  0.00  0.00    +0.001 A 
ATOM      5  C   UNL     1      -4.009  -1.484   0.034  0.00  0.00    +0.004 A 
ATOM      6  C   UNL     1      -3.166  -1.807  -1.012  0.00  0.00    +0.046 A 
ATOM      7  C   UNL     1      -1.865  -1.324  -1.027  0.00  0.00    +0.124 A 
BRANCH   2   9
ATOM      8  C   UNL     1      -0.019   1.526   0.010  0.00  0.00    +0.012 C 
ATOM      9  C   UNL     1       0.002  -0.004   0.002  0.00  0.00    +0.016 C 
ATOM     10  C   UNL     1       0.742  -0.511   1.242  0.00  0.00    +0.012 C 
ENDBRANCH   2   9
ENDBRANCH   1   7
BRANCH   1  11
ATOM     11  C   UNL     1      -1.570  -2.462  -3.094  0.00  0.00    +0.248 C 
BRANCH  11  12
ATOM     12  C   UNL     1      -0.497  -2.704  -4.157  0.00  0.00    +0.148 C 
BRANCH  12  13
ATOM     13  N   UNL     1       0.603  -3.476  -3.575  0.00  0.00    -0.298 N 
ATOM     14  C   UNL     1       1.774  -2.883  -2.918  0.00  0.00    +0.113 C 
ATOM     15  C   UNL     1       2.413  -4.028  -2.102  0.00  0.00    +0.030 C 
ATOM     16  C   UNL     1       1.935  -5.276  -2.881  0.00  0.00    +0.102 C 
ATOM     17  C   UNL     1       0.667  -4.818  -3.568  0.00  0.00    +0.216 C 
ATOM     18  O   UNL     1      -0.169  -5.556  -4.046  0.00  0.00    -0.276 OA
BRANCH  15  19
ATOM     19  C   UNL     1       1.880  -4.041  -0.667  0.00  0.00    +0.114 C 
ATOM     20 CL   UNL     1       2.756  -5.295   0.288  0.00  0.00    -0.125 Cl
ENDBRANCH  15  19
ENDBRANCH  12  13
ENDBRANCH  11  12
ENDBRANCH   1  11
TORSDOF 6
