REMARK  Name = ZINC20691228
REMARK  8 active torsions:
REMARK  status: ('A' for Active; 'I' for Inactive)
REMARK    1  A    between atoms: C_1  and  C_2
REMARK    2  A    between atoms: C_4  and  C_29
REMARK    3  A    between atoms: C_5  and  C_9
REMARK    4  A    between atoms: C_6  and  C_8
REMARK    5  A    between atoms: C_19  and  O_27
REMARK    6  A    between atoms: C_22  and  O_25
REMARK    7  A    between atoms: O_25  and  C_26
REMARK    8  A    between atoms: O_27  and  C_28
REMARK                            x       y       z     vdW  Elec       q    Type
REMARK                         _______ _______ _______ _____ _____    ______ ____
ROOT
ATOM      1  C   UNL     1      -2.717   2.950   4.762  0.00  0.00    +0.105 C 
ATOM      2  C   UNL     1      -3.493   1.792   5.395  0.00  0.00    +0.029 C 
ATOM      3  C   UNL     1      -2.458   0.771   5.946  0.00  0.00    +0.033 C 
ATOM      4  C   UNL     1      -2.068   1.351   7.292  0.00  0.00    -0.030 C 
ATOM      5  C   UNL     1      -2.989   2.178   7.720  0.00  0.00    -0.022 C 
ATOM      6  C   UNL     1      -4.138   2.282   6.710  0.00  0.00    +0.052 C 
ATOM      7  C   UNL     1      -4.637   3.691   6.587  0.00  0.00    +0.026 A 
ATOM      8  C   UNL     1      -5.380   4.215   7.644  0.00  0.00    +0.126 A 
ATOM      9  C   UNL     1      -5.865   5.510   7.591  0.00  0.00    +0.049 A 
ATOM     10  C   UNL     1      -5.615   6.297   6.482  0.00  0.00    +0.051 A 
ATOM     11  C   UNL     1      -4.880   5.786   5.429  0.00  0.00    +0.141 A 
ATOM     12  C   UNL     1      -4.387   4.478   5.479  0.00  0.00    +0.077 A 
ATOM     13  N   UNL     1      -3.648   4.022   4.406  0.00  0.00    -0.334 N 
ATOM     14  H   UNL     1      -3.703   4.380   3.367  0.00  0.00    +0.147 HD
ENDROOT
BRANCH   1  19
ATOM     15  C   UNL     1      -0.013   1.086   0.008  0.00  0.00    +0.044 C 
ATOM     16  C   UNL     1      -0.718   1.572   1.248  0.00  0.00    -0.050 A 
ATOM     17  C   UNL     1      -2.083   1.789   1.226  0.00  0.00    +0.007 A 
ATOM     18  C   UNL     1      -2.731   2.231   2.365  0.00  0.00    -0.045 A 
ATOM     19  C   UNL     1      -2.012   2.464   3.522  0.00  0.00    -0.021 A 
ATOM     20  C   UNL     1      -0.646   2.251   3.543  0.00  0.00    -0.045 A 
ATOM     21  C   UNL     1       0.001   1.806   2.405  0.00  0.00    +0.007 A 
ATOM     22  C   UNL     1       0.137   2.506   4.804  0.00  0.00    +0.044 C 
ATOM     23  C   UNL     1      -4.220   2.462   2.343  0.00  0.00    +0.044 C 
ENDBRANCH   1  19
BRANCH  11  24
ATOM     24  O   UNL     1      -4.633   6.560   4.338  0.00  0.00    -0.493 OA
ATOM     25  C   UNL     1      -5.164   7.887   4.349  0.00  0.00    +0.277 C 
ENDBRANCH  11  24
BRANCH   8  26
ATOM     26  O   UNL     1      -5.631   3.447   8.738  0.00  0.00    -0.495 OA
ATOM     27  C   UNL     1      -6.398   4.041   9.786  0.00  0.00    +0.277 C 
ENDBRANCH   8  26
TORSDOF 3
