REMARK  Name = ZINC63830757
REMARK  9 active torsions:
REMARK  status: ('A' for Active; 'I' for Inactive)
REMARK    1  A    between atoms: C_1  and  O_2
REMARK    2  A    between atoms: O_2  and  C_3
REMARK    3  A    between atoms: C_6  and  C_9
REMARK    4  A    between atoms: C_9  and  C_11
REMARK    5  A    between atoms: C_9  and  C_30
REMARK    6  A    between atoms: C_11  and  N_12
REMARK    7  A    between atoms: C_13  and  C_15
REMARK    8  A    between atoms: C_15  and  N_16
REMARK    9  A    between atoms: C_22  and  C_24
REMARK                            x       y       z     vdW  Elec       q    Type
REMARK                         _______ _______ _______ _____ _____    ______ ____
ROOT
ATOM      1  C   UNL     1       1.591  -2.165  -5.964  0.00  0.00    +0.116 C 
ENDROOT
BRANCH   1   2
ATOM      2  N   UNL     1       2.145  -2.742  -7.191  0.00  0.00    -0.313 N 
ATOM      3  C   UNL     1       1.504  -3.755  -7.808  0.00  0.00    +0.227 C 
ATOM      4  O   UNL     1       0.470  -4.188  -7.347  0.00  0.00    -0.274 OA
ATOM      5  H   UNL     1       2.973  -2.396  -7.560  0.00  0.00    +0.149 HD
BRANCH   3   6
ATOM      6  C   UNL     1       2.074  -4.349  -9.070  0.00  0.00    +0.180 C 
BRANCH   6   7
ATOM      7  N   UNL     1       1.197  -5.429  -9.543  0.00  0.00    -0.291 NA
ATOM      8  C   UNL     1      -0.111  -4.902  -9.955  0.00  0.00    +0.104 C 
ATOM      9  C   UNL     1      -1.053  -6.070 -10.267  0.00  0.00    +0.123 C 
ATOM     10  N   UNL     1      -0.399  -6.949 -11.248  0.00  0.00    -0.295 N 
ATOM     11  C   UNL     1       0.970  -7.407 -10.968  0.00  0.00    +0.123 C 
ATOM     12  C   UNL     1       1.832  -6.187 -10.629  0.00  0.00    +0.104 C 
ATOM     13  C   UNL     1      -1.037  -7.324 -12.374  0.00  0.00    +0.247 C 
ATOM     14  O   UNL     1      -2.193  -6.993 -12.557  0.00  0.00    -0.270 OA
BRANCH  13  15
ATOM     15  C   UNL     1      -0.333  -8.138 -13.388  0.00  0.00    +0.037 A 
ATOM     16  C   UNL     1       0.365  -9.284 -13.004  0.00  0.00    +0.013 A 
ATOM     17  C   UNL     1       1.020 -10.040 -13.954  0.00  0.00    +0.001 A 
ATOM     18  C   UNL     1       0.987  -9.663 -15.285  0.00  0.00    +0.000 A 
ATOM     19  C   UNL     1       0.298  -8.527 -15.672  0.00  0.00    +0.001 A 
ATOM     20  C   UNL     1      -0.367  -7.766 -14.733  0.00  0.00    +0.013 A 
ENDBRANCH  13  15
ENDBRANCH   6   7
ENDBRANCH   3   6
ENDBRANCH   1   2
BRANCH   1  21
ATOM     21  C   UNL     1       2.505  -1.040  -5.472  0.00  0.00    +0.064 C 
BRANCH  21  22
ATOM     22  C   UNL     1       3.840  -1.615  -5.075  0.00  0.00    -0.033 C 
ATOM     23  C   UNL     1       5.048  -1.301  -5.596  0.00  0.00    -0.000 A 
ATOM     24  C   UNL     1       5.465  -0.367  -6.648  0.00  0.00    +0.010 A 
ATOM     25  C   UNL     1       6.778  -0.269  -6.957  0.00  0.00    +0.001 A 
ATOM     26  C   UNL     1       7.748  -1.037  -6.300  0.00  0.00    +0.002 A 
ATOM     27  C   UNL     1       7.443  -1.917  -5.322  0.00  0.00    +0.026 A 
ATOM     28  C   UNL     1       6.093  -2.100  -4.916  0.00  0.00    +0.043 A 
ATOM     29  N   UNL     1       5.551  -2.878  -4.010  0.00  0.00    -0.380 N 
ATOM     30  C   UNL     1       4.101  -2.656  -4.009  0.00  0.00    +0.145 C 
ATOM     31  H   UNL     1       6.030  -3.495  -3.435  0.00  0.00    +0.160 HD
ENDBRANCH  21  22
BRANCH  21  35
ATOM     32  C   UNL     1       0.717   0.874  -2.096  0.00  0.00    +0.120 A 
ATOM     33  C   UNL     1       0.995   1.604  -3.242  0.00  0.00    +0.046 A 
ATOM     34  C   UNL     1       1.573   0.983  -4.332  0.00  0.00    +0.008 A 
ATOM     35  C   UNL     1       1.875  -0.365  -4.282  0.00  0.00    -0.038 A 
ATOM     36  C   UNL     1       1.598  -1.096  -3.140  0.00  0.00    +0.008 A 
ATOM     37  C   UNL     1       1.025  -0.478  -2.046  0.00  0.00    +0.046 A 
BRANCH  32  39
ATOM     38  C   UNL     1      -0.142   2.876  -1.145  0.00  0.00    +0.277 C 
ATOM     39  O   UNL     1       0.148   1.482  -1.022  0.00  0.00    -0.495 OA
ENDBRANCH  32  39
ENDBRANCH  21  35
ENDBRANCH   1  21
TORSDOF 8
