REMARK  Name = ZINC36583955
REMARK  11 active torsions:
REMARK  status: ('A' for Active; 'I' for Inactive)
REMARK    1  A    between atoms: C_1  and  C_2
REMARK    2  A    between atoms: C_2  and  C_3
REMARK    3  A    between atoms: C_2  and  C_4
REMARK    4  A    between atoms: C_2  and  N_5
REMARK    5  A    between atoms: N_5  and  C_6
REMARK    6  A    between atoms: C_6  and  C_8
REMARK    7  A    between atoms: C_6  and  C_17
REMARK    8  A    between atoms: C_11  and  N_14
REMARK    9  A    between atoms: N_19  and  C_20
REMARK   10  A    between atoms: C_26  and  C_28
REMARK   11  A    between atoms: C_28  and  C_29
REMARK                            x       y       z     vdW  Elec       q    Type
REMARK                         _______ _______ _______ _____ _____    ______ ____
ROOT
ATOM      1  C   UNL     1       2.814  -0.778  -2.322  0.00  0.00    +0.193 C 
ENDROOT
BRANCH   1   2
ATOM      2  C   UNL     1       3.600   0.427  -2.770  0.00  0.00    -0.018 A 
ATOM      3  C   UNL     1       3.927   1.416  -1.861  0.00  0.00    +0.008 A 
ATOM      4  C   UNL     1       4.647   2.521  -2.273  0.00  0.00    +0.033 A 
ATOM      5  C   UNL     1       5.042   2.638  -3.592  0.00  0.00    +0.126 A 
ATOM      6  C   UNL     1       4.716   1.648  -4.501  0.00  0.00    +0.033 A 
ATOM      7  C   UNL     1       3.998   0.541  -4.089  0.00  0.00    +0.008 A 
BRANCH   5   8
ATOM      8  N   UNL     1       5.813   3.822  -4.033  0.00  0.00    +0.056 N 
ATOM      9  O   UNL     1       6.098   4.687  -3.238  0.00  0.00    -0.126 OA
ATOM     10  O   UNL     1       6.158   3.924  -5.187  0.00  0.00    -0.126 OA
ENDBRANCH   5   8
ENDBRANCH   1   2
BRANCH   1  11
ATOM     11  C   UNL     1       3.716  -1.710  -1.554  0.00  0.00    +0.238 C 
ATOM     12  O   UNL     1       3.371  -2.133  -0.471  0.00  0.00    -0.273 OA
ATOM     13  N   UNL     1       4.907  -2.072  -2.071  0.00  0.00    -0.311 N 
ATOM     14  H   UNL     1       5.184  -1.733  -2.937  0.00  0.00    +0.149 HD
BRANCH  13  15
ATOM     15  C   UNL     1       5.785  -2.977  -1.325  0.00  0.00    +0.073 C 
ATOM     16  C   UNL     1       6.626  -2.170  -0.333  0.00  0.00    +0.022 C 
ATOM     17  C   UNL     1       7.542  -3.115   0.446  0.00  0.00    +0.002 C 
ATOM     18  C   UNL     1       8.466  -3.848  -0.528  0.00  0.00    +0.000 C 
ATOM     19  C   UNL     1       7.625  -4.655  -1.520  0.00  0.00    +0.002 C 
ATOM     20  C   UNL     1       6.709  -3.710  -2.299  0.00  0.00    +0.022 C 
ENDBRANCH  13  15
ENDBRANCH   1  11
BRANCH   1  21
ATOM     21  N   UNL     1       1.709  -0.349  -1.461  0.00  0.00    -0.281 N 
ATOM     22  C   UNL     1       1.942  -0.044  -0.169  0.00  0.00    +0.221 C 
ATOM     23  O   UNL     1       3.078  -0.019   0.254  0.00  0.00    -0.275 OA
BRANCH  21  25
ATOM     24  C   UNL     1       0.326  -0.831  -3.419  0.00  0.00    +0.031 C 
ATOM     25  C   UNL     1       0.352  -0.250  -2.004  0.00  0.00    +0.030 C 
ATOM     26  C   UNL     1      -0.074   1.218  -2.047  0.00  0.00    +0.031 C 
ATOM     27  C   UNL     1      -0.612  -1.036  -1.113  0.00  0.00    +0.031 C 
ENDBRANCH  21  25
BRANCH  22  28
ATOM     28  C   UNL     1       0.789   0.267   0.751  0.00  0.00    +0.131 C 
BRANCH  28  29
ATOM     29  C   UNL     1       1.317   0.834   2.044  0.00  0.00    -0.039 A 
ATOM     30  C   UNL     1       1.632  -0.011   3.092  0.00  0.00    +0.005 A 
ATOM     31  C   UNL     1       2.116   0.509   4.277  0.00  0.00    +0.015 A 
ATOM     32  C   UNL     1       2.286   1.875   4.415  0.00  0.00    +0.018 A 
ATOM     33  C   UNL     1       1.970   2.720   3.366  0.00  0.00    +0.015 A 
ATOM     34  C   UNL     1       1.491   2.199   2.179  0.00  0.00    +0.005 A 
ATOM     35 BR   UNL     1       2.948   2.587   6.037  0.00  0.00    -0.050 Br
ENDBRANCH  28  29
ENDBRANCH  22  28
ENDBRANCH   1  21
TORSDOF 8
