REMARK  Name = ZINC39948764
REMARK  12 active torsions:
REMARK  status: ('A' for Active; 'I' for Inactive)
REMARK    1  A    between atoms: C_1  and  C_2
REMARK    2  A    between atoms: C_2  and  N_3
REMARK    3  A    between atoms: N_3  and  C_4
REMARK    4  A    between atoms: C_4  and  C_5
REMARK    5  A    between atoms: C_6  and  O_8
REMARK    6  A    between atoms: O_8  and  C_9
REMARK    7  A    between atoms: C_12  and  C_15
REMARK    8  A    between atoms: N_16  and  N_17
REMARK    9  A    between atoms: C_18  and  C_20
REMARK   10  A    between atoms: C_21  and  C_31
REMARK   11  A    between atoms: C_31  and  N_32
REMARK   12  A    between atoms: C_37  and  C_39
REMARK                            x       y       z     vdW  Elec       q    Type
REMARK                         _______ _______ _______ _____ _____    ______ ____
ROOT
ATOM      1  C   UNL     1       0.960  -3.482 -10.333  0.00  0.00    +0.170 A 
ATOM      2  C   UNL     1       1.579  -3.963 -11.452  0.00  0.00    +0.063 A 
ATOM      3  N   UNL     1       2.879  -4.148 -11.130  0.00  0.00    -0.194 N 
ATOM      4  N   UNL     1       3.022  -3.765  -9.789  0.00  0.00    -0.058 NA
ATOM      5  N   UNL     1       1.875  -3.374  -9.353  0.00  0.00    -0.124 NA
ATOM      6  C   UNL     1       3.887  -4.630 -11.973  0.00  0.00    +0.240 A 
ATOM      7  C   UNL     1       5.291  -4.830 -11.603  0.00  0.00    +0.206 A 
ATOM      8  N   UNL     1       5.928  -5.289 -12.645  0.00  0.00    -0.032 NA
ATOM      9  O   UNL     1       4.997  -5.405 -13.706  0.00  0.00    -0.239 OA
ATOM     10  N   UNL     1       3.736  -4.982 -13.218  0.00  0.00    -0.027 NA
ATOM     11  N   UNL     1       5.849  -4.572 -10.356  0.00  0.00    -0.337 N 
ATOM     12  H   UNL     1       5.295  -4.229  -9.638  0.00  0.00    +0.144 HD
ATOM     13  H   UNL     1       6.793  -4.736 -10.204  0.00  0.00    +0.144 HD
ENDROOT
BRANCH   1  15
ATOM     14  N   UNL     1      -0.957  -2.661  -9.056  0.00  0.00    -0.202 N 
ATOM     15  C   UNL     1      -0.468  -3.134 -10.220  0.00  0.00    +0.285 C 
ATOM     16  O   UNL     1      -1.206  -3.273 -11.178  0.00  0.00    -0.267 OA
ATOM     17  H   UNL     1      -0.369  -2.550  -8.293  0.00  0.00    +0.178 HD
BRANCH  14  19
ATOM     18  C   UNL     1      -2.757  -1.748  -7.877  0.00  0.00    +0.138 C 
ATOM     19  N   UNL     1      -2.314  -2.330  -8.949  0.00  0.00    -0.187 NA
BRANCH  18  23
ATOM     20  C   UNL     1      -0.059   0.234  -5.267  0.00  0.00    +0.133 A 
ATOM     21  C   UNL     1       0.315  -0.032  -6.578  0.00  0.00    +0.047 A 
ATOM     22  C   UNL     1      -0.558  -0.675  -7.429  0.00  0.00    +0.013 A 
ATOM     23  C   UNL     1      -1.820  -1.060  -6.971  0.00  0.00    -0.005 A 
ATOM     24  C   UNL     1      -2.192  -0.791  -5.651  0.00  0.00    +0.013 A 
ATOM     25  C   UNL     1      -1.311  -0.152  -4.806  0.00  0.00    +0.047 A 
BRANCH  20  26
ATOM     26  O   UNL     1       0.804   0.869  -4.432  0.00  0.00    -0.411 OA
BRANCH  26  28
ATOM     27  N   UNL     1       1.355   2.816  -3.269  0.00  0.00    -0.268 N 
ATOM     28  C   UNL     1       0.590   2.174  -4.173  0.00  0.00    +0.408 C 
ATOM     29  O   UNL     1      -0.293   2.772  -4.756  0.00  0.00    -0.226 OA
BRANCH  27  31
ATOM     30  C   UNL     1       1.972   5.088  -3.932  0.00  0.00    +0.024 C 
ATOM     31  C   UNL     1       1.123   4.235  -2.988  0.00  0.00    +0.108 C 
ENDBRANCH  27  31
BRANCH  27  32
ATOM     32  C   UNL     1       2.420   2.095  -2.566  0.00  0.00    +0.108 C 
ATOM     33  C   UNL     1       1.860   1.485  -1.280  0.00  0.00    +0.024 C 
ENDBRANCH  27  32
ENDBRANCH  26  28
ENDBRANCH  20  26
ENDBRANCH  18  23
ENDBRANCH  14  19
ENDBRANCH   1  15
BRANCH   2  34
ATOM     34  C   UNL     1       0.936  -4.234 -12.788  0.00  0.00    -0.019 C 
BRANCH  34  35
ATOM     35  N   UNL     1       0.443  -5.618 -12.822  0.00  0.00    +0.385 N 
ATOM     36  C   UNL     1      -0.624  -5.779 -11.827  0.00  0.00    -0.078 C 
ATOM     37  C   UNL     1      -1.086  -7.238 -11.802  0.00  0.00    -0.019 C 
ATOM     38  C   UNL     1      -1.613  -7.626 -13.187  0.00  0.00    -0.003 C 
ATOM     39  C   UNL     1      -0.515  -7.382 -14.226  0.00  0.00    -0.016 C 
ATOM     40  C   UNL     1      -0.074  -5.918 -14.162  0.00  0.00    -0.071 C 
ATOM     41  C   UNL     1       1.023  -5.670 -15.199  0.00  0.00    -0.013 C 
ATOM     42  H   UNL     1       1.200  -6.249 -12.605  0.00  0.00    -0.081 HD
ENDBRANCH  34  35
ENDBRANCH   2  34
TORSDOF 9
