REMARK  Name = ZINC37378333
REMARK  5 active torsions:
REMARK  status: ('A' for Active; 'I' for Inactive)
REMARK    1  A    between atoms: C_1  and  S_2
REMARK    2  A    between atoms: S_2  and  C_5
REMARK    3  A    between atoms: C_8  and  C_11
REMARK    4  A    between atoms: C_11  and  C_13
REMARK    5  A    between atoms: C_11  and  N_21
REMARK                            x       y       z     vdW  Elec       q    Type
REMARK                         _______ _______ _______ _____ _____    ______ ____
ROOT
ATOM      1  C   UNL     1       2.890  -1.488  -5.084  0.00  0.00    -0.012 C 
ENDROOT
BRANCH   1   2
ATOM      2  C   UNL     1       3.509  -0.255  -5.689  0.00  0.00    -0.038 A 
ATOM      3  C   UNL     1       4.855   0.001  -5.511  0.00  0.00    +0.023 A 
ATOM      4  C   UNL     1       5.423   1.133  -6.067  0.00  0.00    +0.041 A 
ATOM      5  C   UNL     1       4.644   2.010  -6.801  0.00  0.00    +0.021 A 
ATOM      6  C   UNL     1       3.297   1.754  -6.979  0.00  0.00    +0.021 A 
ATOM      7  C   UNL     1       2.730   0.619  -6.427  0.00  0.00    +0.043 A 
ATOM      8 CL   UNL     1       1.040   0.293  -6.657  0.00  0.00    -0.083 Cl
ATOM      9 CL   UNL     1       7.115   1.455  -5.843  0.00  0.00    -0.084 Cl
ENDBRANCH   1   2
BRANCH   1  13
ATOM     10  C   UNL     1       0.845  -0.437  -1.483  0.00  0.00    +0.088 A 
ATOM     11  C   UNL     1       0.135  -0.613  -2.656  0.00  0.00    +0.027 A 
ATOM     12  C   UNL     1       0.796  -0.953  -3.821  0.00  0.00    +0.004 A 
ATOM     13  C   UNL     1       2.169  -1.117  -3.814  0.00  0.00    -0.057 A 
ATOM     14  C   UNL     1       2.880  -0.941  -2.641  0.00  0.00    +0.004 A 
ATOM     15  C   UNL     1       2.219  -0.596  -1.477  0.00  0.00    +0.027 A 
BRANCH  10  17
ATOM     16  C   UNL     1      -0.022   1.810   0.012  0.00  0.00    +0.200 C 
ATOM     17  S   UNL     1       0.002  -0.004   0.002  0.00  0.00    -0.006 S 
ATOM     18  O   UNL     1       0.835  -0.488   1.046  0.00  0.00    -0.170 OA
ATOM     19  O   UNL     1      -1.315  -0.510  -0.168  0.00  0.00    -0.170 OA
ENDBRANCH  10  17
ENDBRANCH   1  13
BRANCH   1  20
ATOM     20  N   UNL     1       3.943  -2.466  -4.780  0.00  0.00    +0.385 N 
ATOM     21  H   UNL     1       4.426  -2.715  -5.631  0.00  0.00    -0.089 HD
ATOM     22  H   UNL     1       4.598  -2.063  -4.127  0.00  0.00    -0.089 HD
ATOM     23  H   UNL     1       3.529  -3.292  -4.375  0.00  0.00    -0.089 HD
ENDBRANCH   1  20
TORSDOF 4
