REMARK  Name = ZINC18200253
REMARK  10 active torsions:
REMARK  status: ('A' for Active; 'I' for Inactive)
REMARK    1  A    between atoms: C_1  and  O_2
REMARK    2  A    between atoms: O_2  and  C_3
REMARK    3  A    between atoms: C_5  and  C_13
REMARK    4  A    between atoms: C_7  and  O_11
REMARK    5  A    between atoms: C_8  and  O_9
REMARK    6  A    between atoms: O_9  and  C_10
REMARK    7  A    between atoms: O_11  and  C_12
REMARK    8  A    between atoms: C_15  and  C_32
REMARK    9  A    between atoms: C_16  and  N_31
REMARK   10  A    between atoms: C_23  and  C_26
REMARK                            x       y       z     vdW  Elec       q    Type
REMARK                         _______ _______ _______ _____ _____    ______ ____
ROOT
ATOM      1  C   UNL     1       4.973   4.055  -0.024  0.00  0.00    +0.101 C 
ATOM      2  C   UNL     1       5.993   3.197   0.672  0.00  0.00    +0.098 C 
ATOM      3  C   UNL     1       6.368   3.474   1.944  0.00  0.00    +0.198 C 
ATOM      4  O   UNL     1       5.843   4.508   2.618  0.00  0.00    -0.445 OA
ATOM      5  C   UNL     1       5.286   5.532   1.945  0.00  0.00    +0.115 C 
ATOM      6  C   UNL     1       4.844   5.383   0.683  0.00  0.00    +0.046 C 
ATOM      7  C   UNL     1       4.247   6.450  -0.016  0.00  0.00    +0.164 C 
ATOM      8  O   UNL     1       3.872   6.279  -1.158  0.00  0.00    -0.292 OA
ATOM      9  C   UNL     1       4.068   7.798   0.627  0.00  0.00    +0.088 C 
ATOM     10  C   UNL     1       3.939   7.612   2.143  0.00  0.00    +0.040 C 
ATOM     11  C   UNL     1       5.176   6.866   2.646  0.00  0.00    +0.084 C 
ENDROOT
BRANCH   1  14
ATOM     12  C   UNL     1       1.812   2.382   1.200  0.00  0.00    +0.165 A 
ATOM     13  C   UNL     1       3.041   3.025   1.188  0.00  0.00    +0.054 A 
ATOM     14  C   UNL     1       3.639   3.352  -0.015  0.00  0.00    -0.027 A 
ATOM     15  C   UNL     1       3.018   3.037  -1.209  0.00  0.00    +0.054 A 
ATOM     16  C   UNL     1       1.792   2.390  -1.205  0.00  0.00    +0.165 A 
ATOM     17  C   UNL     1       1.187   2.059   0.002  0.00  0.00    +0.204 A 
BRANCH  12  19
ATOM     18  C   UNL     1       1.921   2.428   3.575  0.00  0.00    +0.277 C 
ATOM     19  O   UNL     1       1.222   2.065   2.384  0.00  0.00    -0.491 OA
ENDBRANCH  12  19
BRANCH  17  20
ATOM     20  O   UNL     1      -0.017   1.425   0.010  0.00  0.00    -0.488 OA
ATOM     21  C   UNL     1       0.002  -0.004   0.002  0.00  0.00    +0.277 C 
ENDBRANCH  17  20
BRANCH  16  22
ATOM     22  O   UNL     1       1.182   2.080  -2.380  0.00  0.00    -0.491 OA
ATOM     23  C   UNL     1       1.861   2.451  -3.581  0.00  0.00    +0.277 C 
ENDBRANCH  16  22
ENDBRANCH   1  14
BRANCH  10  24
ATOM     24  C   UNL     1       3.851   8.959   2.813  0.00  0.00    -0.006 A 
ATOM     25  C   UNL     1       2.863   9.462   3.593  0.00  0.00    +0.011 A 
ATOM     26  C   UNL     1       3.001  10.736   4.110  0.00  0.00    +0.008 A 
ATOM     27  C   UNL     1       4.114  11.449   3.813  0.00  0.00    +0.045 A 
ATOM     28  S   UNL     1       5.019  10.309   2.780  0.00  0.00    -0.101 S 
ENDBRANCH  10  24
BRANCH   3  29
ATOM     29  N   UNL     1       7.305   2.679   2.556  0.00  0.00    -0.328 N 
ATOM     30  H   UNL     1       7.691   1.928   2.078  0.00  0.00    +0.145 HD
ATOM     31  H   UNL     1       7.581   2.868   3.467  0.00  0.00    +0.145 HD
ENDBRANCH   3  29
BRANCH   2  32
ATOM     32  C   UNL     1       6.571   2.081  -0.015  0.00  0.00    +0.101 C 
ATOM     33  N   UNL     1       7.030   1.196  -0.559  0.00  0.00    -0.191 NA
ENDBRANCH   2  32
TORSDOF 7
