REMARK  Name = ZINC35743136
REMARK  15 active torsions:
REMARK  status: ('A' for Active; 'I' for Inactive)
REMARK    1  A    between atoms: C_1  and  C_2
REMARK    2  A    between atoms: C_2  and  C_3
REMARK    3  A    between atoms: C_3  and  C_4
REMARK    4  A    between atoms: C_4  and  O_6
REMARK    5  A    between atoms: O_6  and  C_7
REMARK    6  A    between atoms: C_7  and  C_8
REMARK    7  A    between atoms: C_8  and  C_10
REMARK    8  A    between atoms: C_8  and  O_39
REMARK    9  A    between atoms: C_10  and  N_11
REMARK   10  A    between atoms: N_11  and  C_12
REMARK   11  A    between atoms: N_11  and  C_23
REMARK   12  A    between atoms: C_12  and  C_13
REMARK   13  A    between atoms: C_17  and  C_19
REMARK   14  A    between atoms: C_23  and  C_24
REMARK   15  A    between atoms: C_27  and  C_30
REMARK                            x       y       z     vdW  Elec       q    Type
REMARK                         _______ _______ _______ _____ _____    ______ ____
ROOT
ATOM      1  N   UNL     1       2.708  -6.452  -4.525  0.00  0.00    +0.387 N 
ATOM      2  H   UNL     1       3.639  -6.066  -4.479  0.00  0.00    -0.081 HD
ENDROOT
BRANCH   1   3
ATOM      3  C   UNL     1       1.899  -5.910  -3.425  0.00  0.00    -0.043 C 
BRANCH   3   4
ATOM      4  C   UNL     1       2.119  -4.399  -3.326  0.00  0.00    +0.136 C 
BRANCH   4   5
ATOM      5  O   UNL     1       1.573  -3.761  -4.483  0.00  0.00    -0.390 OA
ATOM      6  H   UNL     1       0.608  -3.794  -4.531  0.00  0.00    +0.210 HD
ENDBRANCH   4   5
BRANCH   4   7
ATOM      7  C   UNL     1       1.424  -3.862  -2.073  0.00  0.00    +0.261 C 
BRANCH   7   8
ATOM      8  O   UNL     1       1.726  -2.474  -1.918  0.00  0.00    -0.462 OA
BRANCH   8   9
ATOM      9  C   UNL     1       1.190  -1.849  -0.859  0.00  0.00    +0.307 C 
ATOM     10  O   UNL     1       0.487  -2.459  -0.089  0.00  0.00    -0.251 OA
BRANCH   9  11
ATOM     11  C   UNL     1       1.464  -0.385  -0.630  0.00  0.00    +0.120 C 
BRANCH  11  13
ATOM     12  C   UNL     1       1.017   1.565   0.868  0.00  0.00    +0.004 C 
ATOM     13  C   UNL     1       0.739   0.078   0.635  0.00  0.00    +0.008 C 
ENDBRANCH  11  13
ENDBRANCH   9  11
ENDBRANCH   8   9
ENDBRANCH   7   8
ENDBRANCH   4   7
ENDBRANCH   3   4
ENDBRANCH   1   3
BRANCH   1  14
ATOM     14  C   UNL     1       2.091  -6.092  -5.809  0.00  0.00    -0.043 C 
BRANCH  14  15
ATOM     15  C   UNL     1       0.743  -6.756  -5.922  0.00  0.00    -0.063 A 
ATOM     16  C   UNL     1       0.635  -8.009  -6.495  0.00  0.00    +0.002 A 
ATOM     17  C   UNL     1      -0.602  -8.617  -6.599  0.00  0.00    +0.001 A 
ATOM     18  C   UNL     1      -1.731  -7.973  -6.128  0.00  0.00    +0.012 A 
ATOM     19  C   UNL     1      -1.623  -6.720  -5.554  0.00  0.00    +0.055 A 
ATOM     20  C   UNL     1      -0.385  -6.113  -5.447  0.00  0.00    +0.014 A 
BRANCH  19  21
ATOM     21  C   UNL     1      -2.853  -6.017  -5.042  0.00  0.00    +0.417 C 
ATOM     22  F   UNL     1      -3.975  -6.824  -5.257  0.00  0.00    -0.166 F 
ATOM     23  F   UNL     1      -2.713  -5.769  -3.672  0.00  0.00    -0.166 F 
ATOM     24  F   UNL     1      -3.014  -4.804  -5.721  0.00  0.00    -0.166 F 
ENDBRANCH  19  21
ENDBRANCH  14  15
ENDBRANCH   1  14
BRANCH   1  25
ATOM     25  C   UNL     1       2.777  -7.914  -4.407  0.00  0.00    -0.030 C 
BRANCH  25  26
ATOM     26  C   UNL     1       3.720  -8.468  -5.477  0.00  0.00    +0.194 C 
ATOM     27  C   UNL     1       3.781 -10.013  -5.415  0.00  0.00    +0.104 C 
ATOM     28  C   UNL     1       5.241 -10.297  -5.717  0.00  0.00    +0.091 C 
ATOM     29  N   UNL     1       5.904  -9.197  -5.580  0.00  0.00    -0.089 NA
ATOM     30  O   UNL     1       5.087  -8.107  -5.198  0.00  0.00    -0.392 OA
BRANCH  28  31
ATOM     31  C   UNL     1       5.806 -11.605  -6.100  0.00  0.00    +0.003 A 
ATOM     32  C   UNL     1       4.973 -12.720  -6.217  0.00  0.00    +0.013 A 
ATOM     33  C   UNL     1       5.503 -13.941  -6.575  0.00  0.00    +0.050 A 
ATOM     34  C   UNL     1       6.863 -14.068  -6.820  0.00  0.00    +0.166 A 
ATOM     35  C   UNL     1       7.700 -12.958  -6.704  0.00  0.00    +0.167 A 
ATOM     36  C   UNL     1       7.174 -11.730  -6.351  0.00  0.00    +0.059 A 
ATOM     37  O   UNL     1       8.977 -13.344  -6.993  0.00  0.00    -0.453 OA
ATOM     38  C   UNL     1       8.978 -14.780  -6.887  0.00  0.00    +0.466 C 
ATOM     39  O   UNL     1       7.617 -15.146  -7.182  0.00  0.00    -0.453 OA
ENDBRANCH  28  31
ENDBRANCH  25  26
ENDBRANCH   1  25
TORSDOF 14
