REMARK  Name = ZINC23906318
REMARK  9 active torsions:
REMARK  status: ('A' for Active; 'I' for Inactive)
REMARK    1  A    between atoms: C_1  and  C_2
REMARK    2  A    between atoms: N_11  and  C_12
REMARK    3  A    between atoms: C_12  and  C_13
REMARK    4  A    between atoms: C_13  and  N_14
REMARK    5  A    between atoms: N_14  and  C_15
REMARK    6  A    between atoms: N_14  and  C_16
REMARK    7  A    between atoms: C_17  and  C_19
REMARK    8  A    between atoms: N_24  and  S_25
REMARK    9  A    between atoms: S_25  and  C_28
REMARK                            x       y       z     vdW  Elec       q    Type
REMARK                         _______ _______ _______ _____ _____    ______ ____
ROOT
ATOM      1  C   UNL     1      -1.963   8.397   0.230  0.00  0.00    +0.046 C 
ATOM      2  C   UNL     1      -3.115   7.441   0.058  0.00  0.00    -0.024 A 
ATOM      3  C   UNL     1      -4.314   7.904  -0.417  0.00  0.00    +0.007 A 
ATOM      4  C   UNL     1      -5.400   7.058  -0.591  0.00  0.00    +0.021 A 
ATOM      5  C   UNL     1      -5.270   5.716  -0.279  0.00  0.00    +0.057 A 
ATOM      6  C   UNL     1      -4.072   5.244   0.197  0.00  0.00    +0.059 A 
ATOM      7  C   UNL     1      -2.945   6.076   0.387  0.00  0.00    +0.085 A 
ATOM      8  N   UNL     1      -1.841   5.465   0.867  0.00  0.00    -0.224 NA
ATOM      9  C   UNL     1      -1.804   4.180   1.133  0.00  0.00    +0.168 A 
ATOM     10  S   UNL     1      -3.461   3.657   0.712  0.00  0.00    -0.050 S 
ATOM     11  N   UNL     1      -0.752   3.423   1.621  0.00  0.00    -0.251 N 
ATOM     12  C   UNL     1       0.435   4.007   1.881  0.00  0.00    +0.240 C 
ATOM     13  O   UNL     1       0.557   5.208   1.766  0.00  0.00    -0.273 OA
ATOM     14 CL   UNL     1      -6.614   4.636  -0.488  0.00  0.00    -0.082 Cl
ENDROOT
BRANCH  12  15
ATOM     15  C   UNL     1       1.609   3.168   2.314  0.00  0.00    +0.166 C 
ATOM     16  C   UNL     1       2.126   2.334   1.123  0.00  0.00    +0.031 C 
ATOM     17  C   UNL     1       3.665   2.372   1.314  0.00  0.00    +0.019 C 
ATOM     18  C   UNL     1       3.873   3.802   1.874  0.00  0.00    +0.110 C 
ATOM     19  N   UNL     1       2.710   4.037   2.753  0.00  0.00    -0.164 NA
BRANCH  19  20
ATOM     20  S   UNL     1       2.652   5.102   4.020  0.00  0.00    +0.068 S 
ATOM     21  O   UNL     1       3.641   6.091   3.765  0.00  0.00    -0.152 OA
ATOM     22  O   UNL     1       1.283   5.426   4.216  0.00  0.00    -0.152 OA
BRANCH  20  23
ATOM     23  C   UNL     1       3.174   4.229   5.459  0.00  0.00    +0.143 A 
ATOM     24  C   UNL     1       4.424   4.082   5.962  0.00  0.00    +0.036 A 
ATOM     25  C   UNL     1       4.598   3.347   7.120  0.00  0.00    +0.010 A 
ATOM     26  C   UNL     1       3.515   2.786   7.712  0.00  0.00    +0.047 A 
ATOM     27  S   UNL     1       2.194   3.301   6.628  0.00  0.00    -0.077 S 
ENDBRANCH  20  23
ENDBRANCH  19  20
ENDBRANCH  12  15
BRANCH  11  28
ATOM     28  C   UNL     1      -0.928   1.987   1.855  0.00  0.00    +0.097 C 
BRANCH  28  29
ATOM     29  C   UNL     1      -0.664   1.223   0.556  0.00  0.00    -0.060 C 
BRANCH  29  30
ATOM     30  N   UNL     1      -0.710  -0.222   0.820  0.00  0.00    +0.377 N 
ATOM     31  C   UNL     1      -2.064  -0.643   1.205  0.00  0.00    -0.097 C 
ATOM     32  C   UNL     1      -0.231  -0.984  -0.340  0.00  0.00    -0.097 C 
ATOM     33  H   UNL     1      -0.038  -0.432   1.665  0.00  0.00    -0.083 HD
ENDBRANCH  29  30
ENDBRANCH  28  29
ENDBRANCH  11  28
TORSDOF 6
