REMARK  Name = ZINC19991714
REMARK  6 active torsions:
REMARK  status: ('A' for Active; 'I' for Inactive)
REMARK    1  A    between atoms: C_1  and  C_2
REMARK    2  A    between atoms: C_2  and  O_3
REMARK    3  A    between atoms: O_3  and  C_4
REMARK    4  A    between atoms: C_12  and  S_14
REMARK    5  A    between atoms: S_14  and  C_15
REMARK    6  A    between atoms: C_20  and  N_21
REMARK                            x       y       z     vdW  Elec       q    Type
REMARK                         _______ _______ _______ _____ _____    ______ ____
ROOT
ATOM      1  C   UNL     1       0.187   1.594   2.398  0.00  0.00    +0.123 A 
ATOM      2  C   UNL     1       1.187   0.626   2.426  0.00  0.00    +0.048 A 
ATOM      3  C   UNL     1       1.615   0.101   3.624  0.00  0.00    +0.033 A 
ATOM      4  C   UNL     1       1.044   0.541   4.821  0.00  0.00    +0.090 A 
ATOM      5  C   UNL     1       0.036   1.518   4.789  0.00  0.00    +0.070 A 
ATOM      6  C   UNL     1      -0.383   2.043   3.576  0.00  0.00    +0.073 A 
ATOM      7  N   UNL     1      -0.325   1.744   6.107  0.00  0.00    -0.333 N 
ATOM      8  H   UNL     1      -1.108   2.478   6.345  0.00  0.00    +0.168 HD
ATOM      9  C   UNL     1       0.447   0.925   6.884  0.00  0.00    +0.172 A 
ATOM     10  N   UNL     1       1.250   0.220   6.126  0.00  0.00    -0.222 NA
ENDROOT
BRANCH   1  11
ATOM     11  O   UNL     1      -0.226   2.105   1.208  0.00  0.00    -0.492 OA
BRANCH  11  13
ATOM     12  C   UNL     1      -0.184   2.290  -1.202  0.00  0.00    +0.048 C 
ATOM     13  C   UNL     1       0.408   1.602   0.030  0.00  0.00    +0.225 C 
ENDBRANCH  11  13
ENDBRANCH   1  11
BRANCH   9  14
ATOM     14  S   UNL     1       0.373   0.832   8.642  0.00  0.00    -0.050 S 
BRANCH  14  15
ATOM     15  C   UNL     1       1.712  -0.272   8.947  0.00  0.00    +0.036 A 
ATOM     16  C   UNL     1       1.461  -1.596   9.274  0.00  0.00    +0.018 A 
ATOM     17  C   UNL     1       2.513  -2.462   9.507  0.00  0.00    +0.016 A 
ATOM     18  C   UNL     1       3.818  -2.009   9.426  0.00  0.00    +0.020 A 
ATOM     19  C   UNL     1       4.077  -0.688   9.107  0.00  0.00    +0.039 A 
ATOM     20  C   UNL     1       3.028   0.185   8.866  0.00  0.00    +0.040 A 
ATOM     21 BR   UNL     1       5.251  -3.198   9.755  0.00  0.00    -0.050 Br
BRANCH  20  22
ATOM     22  N   UNL     1       3.288   1.522   8.541  0.00  0.00    -0.357 N 
ATOM     23  H   UNL     1       4.326   1.881   8.478  0.00  0.00    +0.142 HD
ATOM     24  H   UNL     1       2.454   2.213   8.350  0.00  0.00    +0.142 HD
ENDBRANCH  20  22
ENDBRANCH  14  15
ENDBRANCH   9  14
TORSDOF 5
