REMARK  Name = ZINC61564460
REMARK  7 active torsions:
REMARK  status: ('A' for Active; 'I' for Inactive)
REMARK    1  A    between atoms: C_1  and  C_2
REMARK    2  A    between atoms: C_2  and  C_3
REMARK    3  A    between atoms: C_2  and  C_4
REMARK    4  A    between atoms: C_2  and  N_18
REMARK    5  A    between atoms: N_6  and  C_7
REMARK    6  A    between atoms: C_12  and  C_13
REMARK    7  A    between atoms: N_18  and  C_19
REMARK                            x       y       z     vdW  Elec       q    Type
REMARK                         _______ _______ _______ _____ _____    ______ ____
ROOT
ATOM      1  C   UNL     1      -1.412  -0.523   0.012  0.00  0.00    +0.206 C 
ATOM      2  O   UNL     1      -1.944  -0.811   1.063  0.00  0.00    -0.277 OA
ATOM      3  N   UNL     1      -2.090  -0.659  -1.146  0.00  0.00    -0.286 N 
ATOM      4  H   UNL     1      -1.694  -0.354  -1.977  0.00  0.00    +0.155 HD
ENDROOT
BRANCH   3   5
ATOM      5  C   UNL     1      -3.357  -1.237  -1.147  0.00  0.00    +0.050 A 
ATOM      6  C   UNL     1      -3.720  -2.121  -0.142  0.00  0.00    +0.065 A 
ATOM      7  C   UNL     1      -4.979  -2.694  -0.145  0.00  0.00    +0.160 A 
ATOM      8  C   UNL     1      -5.888  -2.389  -1.153  0.00  0.00    +0.159 A 
ATOM      9  C   UNL     1      -5.543  -1.513  -2.158  0.00  0.00    +0.058 A 
ATOM     10  C   UNL     1      -4.274  -0.922  -2.164  0.00  0.00    +0.087 A 
ATOM     11  F   UNL     1      -7.115  -2.955  -1.146  0.00  0.00    -0.202 F 
ATOM     12  F   UNL     1      -5.327  -3.554   0.836  0.00  0.00    -0.202 F 
BRANCH  10  13
ATOM     13  C   UNL     1      -3.901   0.018  -3.231  0.00  0.00    +0.388 C 
ATOM     14  O   UNL     1      -4.731   0.360  -4.062  0.00  0.00    -0.241 OA
ATOM     15  O   UNL     1      -2.761   0.459  -3.287  0.00  0.00    -0.241 OA
ENDBRANCH  10  13
ENDBRANCH   3   5
BRANCH   1  17
ATOM     16  C   UNL     1      -0.001   1.515  -0.005  0.00  0.00    -0.001 C 
ATOM     17  C   UNL     1       0.006  -0.015  -0.000  0.00  0.00    +0.004 C 
ATOM     18  C   UNL     1       0.739  -0.518   1.245  0.00  0.00    -0.001 C 
BRANCH  17  19
ATOM     19  N   UNL     1       0.692  -0.505  -1.203  0.00  0.00    +0.386 N 
ATOM     20  C   UNL     1       2.075  -0.009  -1.215  0.00  0.00    -0.099 C 
ATOM     21  H   UNL     1       0.697  -1.514  -1.200  0.00  0.00    -0.085 HD
ATOM     22  H   UNL     1       0.209  -0.174  -2.025  0.00  0.00    -0.085 HD
ENDBRANCH  17  19
ENDBRANCH   1  17
TORSDOF 4
