REMARK  Name = ZINC39280318
REMARK  7 active torsions:
REMARK  status: ('A' for Active; 'I' for Inactive)
REMARK    1  A    between atoms: C_4  and  C_7
REMARK    2  A    between atoms: C_11  and  C_13
REMARK    3  A    between atoms: N_14  and  N_15
REMARK    4  A    between atoms: C_16  and  C_18
REMARK    5  A    between atoms: C_18  and  S_19
REMARK    6  A    between atoms: S_19  and  C_20
REMARK    7  A    between atoms: N_25  and  C_26
REMARK                            x       y       z     vdW  Elec       q    Type
REMARK                         _______ _______ _______ _____ _____    ______ ____
ROOT
ATOM      1  C   UNL     1       0.312  -5.827   3.387  0.00  0.00    +0.169 C 
ENDROOT
BRANCH   1   3
ATOM      2  N   UNL     1       1.863  -4.272   2.249  0.00  0.00    -0.207 N 
ATOM      3  C   UNL     1       0.891  -5.200   2.145  0.00  0.00    +0.242 C 
ATOM      4  O   UNL     1       0.483  -5.531   1.052  0.00  0.00    -0.273 OA
ATOM      5  H   UNL     1       2.189  -4.007   3.124  0.00  0.00    +0.177 HD
BRANCH   2   7
ATOM      6  C   UNL     1       3.324  -2.807   1.194  0.00  0.00    +0.118 C 
ATOM      7  N   UNL     1       2.401  -3.689   1.095  0.00  0.00    -0.192 NA
BRANCH   6  12
ATOM      8  C   UNL     1       3.691  -0.680  -0.038  0.00  0.00    +0.084 C 
ATOM      9  N   UNL     1       4.884  -0.152  -0.042  0.00  0.00    -0.153 NA
ATOM     10  N   UNL     1       5.886  -1.118  -0.059  0.00  0.00    -0.161 NA
ATOM     11  C   UNL     1       5.413  -2.321  -0.067  0.00  0.00    +0.123 C 
ATOM     12  C   UNL     1       3.904  -2.181  -0.048  0.00  0.00    +0.125 C 
BRANCH   8  16
ATOM     13  C   UNL     1      -0.017   1.380   0.010  0.00  0.00    +0.000 A 
ATOM     14  C   UNL     1       1.168   2.095   0.002  0.00  0.00    +0.001 A 
ATOM     15  C   UNL     1       2.377   1.433  -0.013  0.00  0.00    +0.010 A 
ATOM     16  C   UNL     1       2.405   0.035  -0.021  0.00  0.00    -0.001 A 
ATOM     17  C   UNL     1       1.203  -0.681  -0.013  0.00  0.00    +0.010 A 
ATOM     18  C   UNL     1       0.002  -0.004   0.002  0.00  0.00    +0.001 A 
ENDBRANCH   8  16
ENDBRANCH   6  12
ENDBRANCH   2   7
ENDBRANCH   1   3
BRANCH   1  19
ATOM     19  S   UNL     1      -0.965  -7.028   2.920  0.00  0.00    -0.114 S 
BRANCH  19  20
ATOM     20  C   UNL     1      -1.553  -7.683   4.505  0.00  0.00    +0.203 C 
ATOM     21  N   UNL     1      -0.424  -8.271   5.268  0.00  0.00    -0.320 NA
ATOM     22  N   UNL     1      -0.051  -7.180   6.186  0.00  0.00    +0.411 N 
ATOM     23  N   UNL     1      -1.348  -6.570   6.510  0.00  0.00    -0.265 NA
ATOM     24  N   UNL     1      -2.078  -6.591   5.343  0.00  0.00    -0.254 N 
ATOM     25  H   UNL     1      -0.720  -9.088   5.779  0.00  0.00    +0.106 HD
ATOM     26  H   UNL     1       0.389  -7.547   7.016  0.00  0.00    -0.031 HD
ATOM     27  H   UNL     1      -1.818  -7.085   7.239  0.00  0.00    +0.125 HD
ATOM     28  H   UNL     1       0.551  -6.515   5.724  0.00  0.00    -0.031 HD
BRANCH  24  29
ATOM     29  C   UNL     1      -3.128  -5.731   5.011  0.00  0.00    +0.045 A 
ATOM     30  C   UNL     1      -3.784  -5.870   3.795  0.00  0.00    +0.026 A 
ATOM     31  C   UNL     1      -4.822  -5.019   3.470  0.00  0.00    +0.022 A 
ATOM     32  C   UNL     1      -5.209  -4.029   4.355  0.00  0.00    +0.041 A 
ATOM     33  C   UNL     1      -4.558  -3.888   5.568  0.00  0.00    +0.022 A 
ATOM     34  C   UNL     1      -3.522  -4.740   5.900  0.00  0.00    +0.026 A 
ATOM     35 CL   UNL     1      -6.513  -2.960   3.942  0.00  0.00    -0.084 Cl
ENDBRANCH  24  29
ENDBRANCH  19  20
ENDBRANCH   1  19
TORSDOF 7
