REMARK  Name = ZINC01137126
REMARK  3 active torsions:
REMARK  status: ('A' for Active; 'I' for Inactive)
REMARK    1  A    between atoms: C_3  and  N_25
REMARK    2  A    between atoms: C_4  and  N_10
REMARK    3  A    between atoms: C_6  and  C_7
REMARK                            x       y       z     vdW  Elec       q    Type
REMARK                         _______ _______ _______ _____ _____    ______ ____
ROOT
ATOM      1  C   UNL     1       0.041  -2.786  -0.035  0.00  0.00    +0.015 A 
ATOM      2  C   UNL     1       0.019  -2.087  -1.221  0.00  0.00    +0.026 A 
ATOM      3  C   UNL     1       0.000  -0.697  -1.212  0.00  0.00    +0.052 A 
ATOM      4  C   UNL     1       0.002  -0.004   0.002  0.00  0.00    +0.066 A 
ATOM      5  C   UNL     1       0.029  -0.702   1.194  0.00  0.00    +0.039 A 
ATOM      6  C   UNL     1       0.042  -2.099   1.182  0.00  0.00    +0.038 A 
ENDROOT
BRANCH   4   7
ATOM      7  N   UNL     1      -0.017   1.400   0.010  0.00  0.00    -0.200 N 
ATOM      8  C   UNL     1      -1.137   2.145   0.019  0.00  0.00    +0.260 C 
ATOM      9  O   UNL     1      -2.273   1.718   0.021  0.00  0.00    -0.269 OA
ATOM     10  C   UNL     1      -0.752   3.571   0.028  0.00  0.00    +0.071 A 
ATOM     11  C   UNL     1       0.659   3.590   0.015  0.00  0.00    +0.071 A 
ATOM     12  C   UNL     1       1.333   4.802   0.015  0.00  0.00    +0.074 A 
ATOM     13  C   UNL     1       0.612   5.990   0.028  0.00  0.00    +0.080 A 
ATOM     14  C   UNL     1      -0.770   5.972   0.042  0.00  0.00    +0.080 A 
ATOM     15  C   UNL     1      -1.458   4.764   0.042  0.00  0.00    +0.074 A 
ATOM     16 CL   UNL     1      -3.194   4.749   0.060  0.00  0.00    -0.081 Cl
ATOM     17 CL   UNL     1      -1.653   7.466   0.060  0.00  0.00    -0.080 Cl
ATOM     18 CL   UNL     1       1.454   7.509   0.029  0.00  0.00    -0.080 Cl
ATOM     19 CL   UNL     1       3.068   4.835  -0.001  0.00  0.00    -0.081 Cl
ATOM     20  C   UNL     1       1.082   2.176   0.003  0.00  0.00    +0.260 C 
ATOM     21  O   UNL     1       2.230   1.779  -0.010  0.00  0.00    -0.269 OA
ENDBRANCH   4   7
BRANCH   3  22
ATOM     22  N   UNL     1      -0.021   0.006  -2.413  0.00  0.00    -0.328 N 
ATOM     23  C   UNL     1      -1.259  -0.260  -3.157  0.00  0.00    +0.105 C 
ATOM     24  C   UNL     1      -1.314   0.637  -4.396  0.00  0.00    +0.019 C 
ATOM     25  C   UNL     1      -0.095   0.354  -5.279  0.00  0.00    +0.003 C 
ATOM     26  C   UNL     1       1.181   0.592  -4.466  0.00  0.00    +0.019 C 
ATOM     27  C   UNL     1       1.163  -0.303  -3.225  0.00  0.00    +0.105 C 
ENDBRANCH   3  22
BRANCH   6  28
ATOM     28  C   UNL     1       0.065  -2.849   2.453  0.00  0.00    +0.242 C 
ATOM     29  O   UNL     1       0.066  -2.250   3.512  0.00  0.00    -0.270 OA
ATOM     30  N   UNL     1       0.083  -4.196   2.441  0.00  0.00    -0.325 N 
ATOM     31  H   UNL     1       0.082  -4.673   1.596  0.00  0.00    +0.145 HD
ATOM     32  H   UNL     1       0.098  -4.689   3.276  0.00  0.00    +0.145 HD
ENDBRANCH   6  28
TORSDOF 3
