REMARK  Name = ZINC01834218
REMARK  8 active torsions:
REMARK  status: ('A' for Active; 'I' for Inactive)
REMARK    1  A    between atoms: C_2  and  C_3
REMARK    2  A    between atoms: C_2  and  N_9
REMARK    3  A    between atoms: N_9  and  O_10
REMARK    4  A    between atoms: O_10  and  C_11
REMARK    5  A    between atoms: C_11  and  C_12
REMARK    6  A    between atoms: N_22  and  N_23
REMARK    7  A    between atoms: C_24  and  C_25
REMARK    8  A    between atoms: C_30  and  C_31
REMARK                            x       y       z     vdW  Elec       q    Type
REMARK                         _______ _______ _______ _____ _____    ______ ____
ROOT
ATOM      1  C   UNL     1       3.896  -0.077  -1.115  0.00  0.00    +0.163 A 
ATOM      2  N   UNL     1       3.504   1.162  -1.120  0.00  0.00    -0.229 NA
ATOM      3  C   UNL     1       4.355   2.177  -0.832  0.00  0.00    +0.078 A 
ATOM      4  C   UNL     1       3.936   3.510  -0.836  0.00  0.00    +0.028 A 
ATOM      5  C   UNL     1       4.838   4.506  -0.537  0.00  0.00    +0.002 A 
ATOM      6  C   UNL     1       6.159   4.202  -0.232  0.00  0.00    +0.001 A 
ATOM      7  C   UNL     1       6.593   2.905  -0.222  0.00  0.00    +0.015 A 
ATOM      8  C   UNL     1       5.701   1.877  -0.520  0.00  0.00    +0.067 A 
ATOM      9  C   UNL     1       6.112   0.467  -0.524  0.00  0.00    +0.282 A 
ATOM     10  O   UNL     1       7.256   0.141  -0.264  0.00  0.00    -0.265 OA
ATOM     11  N   UNL     1       5.169  -0.457  -0.822  0.00  0.00    -0.179 N 
ENDROOT
BRANCH  11  12
ATOM     12  N   UNL     1       5.507  -1.816  -0.833  0.00  0.00    -0.170 NA
ATOM     13  C   UNL     1       6.333  -2.272  -1.726  0.00  0.00    +0.145 C 
BRANCH  13  14
ATOM     14  C   UNL     1       6.618  -3.715  -1.797  0.00  0.00    +0.040 A 
ATOM     15  C   UNL     1       7.383  -4.360  -2.745  0.00  0.00    +0.115 A 
ATOM     16  N   UNL     1       7.391  -5.672  -2.447  0.00  0.00    -0.284 N 
ATOM     17  H   UNL     1       7.855  -6.358  -2.953  0.00  0.00    +0.188 HD
ATOM     18  N   UNL     1       6.628  -5.896  -1.297  0.00  0.00    -0.173 NA
ATOM     19  C   UNL     1       6.150  -4.749  -0.869  0.00  0.00    +0.101 A 
BRANCH  19  20
ATOM     20  C   UNL     1       5.295  -4.540   0.324  0.00  0.00    +0.003 A 
ATOM     21  C   UNL     1       5.535  -3.464   1.177  0.00  0.00    +0.011 A 
ATOM     22  C   UNL     1       4.737  -3.275   2.286  0.00  0.00    +0.016 A 
ATOM     23  C   UNL     1       3.699  -4.151   2.553  0.00  0.00    +0.018 A 
ATOM     24  C   UNL     1       3.457  -5.221   1.709  0.00  0.00    +0.016 A 
ATOM     25  C   UNL     1       4.245  -5.416   0.594  0.00  0.00    +0.011 A 
ATOM     26 BR   UNL     1       2.608  -3.885   4.075  0.00  0.00    -0.050 Br
ENDBRANCH  19  20
ENDBRANCH  13  14
ENDBRANCH  11  12
BRANCH   1  27
ATOM     27  C   UNL     1       2.888  -1.148  -1.444  0.00  0.00    +0.268 C 
BRANCH  27  28
ATOM     28  O   UNL     1       1.654  -0.538  -1.826  0.00  0.00    -0.266 OA
BRANCH  28  29
ATOM     29  N   UNL     1       0.669  -1.457  -2.264  0.00  0.00    -0.265 N 
ATOM     30  H   UNL     1       0.839  -2.410  -2.215  0.00  0.00    +0.194 HD
BRANCH  29  32
ATOM     31  C   UNL     1      -0.742   0.319  -2.928  0.00  0.00    +0.038 C 
ATOM     32  C   UNL     1      -0.547  -0.990  -2.765  0.00  0.00    +0.061 C 
BRANCH  32  33
ATOM     33  C   UNL     1      -1.620  -1.948  -3.117  0.00  0.00    -0.000 A 
ATOM     34  C   UNL     1      -1.376  -3.321  -3.071  0.00  0.00    +0.010 A 
ATOM     35  C   UNL     1      -2.379  -4.209  -3.399  0.00  0.00    +0.001 A 
ATOM     36  C   UNL     1      -3.626  -3.740  -3.774  0.00  0.00    +0.000 A 
ATOM     37  C   UNL     1      -3.874  -2.380  -3.822  0.00  0.00    +0.001 A 
ATOM     38  C   UNL     1      -2.880  -1.482  -3.490  0.00  0.00    +0.010 A 
ENDBRANCH  32  33
ENDBRANCH  29  32
ENDBRANCH  28  29
ENDBRANCH  27  28
ENDBRANCH   1  27
TORSDOF 8
