REMARK  Name = ZINC61563964
REMARK  4 active torsions:
REMARK  status: ('A' for Active; 'I' for Inactive)
REMARK    1  A    between atoms: C_1  and  C_2
REMARK    2  A    between atoms: C_2  and  C_3
REMARK    3  A    between atoms: C_5  and  C_8
REMARK    4  A    between atoms: C_13  and  N_14
REMARK                            x       y       z     vdW  Elec       q    Type
REMARK                         _______ _______ _______ _____ _____    ______ ____
ROOT
ATOM      1  C   UNL     1      -4.349  -1.867   1.677  0.00  0.00    +0.063 A 
ATOM      2  C   UNL     1      -4.115  -1.890   3.054  0.00  0.00    +0.056 A 
ATOM      3  C   UNL     1      -5.171  -2.034   3.929  0.00  0.00    +0.159 A 
ATOM      4  C   UNL     1      -6.469  -2.155   3.447  0.00  0.00    +0.160 A 
ATOM      5  C   UNL     1      -6.713  -2.133   2.086  0.00  0.00    +0.064 A 
ATOM      6  C   UNL     1      -5.661  -1.983   1.193  0.00  0.00    +0.040 A 
ATOM      7  F   UNL     1      -7.497  -2.295   4.312  0.00  0.00    -0.202 F 
ATOM      8  F   UNL     1      -4.943  -2.057   5.261  0.00  0.00    -0.202 F 
ENDROOT
BRANCH   1  11
ATOM      9  C   UNL     1      -1.403  -0.979  -0.190  0.00  0.00    +0.172 A 
ATOM     10  N   UNL     1      -2.249  -0.835   0.833  0.00  0.00    -0.192 NA
ATOM     11  C   UNL     1      -3.224  -1.714   0.736  0.00  0.00    +0.260 A 
ATOM     12  O   UNL     1      -3.013  -2.448  -0.371  0.00  0.00    -0.333 OA
ATOM     13  N   UNL     1      -1.822  -1.945  -0.958  0.00  0.00    -0.061 NA
BRANCH   9  15
ATOM     14  C   UNL     1      -0.520   1.072  -1.267  0.00  0.00    +0.012 C 
ATOM     15  C   UNL     1      -0.165  -0.153  -0.422  0.00  0.00    +0.076 C 
ENDBRANCH   9  15
ENDBRANCH   1  11
BRANCH   6  16
ATOM     16  N   UNL     1      -5.906  -1.955  -0.177  0.00  0.00    -0.357 N 
ATOM     17  H   UNL     1      -5.184  -1.763  -0.795  0.00  0.00    +0.142 HD
ATOM     18  H   UNL     1      -6.799  -2.127  -0.514  0.00  0.00    +0.142 HD
ENDBRANCH   6  16
TORSDOF 3
