REMARK  Name = ZINC59934943
REMARK  10 active torsions:
REMARK  status: ('A' for Active; 'I' for Inactive)
REMARK    1  A    between atoms: C_1  and  C_2
REMARK    2  A    between atoms: N_7  and  C_8
REMARK    3  A    between atoms: C_8  and  C_9
REMARK    4  A    between atoms: C_13  and  C_15
REMARK    5  A    between atoms: C_18  and  S_20
REMARK    6  A    between atoms: S_20  and  N_23
REMARK    7  A    between atoms: N_23  and  C_24
REMARK    8  A    between atoms: C_24  and  C_25
REMARK    9  A    between atoms: C_24  and  C_26
REMARK   10  A    between atoms: C_24  and  C_27
REMARK                            x       y       z     vdW  Elec       q    Type
REMARK                         _______ _______ _______ _____ _____    ______ ____
ROOT
ATOM      1  C   UNL     1      -0.284   1.946   0.896  0.00  0.00    +0.066 C 
ATOM      2  C   UNL     1      -0.096   0.487   0.571  0.00  0.00    +0.047 A 
ATOM      3  C   UNL     1       0.075   0.063  -0.706  0.00  0.00    +0.071 A 
ATOM      4  S   UNL     1       0.239  -1.697  -0.452  0.00  0.00    -0.060 S 
ATOM      5  C   UNL     1       0.075  -1.707   1.223  0.00  0.00    +0.168 A 
ATOM      6  N   UNL     1      -0.085  -0.434   1.516  0.00  0.00    -0.230 NA
ATOM      7  N   UNL     1       0.107  -2.794   2.087  0.00  0.00    -0.235 N 
ATOM      8  C   UNL     1      -0.044  -2.606   3.413  0.00  0.00    +0.288 C 
ATOM      9  O   UNL     1      -0.306  -1.498   3.844  0.00  0.00    -0.266 OA
ENDROOT
BRANCH   8  10
ATOM     10  C   UNL     1       0.109  -3.735   4.335  0.00  0.00    +0.192 A 
ATOM     11  C   UNL     1      -0.118  -3.707   5.682  0.00  0.00    +0.057 A 
ATOM     12  C   UNL     1       0.149  -4.998   6.163  0.00  0.00    +0.072 A 
ATOM     13  C   UNL     1       0.523  -5.748   5.102  0.00  0.00    +0.258 A 
ATOM     14  O   UNL     1       0.492  -4.985   4.002  0.00  0.00    -0.432 OA
BRANCH  13  15
ATOM     15  S   UNL     1       0.970  -7.452   5.157  0.00  0.00    +0.092 S 
ATOM     16  O   UNL     1       1.645  -7.734   3.938  0.00  0.00    -0.150 OA
ATOM     17  O   UNL     1       1.567  -7.674   6.427  0.00  0.00    -0.150 OA
BRANCH  15  18
ATOM     18  N   UNL     1      -0.435  -8.328   5.134  0.00  0.00    -0.182 NA
ATOM     19  H   UNL     1      -0.701  -8.837   5.915  0.00  0.00    +0.149 HD
BRANCH  18  20
ATOM     20  C   UNL     1      -1.275  -8.334   3.934  0.00  0.00    +0.032 C 
ATOM     21  C   UNL     1      -0.537  -9.045   2.799  0.00  0.00    +0.029 C 
ATOM     22  C   UNL     1      -2.584  -9.068   4.232  0.00  0.00    +0.029 C 
ATOM     23  C   UNL     1      -1.582  -6.893   3.520  0.00  0.00    +0.029 C 
ENDBRANCH  18  20
ENDBRANCH  15  18
ENDBRANCH  13  15
ENDBRANCH   8  10
BRANCH   7  24
ATOM     24  C   UNL     1       0.304  -4.145   1.557  0.00  0.00    +0.229 C 
BRANCH  24  25
ATOM     25  C   UNL     1       1.803  -4.433   1.439  0.00  0.00    +0.406 C 
ATOM     26  F   UNL     1       2.397  -4.336   2.702  0.00  0.00    -0.169 F 
ATOM     27  F   UNL     1       1.991  -5.724   0.932  0.00  0.00    -0.169 F 
ATOM     28  F   UNL     1       2.390  -3.503   0.575  0.00  0.00    -0.169 F 
ENDBRANCH  24  25
ENDBRANCH   7  24
TORSDOF 6
