REMARK  Name = ZINC21256105
REMARK  6 active torsions:
REMARK  status: ('A' for Active; 'I' for Inactive)
REMARK    1  A    between atoms: C_1  and  O_2
REMARK    2  A    between atoms: O_2  and  C_3
REMARK    3  A    between atoms: C_6  and  C_11
REMARK    4  A    between atoms: C_8  and  O_9
REMARK    5  A    between atoms: O_9  and  C_10
REMARK    6  A    between atoms: C_22  and  C_25
REMARK                            x       y       z     vdW  Elec       q    Type
REMARK                         _______ _______ _______ _____ _____    ______ ____
ROOT
ATOM      1  C   UNL     1      -2.559   3.864   0.047  0.00  0.00    +0.063 C 
ATOM      2  C   UNL     1      -3.343   3.474   1.301  0.00  0.00    +0.109 C 
ATOM      3  C   UNL     1      -3.835   2.057   1.155  0.00  0.00    +0.218 C 
ATOM      4  O   UNL     1      -3.917   1.341   2.130  0.00  0.00    -0.275 OA
ATOM      5  N   UNL     1      -4.184   1.585  -0.054  0.00  0.00    -0.289 N 
ATOM      6  C   UNL     1      -4.126   2.381  -1.170  0.00  0.00    +0.018 C 
ATOM      7  C   UNL     1      -3.357   3.490  -1.180  0.00  0.00    +0.020 C 
ATOM      8  C   UNL     1      -3.277   4.314  -2.314  0.00  0.00    +0.162 C 
ATOM      9  O   UNL     1      -2.582   5.311  -2.282  0.00  0.00    -0.292 OA
ATOM     10  C   UNL     1      -4.040   3.983  -3.570  0.00  0.00    +0.088 C 
ATOM     11  C   UNL     1      -4.230   2.465  -3.650  0.00  0.00    +0.032 C 
ATOM     12  C   UNL     1      -4.939   1.993  -2.380  0.00  0.00    +0.059 C 
ATOM     13  H   UNL     1      -4.523   0.544  -0.162  0.00  0.00    +0.155 HD
ENDROOT
BRANCH  11  14
ATOM     14  C   UNL     1      -5.068   2.123  -4.855  0.00  0.00    -0.042 A 
ATOM     15  C   UNL     1      -4.553   1.308  -5.846  0.00  0.00    +0.005 A 
ATOM     16  C   UNL     1      -5.320   0.994  -6.952  0.00  0.00    +0.022 A 
ATOM     17  C   UNL     1      -6.604   1.495  -7.067  0.00  0.00    +0.059 A 
ATOM     18  C   UNL     1      -7.120   2.312  -6.075  0.00  0.00    +0.060 A 
ATOM     19  C   UNL     1      -6.352   2.620  -4.966  0.00  0.00    +0.025 A 
ATOM     20 CL   UNL     1      -8.731   2.942  -6.219  0.00  0.00    -0.082 Cl
ATOM     21 CL   UNL     1      -7.569   1.101  -8.456  0.00  0.00    -0.082 Cl
ENDBRANCH  11  14
BRANCH   1  25
ATOM     22  C   UNL     1       1.178   1.785   0.000  0.00  0.00    +0.162 A 
ATOM     23  C   UNL     1      -0.013   1.076   0.008  0.00  0.00    +0.050 A 
ATOM     24  C   UNL     1      -1.219   1.751   0.017  0.00  0.00    +0.008 A 
ATOM     25  C   UNL     1      -1.241   3.133   0.031  0.00  0.00    -0.036 A 
ATOM     26  C   UNL     1      -0.057   3.846   0.023  0.00  0.00    +0.053 A 
ATOM     27  C   UNL     1       1.155   3.176   0.008  0.00  0.00    +0.162 A 
BRANCH  22  29
ATOM     28  C   UNL     1       2.312  -0.305  -0.023  0.00  0.00    +0.277 C 
ATOM     29  O   UNL     1       2.365   1.123  -0.015  0.00  0.00    -0.491 OA
ENDBRANCH  22  29
BRANCH  27  30
ATOM     30  O   UNL     1       2.321   3.877   0.001  0.00  0.00    -0.491 OA
ATOM     31  C   UNL     1       2.222   5.302   0.010  0.00  0.00    +0.277 C 
ENDBRANCH  27  30
ENDBRANCH   1  25
TORSDOF 4
