REMARK  Name = ZINC44710188
REMARK  6 active torsions:
REMARK  status: ('A' for Active; 'I' for Inactive)
REMARK    1  A    between atoms: C_1  and  C_2
REMARK    2  A    between atoms: C_4  and  S_10
REMARK    3  A    between atoms: C_5  and  O_9
REMARK    4  A    between atoms: S_10  and  C_11
REMARK    5  A    between atoms: C_13  and  C_19
REMARK    6  A    between atoms: C_16  and  O_17
REMARK                            x       y       z     vdW  Elec       q    Type
REMARK                         _______ _______ _______ _____ _____    ______ ____
ROOT
ATOM      1  S   UNL     1       0.029  -2.947  -2.740  0.00  0.00    -0.082 S 
ENDROOT
BRANCH   1   5
ATOM      2  C   UNL     1       2.450  -0.959   1.450  0.00  0.00    +0.044 C 
ATOM      3  C   UNL     1       1.167  -1.184   0.692  0.00  0.00    -0.048 A 
ATOM      4  C   UNL     1       1.187  -1.868  -0.509  0.00  0.00    +0.022 A 
ATOM      5  C   UNL     1       0.006  -2.076  -1.208  0.00  0.00    +0.056 A 
ATOM      6  C   UNL     1      -1.197  -1.594  -0.696  0.00  0.00    +0.149 A 
ATOM      7  C   UNL     1      -1.208  -0.910   0.508  0.00  0.00    +0.084 A 
ATOM      8  C   UNL     1      -0.027  -0.711   1.202  0.00  0.00    +0.027 A 
ATOM      9 CL   UNL     1      -2.704  -0.307   1.150  0.00  0.00    -0.080 Cl
BRANCH   6  10
ATOM     10  O   UNL     1      -2.357  -1.795  -1.377  0.00  0.00    -0.504 OA
ATOM     11  H   UNL     1      -2.814  -2.615  -1.143  0.00  0.00    +0.292 HD
ENDBRANCH   6  10
ENDBRANCH   1   5
BRANCH   1  12
ATOM     12  C   UNL     1      -0.144  -1.681  -3.953  0.00  0.00    +0.056 A 
ATOM     13  C   UNL     1      -0.140  -0.347  -3.571  0.00  0.00    +0.022 A 
ATOM     14  C   UNL     1      -0.275   0.645  -4.525  0.00  0.00    -0.048 A 
ATOM     15  C   UNL     1      -0.414   0.312  -5.859  0.00  0.00    +0.027 A 
ATOM     16  C   UNL     1      -0.420  -1.017  -6.248  0.00  0.00    +0.084 A 
ATOM     17  C   UNL     1      -0.279  -2.017  -5.299  0.00  0.00    +0.149 A 
ATOM     18 CL   UNL     1      -0.597  -1.430  -7.925  0.00  0.00    -0.080 Cl
ATOM     19  C   UNL     1      -0.270   2.093  -4.108  0.00  0.00    +0.044 C 
BRANCH  17  20
ATOM     20  O   UNL     1      -0.278  -3.323  -5.679  0.00  0.00    -0.504 OA
ATOM     21  H   UNL     1      -1.155  -3.729  -5.694  0.00  0.00    +0.292 HD
ENDBRANCH  17  20
ENDBRANCH   1  12
TORSDOF 4
