REMARK  Name = ZINC04745808
REMARK  3 active torsions:
REMARK  status: ('A' for Active; 'I' for Inactive)
REMARK    1  A    between atoms: C_1  and  C_2
REMARK    2  A    between atoms: C_2  and  C_22
REMARK    3  A    between atoms: C_6  and  C_12
REMARK                            x       y       z     vdW  Elec       q    Type
REMARK                         _______ _______ _______ _____ _____    ______ ____
ROOT
ATOM      1  C   UNL     1       0.774   1.407  -0.048  0.00  0.00    +0.011 C 
ATOM      2  C   UNL     1       0.573  -0.110  -0.046  0.00  0.00    -0.023 C 
ATOM      3  C   UNL     1      -0.920  -0.430   0.050  0.00  0.00    +0.058 C 
ATOM      4  C   UNL     1      -1.115  -1.925   0.101  0.00  0.00    +0.021 C 
ATOM      5  C   UNL     1      -0.174  -2.719   0.658  0.00  0.00    +0.037 C 
ATOM      6  C   UNL     1      -0.424  -4.213   0.687  0.00  0.00    +0.141 C 
ATOM      7  N   UNL     1      -1.686  -4.688   0.095  0.00  0.00    -0.288 N 
ATOM      8  C   UNL     1      -2.528  -3.775  -0.428  0.00  0.00    +0.304 C 
ATOM      9  O   UNL     1      -3.573  -4.155  -0.920  0.00  0.00    -0.252 OA
ATOM     10  N   UNL     1      -2.256  -2.466  -0.424  0.00  0.00    -0.273 N 
ATOM     11  C   UNL     1       1.009  -2.202   1.198  0.00  0.00    +0.163 C 
ATOM     12  O   UNL     1       1.820  -2.955   1.699  0.00  0.00    -0.292 OA
ATOM     13  C   UNL     1       1.288  -0.722   1.163  0.00  0.00    +0.086 C 
ATOM     14  C   UNL     1       1.146  -0.704  -1.334  0.00  0.00    +0.011 C 
ATOM     15  H   UNL     1      -1.905  -5.633   0.082  0.00  0.00    +0.151 HD
ATOM     16  H   UNL     1      -2.907  -1.864  -0.817  0.00  0.00    +0.156 HD
ENDROOT
BRANCH   6  17
ATOM     17  C   UNL     1      -0.387  -4.663   2.124  0.00  0.00    -0.004 A 
ATOM     18  C   UNL     1      -0.541  -3.740   3.142  0.00  0.00    +0.007 A 
ATOM     19  C   UNL     1      -0.507  -4.153   4.461  0.00  0.00    +0.000 A 
ATOM     20  C   UNL     1      -0.318  -5.489   4.763  0.00  0.00    +0.001 A 
ATOM     21  C   UNL     1      -0.163  -6.413   3.746  0.00  0.00    +0.020 A 
ATOM     22  C   UNL     1      -0.203  -6.001   2.426  0.00  0.00    +0.046 A 
ATOM     23 CL   UNL     1      -0.016  -7.161   1.148  0.00  0.00    -0.083 Cl
ENDBRANCH   6  17
TORSDOF 1
