REMARK  Name = ZINC47541309
REMARK  8 active torsions:
REMARK  status: ('A' for Active; 'I' for Inactive)
REMARK    1  A    between atoms: C_1  and  C_2
REMARK    2  A    between atoms: C_4  and  C_25
REMARK    3  A    between atoms: C_7  and  N_8
REMARK    4  A    between atoms: N_11  and  C_12
REMARK    5  A    between atoms: C_12  and  C_14
REMARK    6  A    between atoms: C_12  and  C_15
REMARK    7  A    between atoms: C_16  and  C_24
REMARK    8  A    between atoms: N_27  and  C_28
REMARK                            x       y       z     vdW  Elec       q    Type
REMARK                         _______ _______ _______ _____ _____    ______ ____
ROOT
ATOM      1  N   UNL     1       0.025  -0.012   2.413  0.00  0.00    -0.269 N 
ATOM      2  C   UNL     1      -0.057  -0.688   3.577  0.00  0.00    +0.304 C 
ATOM      3  O   UNL     1      -0.040  -1.903   3.576  0.00  0.00    -0.252 OA
ATOM      4  N   UNL     1      -0.156  -0.015   4.741  0.00  0.00    -0.290 N 
ATOM      5  H   UNL     1       0.078   0.956   2.417  0.00  0.00    +0.156 HD
ATOM      6  H   UNL     1      -0.169   0.955   4.741  0.00  0.00    +0.151 HD
ENDROOT
BRANCH   1  13
ATOM      7  C   UNL     1      -1.270   1.182   0.184  0.00  0.00    +0.045 C 
ATOM      8  C   UNL     1      -0.589  -0.159   0.086  0.00  0.00    -0.028 A 
ATOM      9  C   UNL     1      -0.579  -0.838  -1.111  0.00  0.00    +0.018 A 
ATOM     10  C   UNL     1       0.053  -2.082  -1.202  0.00  0.00    +0.037 A 
ATOM     11  C   UNL     1       0.672  -2.631  -0.075  0.00  0.00    +0.015 A 
ATOM     12  C   UNL     1       0.657  -1.946   1.119  0.00  0.00    +0.024 A 
ATOM     13  C   UNL     1       0.033  -0.706   1.204  0.00  0.00    +0.038 A 
BRANCH  10  14
ATOM     14  C   UNL     1       0.066  -2.813  -2.483  0.00  0.00    +0.244 C 
ATOM     15  O   UNL     1      -0.474  -2.334  -3.462  0.00  0.00    -0.270 OA
ATOM     16  N   UNL     1       0.675  -4.012  -2.569  0.00  0.00    -0.314 N 
ATOM     17  C   UNL     1       0.688  -4.738  -3.841  0.00  0.00    +0.128 C 
ATOM     18  H   UNL     1       1.105  -4.394  -1.788  0.00  0.00    +0.149 HD
ENDBRANCH  10  14
ENDBRANCH   1  13
BRANCH   4  19
ATOM     19  C   UNL     1      -0.245  -0.749   6.005  0.00  0.00    +0.138 C 
ATOM     20  C   UNL     1       1.163  -1.095   6.495  0.00  0.00    +0.036 C 
BRANCH  19  21
ATOM     21  C   UNL     1      -0.939   0.105   7.035  0.00  0.00    +0.129 A 
ATOM     22  C   UNL     1      -1.897  -0.324   7.867  0.00  0.00    +0.000 A 
ATOM     23  C   UNL     1      -2.277   0.835   8.685  0.00  0.00    +0.023 A 
ATOM     24  C   UNL     1      -3.197   1.044   9.711  0.00  0.00    +0.012 A 
ATOM     25  C   UNL     1      -3.308   2.283  10.279  0.00  0.00    +0.001 A 
ATOM     26  C   UNL     1      -2.512   3.331   9.840  0.00  0.00    +0.004 A 
ATOM     27  C   UNL     1      -1.597   3.143   8.826  0.00  0.00    +0.047 A 
ATOM     28  C   UNL     1      -1.468   1.892   8.236  0.00  0.00    +0.136 A 
ATOM     29  O   UNL     1      -0.682   1.406   7.254  0.00  0.00    -0.458 OA
ATOM     30  C   UNL     1      -2.469  -1.715   7.949  0.00  0.00    +0.048 C 
ENDBRANCH  19  21
ENDBRANCH   4  19
TORSDOF 4
