REMARK  Name = ZINC19821947
REMARK  4 active torsions:
REMARK  status: ('A' for Active; 'I' for Inactive)
REMARK    1  A    between atoms: N_9  and  C_11
REMARK    2  A    between atoms: C_11  and  C_12
REMARK    3  A    between atoms: C_13  and  C_18
REMARK    4  A    between atoms: C_14  and  N_17
REMARK                            x       y       z     vdW  Elec       q    Type
REMARK                         _______ _______ _______ _____ _____    ______ ____
ROOT
ATOM      1  C   UNL     1       1.359   1.734  -0.002  0.00  0.00    +0.107 A 
ATOM      2  C   UNL     1      -0.017   1.385   0.010  0.00  0.00    +0.067 A 
ATOM      3  C   UNL     1       0.002  -0.004   0.002  0.00  0.00    +0.223 A 
ATOM      4  O   UNL     1       1.298  -0.352  -0.012  0.00  0.00    -0.339 OA
ATOM      5  N   UNL     1       2.023   0.614  -0.014  0.00  0.00    -0.079 NA
ENDROOT
BRANCH   2   6
ATOM      6  C   UNL     1      -1.193   2.288   0.020  0.00  0.00    -0.011 A 
ATOM      7  C   UNL     1      -1.440   3.127  -1.065  0.00  0.00    +0.010 A 
ATOM      8  C   UNL     1      -2.539   3.962  -1.051  0.00  0.00    +0.020 A 
ATOM      9  C   UNL     1      -3.389   3.974   0.041  0.00  0.00    +0.041 A 
ATOM     10  C   UNL     1      -3.146   3.146   1.123  0.00  0.00    +0.020 A 
ATOM     11  C   UNL     1      -2.053   2.304   1.118  0.00  0.00    +0.010 A 
ATOM     12 CL   UNL     1      -4.766   5.032   0.054  0.00  0.00    -0.084 Cl
ENDBRANCH   2   6
BRANCH   3  13
ATOM     13  N   UNL     1      -1.087  -0.851   0.009  0.00  0.00    -0.327 N 
ATOM     14  H   UNL     1      -0.936  -1.940   0.001  0.00  0.00    +0.145 HD
ATOM     15  H   UNL     1      -2.105  -0.436   0.021  0.00  0.00    +0.145 HD
ENDBRANCH   3  13
BRANCH   1  16
ATOM     16  C   UNL     1       1.937   3.125  -0.000  0.00  0.00    +0.144 C 
BRANCH  16  25
ATOM     17  C   UNL     1       3.974   4.190   6.002  0.00  0.00    +0.000 A 
ATOM     18  C   UNL     1       4.357   2.917   5.621  0.00  0.00    +0.000 A 
ATOM     19  C   UNL     1       4.088   2.472   4.343  0.00  0.00    +0.005 A 
ATOM     20  C   UNL     1       3.434   3.295   3.437  0.00  0.00    -0.030 A 
ATOM     21  C   UNL     1       3.050   4.563   3.818  0.00  0.00    -0.042 A 
ATOM     22  C   UNL     1       3.323   5.010   5.102  0.00  0.00    +0.004 A 
ATOM     23  C   UNL     1       2.333   5.490   2.871  0.00  0.00    +0.051 C 
ATOM     24  C   UNL     1       2.497   4.997   1.433  0.00  0.00    +0.090 C 
ATOM     25  N   UNL     1       2.138   3.571   1.385  0.00  0.00    -0.292 NA
ATOM     26  C   UNL     1       3.166   2.766   2.052  0.00  0.00    +0.120 C 
ENDBRANCH  16  25
ENDBRANCH   1  16
TORSDOF 4
