REMARK  Name = ZINC40169476
REMARK  8 active torsions:
REMARK  status: ('A' for Active; 'I' for Inactive)
REMARK    1  A    between atoms: C_1  and  C_2
REMARK    2  A    between atoms: C_2  and  C_4
REMARK    3  A    between atoms: C_2  and  S_23
REMARK    4  A    between atoms: N_6  and  C_7
REMARK    5  A    between atoms: C_10  and  S_13
REMARK    6  A    between atoms: S_13  and  N_16
REMARK    7  A    between atoms: N_16  and  C_17
REMARK    8  A    between atoms: S_23  and  C_24
REMARK                            x       y       z     vdW  Elec       q    Type
REMARK                         _______ _______ _______ _____ _____    ______ ____
ROOT
ATOM      1  C   UNL     1       2.634  -0.658   0.024  0.00  0.00    +0.230 C 
ATOM      2  O   UNL     1       3.717  -1.191  -0.092  0.00  0.00    -0.274 OA
ATOM      3  N   UNL     1       2.079  -0.519   1.244  0.00  0.00    -0.285 N 
ATOM      4  H   UNL     1       1.245  -0.033   1.345  0.00  0.00    +0.155 HD
ENDROOT
BRANCH   3   5
ATOM      5  C   UNL     1       2.705  -1.074   2.365  0.00  0.00    +0.034 A 
ATOM      6  C   UNL     1       1.942  -1.600   3.400  0.00  0.00    +0.025 A 
ATOM      7  C   UNL     1       2.563  -2.147   4.505  0.00  0.00    +0.030 A 
ATOM      8  C   UNL     1       3.944  -2.173   4.582  0.00  0.00    +0.105 A 
ATOM      9  C   UNL     1       4.706  -1.650   3.554  0.00  0.00    +0.030 A 
ATOM     10  C   UNL     1       4.091  -1.107   2.443  0.00  0.00    +0.025 A 
BRANCH   8  11
ATOM     11  S   UNL     1       4.732  -2.873   5.994  0.00  0.00    +0.059 S 
ATOM     12  O   UNL     1       6.023  -2.283   6.071  0.00  0.00    -0.153 OA
ATOM     13  O   UNL     1       3.796  -2.800   7.060  0.00  0.00    -0.153 OA
BRANCH  11  14
ATOM     14  N   UNL     1       4.965  -4.481   5.677  0.00  0.00    -0.187 NA
ATOM     15  H   UNL     1       4.503  -5.151   6.206  0.00  0.00    +0.148 HD
BRANCH  14  16
ATOM     16  C   UNL     1       5.868  -4.893   4.600  0.00  0.00    +0.077 C 
ATOM     17  C   UNL     1       5.061  -5.133   3.322  0.00  0.00    +0.020 C 
ATOM     18  C   UNL     1       6.005  -5.563   2.197  0.00  0.00    +0.002 C 
ATOM     19  C   UNL     1       6.721  -6.854   2.597  0.00  0.00    +0.000 C 
ATOM     20  C   UNL     1       7.528  -6.614   3.875  0.00  0.00    +0.002 C 
ATOM     21  C   UNL     1       6.585  -6.184   5.000  0.00  0.00    +0.020 C 
ENDBRANCH  14  16
ENDBRANCH  11  14
ENDBRANCH   8  11
ENDBRANCH   3   5
BRANCH   1  23
ATOM     22  C   UNL     1       0.838  -1.162  -1.610  0.00  0.00    +0.029 C 
ATOM     23  C   UNL     1       1.908  -0.151  -1.196  0.00  0.00    +0.137 C 
BRANCH  23  24
ATOM     24  S   UNL     1       3.090   0.069  -2.555  0.00  0.00    -0.073 S 
BRANCH  24  25
ATOM     25  C   UNL     1       2.131   0.795  -3.841  0.00  0.00    +0.197 A 
ATOM     26  N   UNL     1       0.853   1.099  -3.785  0.00  0.00    -0.122 NA
ATOM     27  N   UNL     1       0.469   1.615  -4.898  0.00  0.00    -0.129 NA
ATOM     28  C   UNL     1       1.485   1.673  -5.739  0.00  0.00    +0.162 A 
ATOM     29  N   UNL     1       2.577   1.153  -5.080  0.00  0.00    -0.270 N 
ATOM     30  C   UNL     1       3.811   1.079  -5.701  0.00  0.00    +0.058 A 
ATOM     31  C   UNL     1       4.913   0.553  -5.040  0.00  0.00    +0.027 A 
ATOM     32  C   UNL     1       6.134   0.489  -5.679  0.00  0.00    +0.002 A 
ATOM     33  C   UNL     1       6.275   0.947  -6.981  0.00  0.00    +0.001 A 
ATOM     34  C   UNL     1       5.196   1.473  -7.655  0.00  0.00    +0.010 A 
ATOM     35  C   UNL     1       3.952   1.544  -7.021  0.00  0.00    -0.001 A 
ATOM     36  C   UNL     1       2.784   2.099  -7.713  0.00  0.00    +0.013 A 
ATOM     37  C   UNL     1       1.596   2.144  -7.069  0.00  0.00    +0.049 A 
ENDBRANCH  24  25
ENDBRANCH  23  24
ENDBRANCH   1  23
TORSDOF 7
