REMARK  Name = ZINC14815525
REMARK  3 active torsions:
REMARK  status: ('A' for Active; 'I' for Inactive)
REMARK    1  A    between atoms: C_6  and  C_7
REMARK    2  A    between atoms: C_9  and  C_12
REMARK    3  A    between atoms: C_12  and  N_13
REMARK                            x       y       z     vdW  Elec       q    Type
REMARK                         _______ _______ _______ _____ _____    ______ ____
ROOT
ATOM      1  C   UNL     1       1.964   4.574   0.007  0.00  0.00    +0.182 C 
ENDROOT
BRANCH   1   2
ATOM      2  N   UNL     1       2.432   4.780   1.380  0.00  0.00    -0.293 N 
ATOM      3  C   UNL     1       1.909   5.794   2.116  0.00  0.00    +0.203 A 
ATOM      4  N   UNL     1       2.296   6.009   3.345  0.00  0.00    -0.230 NA
ATOM      5  C   UNL     1       3.226   5.244   3.911  0.00  0.00    +0.116 A 
ATOM      6  C   UNL     1       3.827   4.178   3.228  0.00  0.00    +0.076 A 
ATOM      7  C   UNL     1       3.378   3.965   1.884  0.00  0.00    +0.263 A 
ATOM      8  O   UNL     1       3.842   3.062   1.210  0.00  0.00    -0.267 OA
ATOM      9  C   UNL     1       4.839   3.418   3.977  0.00  0.00    -0.023 A 
ATOM     10  C   UNL     1       5.090   3.818   5.235  0.00  0.00    -0.004 A 
ATOM     11  S   UNL     1       4.011   5.206   5.500  0.00  0.00    -0.073 S 
ATOM     12  C   UNL     1       6.142   2.971   5.900  0.00  0.00    +0.043 C 
ATOM     13  C   UNL     1       6.841   2.235   4.736  0.00  0.00    +0.010 C 
ATOM     14  C   UNL     1       5.729   2.211   3.669  0.00  0.00    +0.037 C 
ENDBRANCH   1   2
BRANCH   1  17
ATOM     15  C   UNL     1      -0.018   1.474   0.010  0.00  0.00    +0.109 A 
ATOM     16  N   UNL     1       0.995   2.329   0.005  0.00  0.00    -0.242 NA
ATOM     17  C   UNL     1       0.792   3.626   0.014  0.00  0.00    +0.069 A 
ATOM     18  C   UNL     1      -0.477   4.113   0.029  0.00  0.00    +0.072 A 
ATOM     19  S   UNL     1      -1.415   2.590   0.022  0.00  0.00    -0.075 S 
BRANCH  15  25
ATOM     20  C   UNL     1       1.219  -0.688  -0.019  0.00  0.00    +0.013 A 
ATOM     21  C   UNL     1       1.232  -2.067  -0.022  0.00  0.00    +0.039 A 
ATOM     22  C   UNL     1       0.040  -2.774  -0.015  0.00  0.00    +0.123 A 
ATOM     23  C   UNL     1      -1.171  -2.100   0.002  0.00  0.00    +0.039 A 
ATOM     24  C   UNL     1      -1.196  -0.721   0.010  0.00  0.00    +0.013 A 
ATOM     25  C   UNL     1       0.002  -0.004   0.002  0.00  0.00    +0.007 A 
ATOM     26  F   UNL     1       0.058  -4.125  -0.023  0.00  0.00    -0.205 F 
ENDBRANCH  15  25
ENDBRANCH   1  17
TORSDOF 3
