REMARK  Name = ZINC10436308
REMARK  14 active torsions:
REMARK  status: ('A' for Active; 'I' for Inactive)
REMARK    1  A    between atoms: C_1  and  C_2
REMARK    2  A    between atoms: C_2  and  C_3
REMARK    3  A    between atoms: C_3  and  C_4
REMARK    4  A    between atoms: C_4  and  C_6
REMARK    5  A    between atoms: C_4  and  N_66
REMARK    6  A    between atoms: C_12  and  C_13
REMARK    7  A    between atoms: C_12  and  N_66
REMARK    8  A    between atoms: C_16  and  O_19
REMARK    9  A    between atoms: O_19  and  C_20
REMARK   10  A    between atoms: C_20  and  C_21
REMARK   11  A    between atoms: C_21  and  C_23
REMARK   12  A    between atoms: C_21  and  O_35
REMARK   13  A    between atoms: N_29  and  C_34
REMARK   14  A    between atoms: N_32  and  C_33
REMARK                            x       y       z     vdW  Elec       q    Type
REMARK                         _______ _______ _______ _____ _____    ______ ____
ROOT
ATOM      1  C   UNL     1      -5.617  -1.129   5.244  0.00  0.00    -0.064 A 
ATOM      2  C   UNL     1      -6.278  -1.369   4.054  0.00  0.00    +0.005 A 
ATOM      3  C   UNL     1      -5.763  -0.885   2.866  0.00  0.00    +0.046 A 
ATOM      4  C   UNL     1      -4.582  -0.157   2.869  0.00  0.00    +0.121 A 
ATOM      5  C   UNL     1      -3.918   0.077   4.064  0.00  0.00    +0.046 A 
ATOM      6  C   UNL     1      -4.440  -0.404   5.250  0.00  0.00    +0.005 A 
ENDROOT
BRANCH   1   7
ATOM      7  C   UNL     1      -6.180  -1.659   6.537  0.00  0.00    -0.046 C 
BRANCH   7   8
ATOM      8  N   UNL     1      -5.635  -3.007   6.786  0.00  0.00    +0.386 N 
ATOM      9  H   UNL     1      -5.959  -3.644   6.050  0.00  0.00    -0.085 HD
ATOM     10  H   UNL     1      -4.609  -2.965   6.776  0.00  0.00    -0.085 HD
BRANCH   8  11
ATOM     11  C   UNL     1      -6.088  -3.508   8.098  0.00  0.00    -0.040 C 
BRANCH  11  12
ATOM     12  C   UNL     1      -7.431  -4.175   7.944  0.00  0.00    -0.061 A 
ATOM     13  C   UNL     1      -7.693  -4.955   6.834  0.00  0.00    +0.002 A 
ATOM     14  C   UNL     1      -8.923  -5.570   6.695  0.00  0.00    +0.000 A 
ATOM     15  C   UNL     1      -9.895  -5.397   7.663  0.00  0.00    +0.000 A 
ATOM     16  C   UNL     1      -9.635  -4.613   8.772  0.00  0.00    +0.000 A 
ATOM     17  C   UNL     1      -8.403  -4.002   8.912  0.00  0.00    +0.002 A 
ENDBRANCH  11  12
BRANCH  11  18
ATOM     18  C   UNL     1      -5.072  -4.523   8.625  0.00  0.00    -0.011 C 
BRANCH  18  20
ATOM     19  C   UNL     1      -2.773  -4.800   9.564  0.00  0.00    +0.004 C 
ATOM     20  C   UNL     1      -3.748  -3.814   8.916  0.00  0.00    -0.005 C 
ENDBRANCH  18  20
ENDBRANCH  11  18
ENDBRANCH   8  11
ENDBRANCH   7   8
ENDBRANCH   1   7
BRANCH   4  21
ATOM     21  O   UNL     1      -4.074   0.320   1.703  0.00  0.00    -0.489 OA
BRANCH  21  22
ATOM     22  C   UNL     1      -2.855   1.061   1.782  0.00  0.00    +0.265 C 
BRANCH  22  23
ATOM     23  C   UNL     1      -2.441   1.513   0.380  0.00  0.00    +0.182 C 
BRANCH  23  24
ATOM     24  C   UNL     1      -1.224   2.396   0.475  0.00  0.00    -0.014 A 
ATOM     25  C   UNL     1       0.038   1.829   0.521  0.00  0.00    +0.008 A 
ATOM     26  C   UNL     1       1.159   2.630   0.603  0.00  0.00    +0.028 A 
ATOM     27  C   UNL     1       1.021   4.009   0.645  0.00  0.00    +0.070 A 
ATOM     28  C   UNL     1      -0.252   4.582   0.605  0.00  0.00    +0.070 A 
ATOM     29  C   UNL     1      -1.373   3.769   0.522  0.00  0.00    +0.034 A 
ATOM     30  N   UNL     1      -0.075   5.962   0.661  0.00  0.00    -0.295 N 
ATOM     31  C   UNL     1       1.245   6.217   0.733  0.00  0.00    +0.330 A 
ATOM     32  O   UNL     1       1.742   7.326   0.795  0.00  0.00    -0.246 OA
ATOM     33  N   UNL     1       1.932   5.059   0.726  0.00  0.00    -0.295 N 
ATOM     34  C   UNL     1       3.390   4.927   0.791  0.00  0.00    +0.154 C 
ATOM     35  C   UNL     1      -1.143   6.965   0.645  0.00  0.00    +0.154 C 
ENDBRANCH  23  24
BRANCH  23  36
ATOM     36  O   UNL     1      -2.138   0.368  -0.420  0.00  0.00    -0.384 OA
ATOM     37  H   UNL     1      -1.417  -0.175  -0.071  0.00  0.00    +0.210 HD
ENDBRANCH  23  36
ENDBRANCH  22  23
ENDBRANCH  21  22
ENDBRANCH   4  21
TORSDOF 11
