REMARK  Name = ZINC20210064
REMARK  11 active torsions:
REMARK  status: ('A' for Active; 'I' for Inactive)
REMARK    1  A    between atoms: C_1  and  C_2
REMARK    2  A    between atoms: C_2  and  C_4
REMARK    3  A    between atoms: C_2  and  N_24
REMARK    4  A    between atoms: N_11  and  C_14
REMARK    5  A    between atoms: C_14  and  C_15
REMARK    6  A    between atoms: C_18  and  C_21
REMARK    7  A    between atoms: C_21  and  C_22
REMARK    8  A    between atoms: C_21  and  C_23
REMARK    9  A    between atoms: C_25  and  C_27
REMARK   10  A    between atoms: C_27  and  C_28
REMARK   11  A    between atoms: C_28  and  C_29
REMARK                            x       y       z     vdW  Elec       q    Type
REMARK                         _______ _______ _______ _____ _____    ______ ____
ROOT
ATOM      1  C   UNL     1       0.731  -0.503   1.223  0.00  0.00    +0.154 A 
ATOM      2  N   UNL     1       0.274  -0.525   2.450  0.00  0.00    -0.132 NA
ATOM      3  N   UNL     1       1.169  -1.017   3.240  0.00  0.00    -0.134 NA
ATOM      4  C   UNL     1       2.225  -1.325   2.551  0.00  0.00    +0.132 A 
ATOM      5  N   UNL     1       1.973  -1.017   1.261  0.00  0.00    -0.315 N 
ATOM      6  C   UNL     1       2.919  -1.230   0.149  0.00  0.00    +0.106 C 
ATOM      7  C   UNL     1       4.131  -0.321   0.415  0.00  0.00    -0.056 C 
ATOM      8  N   UNL     1       5.026  -0.918   1.380  0.00  0.00    +0.384 N 
ATOM      9  C   UNL     1       4.627  -0.893   2.770  0.00  0.00    -0.071 C 
ATOM     10  C   UNL     1       3.529  -1.925   3.045  0.00  0.00    +0.058 C 
ATOM     11  H   UNL     1       5.166  -1.882   1.117  0.00  0.00    -0.081 HD
ENDROOT
BRANCH   1  13
ATOM     12  C   UNL     1      -0.019   1.526   0.010  0.00  0.00    +0.036 C 
ATOM     13  C   UNL     1       0.002  -0.004   0.002  0.00  0.00    +0.138 C 
BRANCH  13  14
ATOM     14  N   UNL     1      -1.372  -0.511   0.012  0.00  0.00    -0.306 N 
ATOM     15  C   UNL     1      -2.051  -0.643  -1.145  0.00  0.00    +0.214 C 
ATOM     16  O   UNL     1      -1.524  -0.341  -2.194  0.00  0.00    -0.276 OA
ATOM     17  H   UNL     1      -1.794  -0.752   0.852  0.00  0.00    +0.149 HD
BRANCH  15  18
ATOM     18  C   UNL     1      -3.465  -1.164  -1.134  0.00  0.00    +0.100 C 
BRANCH  18  19
ATOM     19  C   UNL     1      -4.000  -1.215  -2.566  0.00  0.00    +0.044 C 
BRANCH  19  20
ATOM     20  C   UNL     1      -5.414  -1.737  -2.555  0.00  0.00    -0.047 A 
ATOM     21  C   UNL     1      -5.651  -3.095  -2.659  0.00  0.00    +0.003 A 
ATOM     22  C   UNL     1      -6.947  -3.573  -2.649  0.00  0.00    +0.000 A 
ATOM     23  C   UNL     1      -8.008  -2.694  -2.535  0.00  0.00    +0.000 A 
ATOM     24  C   UNL     1      -7.771  -1.336  -2.431  0.00  0.00    +0.000 A 
ATOM     25  C   UNL     1      -6.474  -0.858  -2.436  0.00  0.00    +0.003 A 
ENDBRANCH  19  20
ENDBRANCH  18  19
ENDBRANCH  15  18
ENDBRANCH  13  14
ENDBRANCH   1  13
BRANCH   8  26
ATOM     26  C   UNL     1       6.323  -0.236   1.272  0.00  0.00    -0.043 C 
BRANCH  26  27
ATOM     27  C   UNL     1       7.322  -0.911   2.177  0.00  0.00    -0.064 A 
ATOM     28  C   UNL     1       7.464  -0.489   3.485  0.00  0.00    +0.002 A 
ATOM     29  C   UNL     1       8.380  -1.107   4.315  0.00  0.00    +0.004 A 
ATOM     30  C   UNL     1       9.154  -2.148   3.836  0.00  0.00    -0.045 A 
ATOM     31  C   UNL     1       9.011  -2.570   2.528  0.00  0.00    +0.004 A 
ATOM     32  C   UNL     1       8.092  -1.954   1.699  0.00  0.00    +0.002 A 
BRANCH  30  33
ATOM     33  C   UNL     1      10.154  -2.822   4.741  0.00  0.00    +0.013 C 
ATOM     34  C   UNL     1       9.807  -4.306   4.867  0.00  0.00    +0.012 C 
ATOM     35  C   UNL     1      11.557  -2.674   4.149  0.00  0.00    +0.012 C 
ENDBRANCH  30  33
ENDBRANCH  26  27
ENDBRANCH   8  26
TORSDOF 8
