REMARK  Name = ZINC60362027
REMARK  6 active torsions:
REMARK  status: ('A' for Active; 'I' for Inactive)
REMARK    1  A    between atoms: C_1  and  C_2
REMARK    2  A    between atoms: C_4  and  C_31
REMARK    3  A    between atoms: C_5  and  S_9
REMARK    4  A    between atoms: C_6  and  C_8
REMARK    5  A    between atoms: S_9  and  N_12
REMARK    6  A    between atoms: C_15  and  C_18
REMARK                            x       y       z     vdW  Elec       q    Type
REMARK                         _______ _______ _______ _____ _____    ______ ____
ROOT
ATOM      1  N   UNL     1       0.401  -5.328   0.167  0.00  0.00    -0.177 NA
ATOM      2  C   UNL     1       1.079  -5.802  -1.047  0.00  0.00    +0.110 C 
ATOM      3  C   UNL     1       1.215  -7.326  -0.973  0.00  0.00    +0.030 C 
ATOM      4  C   UNL     1       1.920  -7.708   0.331  0.00  0.00    +0.078 C 
ATOM      5  C   UNL     1       1.082  -7.239   1.522  0.00  0.00    +0.030 C 
ATOM      6  C   UNL     1       0.948  -5.709   1.476  0.00  0.00    +0.110 C 
ENDROOT
BRANCH   4   7
ATOM      7  C   UNL     1       2.087  -9.204   0.392  0.00  0.00    +0.222 C 
ATOM      8  O   UNL     1       1.681  -9.897  -0.517  0.00  0.00    -0.275 OA
ATOM      9  N   UNL     1       2.686  -9.773   1.457  0.00  0.00    -0.264 N 
ATOM     10  C   UNL     1       2.838 -11.146   1.514  0.00  0.00    +0.165 A 
ATOM     11  N   UNL     1       3.392 -11.868   2.474  0.00  0.00    -0.229 NA
ATOM     12  C   UNL     1       3.474 -13.175   2.406  0.00  0.00    +0.061 A 
ATOM     13  C   UNL     1       2.928 -13.727   1.240  0.00  0.00    +0.079 A 
ATOM     14  S   UNL     1       2.357 -12.295   0.377  0.00  0.00    -0.049 S 
ATOM     15  C   UNL     1       2.885 -15.083   0.933  0.00  0.00    +0.172 C 
ATOM     16  O   UNL     1       2.413 -15.481  -0.113  0.00  0.00    -0.291 OA
ATOM     17  C   UNL     1       3.455 -16.043   1.961  0.00  0.00    +0.080 C 
ATOM     18  C   UNL     1       4.591 -15.357   2.722  0.00  0.00    +0.014 C 
ATOM     19  C   UNL     1       4.091 -14.101   3.443  0.00  0.00    +0.057 C 
ATOM     20  H   UNL     1       3.010  -9.218   2.184  0.00  0.00    +0.157 HD
ENDBRANCH   4   7
BRANCH   1  21
ATOM     21  S   UNL     1      -0.950  -4.376   0.061  0.00  0.00    +0.061 S 
ATOM     22  O   UNL     1      -1.662  -4.544   1.280  0.00  0.00    -0.153 OA
ATOM     23  O   UNL     1      -1.536  -4.641  -1.206  0.00  0.00    -0.153 OA
BRANCH  21  28
ATOM     24  C   UNL     1       0.919   1.360  -0.067  0.00  0.00    +0.044 C 
ATOM     25  C   UNL     1       0.452  -0.073  -0.035  0.00  0.00    -0.050 A 
ATOM     26  C   UNL     1       0.175  -0.682   1.174  0.00  0.00    +0.008 A 
ATOM     27  C   UNL     1      -0.254  -1.996   1.204  0.00  0.00    -0.024 A 
ATOM     28  C   UNL     1      -0.405  -2.700   0.024  0.00  0.00    +0.111 A 
ATOM     29  C   UNL     1      -0.129  -2.090  -1.185  0.00  0.00    -0.024 A 
ATOM     30  C   UNL     1       0.295  -0.775  -1.215  0.00  0.00    +0.008 A 
ATOM     31  C   UNL     1      -0.294  -2.858  -2.472  0.00  0.00    +0.046 C 
ATOM     32  C   UNL     1      -0.554  -2.662   2.522  0.00  0.00    +0.046 C 
ENDBRANCH  21  28
ENDBRANCH   1  21
TORSDOF 3
