REMARK  Name = ZINC66639383
REMARK  8 active torsions:
REMARK  status: ('A' for Active; 'I' for Inactive)
REMARK    1  A    between atoms: C_1  and  C_2
REMARK    2  A    between atoms: C_2  and  C_3
REMARK    3  A    between atoms: C_2  and  N_4
REMARK    4  A    between atoms: C_5  and  C_10
REMARK    5  A    between atoms: C_10  and  N_11
REMARK    6  A    between atoms: C_12  and  C_14
REMARK    7  A    between atoms: C_19  and  S_20
REMARK    8  A    between atoms: S_20  and  C_21
REMARK                            x       y       z     vdW  Elec       q    Type
REMARK                         _______ _______ _______ _____ _____    ______ ____
ROOT
ATOM      1  N   UNL     1      -2.185  -2.636  -2.966  0.00  0.00    -0.304 N 
ATOM      2  C   UNL     1      -1.786  -3.195  -4.126  0.00  0.00    +0.247 C 
ATOM      3  O   UNL     1      -0.652  -3.017  -4.528  0.00  0.00    -0.270 OA
ATOM      4  H   UNL     1      -3.089  -2.778  -2.645  0.00  0.00    +0.149 HD
ENDROOT
BRANCH   2   5
ATOM      5  C   UNL     1      -2.724  -4.023  -4.906  0.00  0.00    +0.069 A 
ATOM      6  C   UNL     1      -4.033  -4.231  -4.458  0.00  0.00    +0.017 A 
ATOM      7  C   UNL     1      -4.874  -5.016  -5.226  0.00  0.00    +0.020 A 
ATOM      8  C   UNL     1      -4.404  -5.568  -6.405  0.00  0.00    +0.112 A 
ATOM      9  N   UNL     1      -3.167  -5.360  -6.811  0.00  0.00    -0.248 NA
ATOM     10  C   UNL     1      -2.321  -4.612  -6.117  0.00  0.00    +0.117 A 
BRANCH  10  11
ATOM     11  S   UNL     1      -0.681  -4.362  -6.711  0.00  0.00    +0.005 S 
BRANCH  11  12
ATOM     12  C   UNL     1      -0.631  -5.294  -8.267  0.00  0.00    +0.449 C 
ATOM     13  F   UNL     1      -1.593  -4.786  -9.146  0.00  0.00    -0.160 F 
ATOM     14  F   UNL     1       0.638  -5.172  -8.843  0.00  0.00    -0.160 F 
ATOM     15  F   UNL     1      -0.899  -6.643  -8.011  0.00  0.00    -0.160 F 
ENDBRANCH  11  12
ENDBRANCH  10  11
ENDBRANCH   2   5
BRANCH   1  16
ATOM     16  C   UNL     1      -1.253  -1.813  -2.191  0.00  0.00    +0.181 C 
BRANCH  16  18
ATOM     17  N   UNL     1      -1.372  -0.511   0.012  0.00  0.00    -0.303 N 
ATOM     18  C   UNL     1      -1.941  -1.311  -0.948  0.00  0.00    +0.149 A 
ATOM     19  N   UNL     1      -3.165  -1.562  -0.611  0.00  0.00    -0.157 NA
ATOM     20  N   UNL     1      -3.425  -0.915   0.605  0.00  0.00    -0.254 N 
ATOM     21  C   UNL     1      -2.293  -0.277   0.969  0.00  0.00    +0.176 A 
ATOM     22  S   UNL     1      -2.068   0.661   2.384  0.00  0.00    -0.011 S 
ATOM     23  H   UNL     1      -4.261  -0.927   1.096  0.00  0.00    +0.191 HD
BRANCH  17  25
ATOM     24  C   UNL     1      -0.019   1.526   0.010  0.00  0.00    +0.030 C 
ATOM     25  C   UNL     1       0.002  -0.004   0.002  0.00  0.00    +0.085 C 
ATOM     26  C   UNL     1       0.742  -0.511   1.242  0.00  0.00    +0.030 C 
ENDBRANCH  17  25
ENDBRANCH  16  18
ENDBRANCH   1  16
TORSDOF 6
