REMARK  Name = ZINC63708317
REMARK  11 active torsions:
REMARK  status: ('A' for Active; 'I' for Inactive)
REMARK    1  A    between atoms: C_1  and  C_2
REMARK    2  A    between atoms: C_2  and  C_3
REMARK    3  A    between atoms: C_3  and  C_5
REMARK    4  A    between atoms: C_3  and  S_15
REMARK    5  A    between atoms: N_7  and  C_8
REMARK    6  A    between atoms: S_15  and  C_16
REMARK    7  A    between atoms: C_28  and  C_30
REMARK    8  A    between atoms: C_30  and  C_31
REMARK    9  A    between atoms: C_31  and  C_32
REMARK   10  A    between atoms: C_33  and  C_39
REMARK   11  A    between atoms: C_36  and  C_38
REMARK                            x       y       z     vdW  Elec       q    Type
REMARK                         _______ _______ _______ _____ _____    ______ ____
ROOT
ATOM      1  C   UNL     1       2.328   1.907  -1.143  0.00  0.00    +0.249 C 
ATOM      2  N   UNL     1       1.553   2.434  -2.274  0.00  0.00    -0.356 N 
ATOM      3  C   UNL     1       0.489   3.192  -2.043  0.00  0.00    +0.048 A 
ATOM      4  C   UNL     1      -0.271   3.709  -3.114  0.00  0.00    +0.026 A 
ATOM      5  C   UNL     1      -1.358   4.483  -2.855  0.00  0.00    +0.002 A 
ATOM      6  C   UNL     1      -1.747   4.782  -1.552  0.00  0.00    +0.001 A 
ATOM      7  C   UNL     1      -1.057   4.314  -0.475  0.00  0.00    +0.013 A 
ATOM      8  C   UNL     1       0.078   3.508  -0.671  0.00  0.00    +0.038 A 
ATOM      9  C   UNL     1       0.804   3.014   0.430  0.00  0.00    +0.128 C 
ATOM     10  N   UNL     1       1.907   2.229   0.220  0.00  0.00    -0.204 N 
ATOM     11  N   UNL     1       2.405   1.900   1.487  0.00  0.00    -0.249 N 
ATOM     12  C   UNL     1       1.589   2.494   2.386  0.00  0.00    +0.090 C 
ATOM     13  N   UNL     1       0.649   3.147   1.753  0.00  0.00    -0.332 N 
ATOM     14  H   UNL     1       3.182   1.353   1.681  0.00  0.00    +0.171 HD
ATOM     15  H   UNL     1       1.818   2.230  -3.184  0.00  0.00    +0.162 HD
ATOM     16  H   UNL     1      -0.058   3.655   2.180  0.00  0.00    +0.168 HD
ENDROOT
BRANCH   1  17
ATOM     17  S   UNL     1       2.351   0.100  -1.294  0.00  0.00    -0.103 S 
BRANCH  17  18
ATOM     18  C   UNL     1       0.624  -0.385  -1.023  0.00  0.00    +0.136 C 
BRANCH  18  19
ATOM     19  C   UNL     1      -0.203   0.016  -2.217  0.00  0.00    +0.230 C 
ATOM     20  O   UNL     1       0.321   0.144  -3.303  0.00  0.00    -0.274 OA
ATOM     21  N   UNL     1      -1.526   0.234  -2.078  0.00  0.00    -0.285 N 
ATOM     22  H   UNL     1      -1.958   0.066  -1.226  0.00  0.00    +0.155 HD
BRANCH  21  23
ATOM     23  C   UNL     1      -2.277   0.702  -3.164  0.00  0.00    +0.034 A 
ATOM     24  C   UNL     1      -1.968   0.289  -4.453  0.00  0.00    +0.026 A 
ATOM     25  C   UNL     1      -2.709   0.752  -5.522  0.00  0.00    +0.040 A 
ATOM     26  C   UNL     1      -3.760   1.628  -5.309  0.00  0.00    +0.124 A 
ATOM     27  C   UNL     1      -4.070   2.041  -4.024  0.00  0.00    +0.040 A 
ATOM     28  C   UNL     1      -3.335   1.576  -2.952  0.00  0.00    +0.026 A 
ATOM     29  F   UNL     1      -4.484   2.080  -6.356  0.00  0.00    -0.205 F 
ENDBRANCH  21  23
ENDBRANCH  18  19
BRANCH  18  31
ATOM     30  C   UNL     1       1.289  -2.296   0.442  0.00  0.00    +0.005 C 
ATOM     31  C   UNL     1       0.543  -1.901  -0.834  0.00  0.00    +0.020 C 
ENDBRANCH  18  31
ENDBRANCH  17  18
ENDBRANCH   1  17
BRANCH  12  32
ATOM     32  C   UNL     1       1.738   2.415   3.884  0.00  0.00    +0.075 C 
BRANCH  32  33
ATOM     33  C   UNL     1       2.622   3.565   4.370  0.00  0.00    +0.042 C 
BRANCH  33  34
ATOM     34  C   UNL     1       2.771   3.486   5.867  0.00  0.00    -0.021 C 
ATOM     35  C   UNL     1       3.757   2.919   6.567  0.00  0.00    +0.061 C 
ATOM     36  N   UNL     1       3.540   3.051   7.894  0.00  0.00    -0.159 NA
ATOM     37  N   UNL     1       2.503   3.651   8.187  0.00  0.00    -0.180 NA
ATOM     38  C   UNL     1       1.838   4.037   6.931  0.00  0.00    +0.153 C 
ATOM     39  C   UNL     1       0.458   3.386   6.830  0.00  0.00    +0.039 C 
ATOM     40  C   UNL     1       4.949   2.227   5.959  0.00  0.00    +0.067 C 
ENDBRANCH  33  34
ENDBRANCH  32  33
ENDBRANCH  12  32
TORSDOF 8
