REMARK  Name = ZINC29621841
REMARK  12 active torsions:
REMARK  status: ('A' for Active; 'I' for Inactive)
REMARK    1  A    between atoms: C_1  and  N_2
REMARK    2  A    between atoms: N_2  and  C_3
REMARK    3  A    between atoms: N_2  and  C_4
REMARK    4  A    between atoms: C_4  and  C_5
REMARK    5  A    between atoms: C_5  and  N_6
REMARK    6  A    between atoms: N_6  and  S_7
REMARK    7  A    between atoms: S_7  and  C_10
REMARK    8  A    between atoms: C_13  and  N_19
REMARK    9  A    between atoms: C_14  and  N_16
REMARK   10  A    between atoms: N_19  and  C_20
REMARK   11  A    between atoms: C_20  and  C_21
REMARK   12  A    between atoms: N_25  and  C_27
REMARK                            x       y       z     vdW  Elec       q    Type
REMARK                         _______ _______ _______ _____ _____    ______ ____
ROOT
ATOM      1  C   UNL     1       1.103   1.667  -0.027  0.00  0.00    +0.108 A 
ATOM      2  C   UNL     1      -0.150   1.081  -0.015  0.00  0.00    +0.030 A 
ATOM      3  C   UNL     1      -1.282   1.871   0.021  0.00  0.00    +0.027 A 
ATOM      4  C   UNL     1      -1.162   3.254   0.058  0.00  0.00    +0.058 A 
ATOM      5  C   UNL     1       0.097   3.839   0.047  0.00  0.00    +0.149 A 
ATOM      6  C   UNL     1       1.226   3.044   0.004  0.00  0.00    +0.063 A 
ENDROOT
BRANCH   1   7
ATOM      7  S   UNL     1       2.545   0.657  -0.081  0.00  0.00    +0.058 S 
ATOM      8  O   UNL     1       3.604   1.430   0.467  0.00  0.00    -0.153 OA
ATOM      9  O   UNL     1       2.174  -0.609   0.447  0.00  0.00    -0.153 OA
BRANCH   7  10
ATOM     10  N   UNL     1       2.914   0.415  -1.677  0.00  0.00    -0.192 NA
ATOM     11  H   UNL     1       2.698  -0.561  -2.136  0.00  0.00    +0.148 HD
BRANCH  10  12
ATOM     12  C   UNL     1       3.314   1.547  -2.517  0.00  0.00    +0.087 C 
BRANCH  12  13
ATOM     13  C   UNL     1       3.949   1.025  -3.807  0.00  0.00    -0.063 C 
BRANCH  13  15
ATOM     14  C   UNL     1       5.172   1.712  -5.781  0.00  0.00    -0.097 C 
ATOM     15  N   UNL     1       4.350   2.160  -4.649  0.00  0.00    +0.377 N 
ATOM     16  C   UNL     1       3.177   2.911  -5.115  0.00  0.00    -0.097 C 
ATOM     17  H   UNL     1       4.962   2.837  -4.035  0.00  0.00    -0.083 HD
ENDBRANCH  13  15
ENDBRANCH  12  13
ENDBRANCH  10  12
ENDBRANCH   7  10
ENDBRANCH   1   7
BRANCH   5  18
ATOM     18  N   UNL     1       0.230   5.313   0.081  0.00  0.00    +0.058 N 
ATOM     19  O   UNL     1       1.331   5.823   0.184  0.00  0.00    -0.126 OA
ATOM     20  O   UNL     1      -0.762   6.016   0.006  0.00  0.00    -0.126 OA
ENDBRANCH   5  18
BRANCH   4  21
ATOM     21  N   UNL     1      -2.306   4.055   0.101  0.00  0.00    -0.342 N 
ATOM     22  H   UNL     1      -2.214   5.149   0.036  0.00  0.00    +0.146 HD
BRANCH  21  23
ATOM     23  C   UNL     1      -3.628   3.438   0.233  0.00  0.00    +0.106 C 
BRANCH  23  24
ATOM     24  C   UNL     1      -4.700   4.529   0.255  0.00  0.00    +0.025 C 
ATOM     25  C   UNL     1      -4.613   5.356   1.559  0.00  0.00    +0.025 C 
ATOM     26  C   UNL     1      -6.074   5.611   1.972  0.00  0.00    +0.105 C 
ATOM     27  N   UNL     1      -6.932   4.989   0.939  0.00  0.00    -0.330 N 
ATOM     28  C   UNL     1      -6.116   3.905   0.330  0.00  0.00    +0.110 C 
BRANCH  27  29
ATOM     29  C   UNL     1      -8.104   4.479   1.503  0.00  0.00    +0.030 A 
ATOM     30  C   UNL     1      -9.341   4.954   1.086  0.00  0.00    +0.023 A 
ATOM     31  C   UNL     1     -10.497   4.444   1.642  0.00  0.00    +0.002 A 
ATOM     32  C   UNL     1     -10.425   3.468   2.620  0.00  0.00    +0.000 A 
ATOM     33  C   UNL     1      -9.195   2.997   3.040  0.00  0.00    +0.002 A 
ATOM     34  C   UNL     1      -8.034   3.499   2.485  0.00  0.00    +0.023 A 
ENDBRANCH  27  29
ENDBRANCH  23  24
ENDBRANCH  21  23
ENDBRANCH   4  21
TORSDOF 10
