REMARK  Name = ZINC33225160
REMARK  8 active torsions:
REMARK  status: ('A' for Active; 'I' for Inactive)
REMARK    1  A    between atoms: C_1  and  C_2
REMARK    2  A    between atoms: C_2  and  C_3
REMARK    3  A    between atoms: C_3  and  C_4
REMARK    4  A    between atoms: C_4  and  C_5
REMARK    5  A    between atoms: C_5  and  N_6
REMARK    6  A    between atoms: C_15  and  C_17
REMARK    7  A    between atoms: N_19  and  N_20
REMARK    8  A    between atoms: C_21  and  C_23
REMARK                            x       y       z     vdW  Elec       q    Type
REMARK                         _______ _______ _______ _____ _____    ______ ____
ROOT
ATOM      1  C   UNL     1      -2.808  -6.562  -2.616  0.00  0.00    +0.281 C 
ATOM      2  O   UNL     1      -2.792  -7.771  -2.741  0.00  0.00    -0.267 OA
ATOM      3  N   UNL     1      -2.824  -5.771  -3.707  0.00  0.00    -0.229 N 
ATOM      4  H   UNL     1      -2.836  -4.806  -3.607  0.00  0.00    +0.173 HD
ENDROOT
BRANCH   1  14
ATOM      5  N   UNL     1      -2.828  -4.058   0.007  0.00  0.00    -0.228 N 
ATOM      6  C   UNL     1      -2.814  -4.703   1.192  0.00  0.00    +0.275 A 
ATOM      7  O   UNL     1      -2.817  -4.082   2.239  0.00  0.00    -0.266 OA
ATOM      8  C   UNL     1      -2.794  -6.172   1.189  0.00  0.00    +0.050 A 
ATOM      9  C   UNL     1      -2.778  -6.930   2.356  0.00  0.00    +0.014 A 
ATOM     10  C   UNL     1      -2.760  -8.306   2.268  0.00  0.00    +0.001 A 
ATOM     11  C   UNL     1      -2.757  -8.938   1.031  0.00  0.00    +0.001 A 
ATOM     12  C   UNL     1      -2.773  -8.204  -0.137  0.00  0.00    +0.011 A 
ATOM     13  C   UNL     1      -2.792  -6.815  -0.070  0.00  0.00    +0.020 A 
ATOM     14  C   UNL     1      -2.809  -5.960  -1.268  0.00  0.00    +0.155 A 
ATOM     15  N   UNL     1      -2.831  -4.657  -1.123  0.00  0.00    -0.163 NA
BRANCH   5  16
ATOM     16  C   UNL     1      -2.848  -2.593   0.015  0.00  0.00    +0.147 C 
BRANCH  16  17
ATOM     17  C   UNL     1      -1.413  -2.063   0.004  0.00  0.00    +0.023 C 
BRANCH  17  18
ATOM     18  C   UNL     1      -1.433  -0.534   0.013  0.00  0.00    +0.002 C 
BRANCH  18  20
ATOM     19  C   UNL     1      -0.019   1.526   0.010  0.00  0.00    +0.004 C 
ATOM     20  C   UNL     1       0.002  -0.004   0.002  0.00  0.00    -0.003 C 
ENDBRANCH  18  20
ENDBRANCH  17  18
ENDBRANCH  16  17
ENDBRANCH   5  16
ENDBRANCH   1  14
BRANCH   3  21
ATOM     21  N   UNL     1      -2.822  -6.342  -4.986  0.00  0.00    -0.230 N 
ATOM     22  C   UNL     1      -2.838  -5.552  -6.077  0.00  0.00    +0.260 C 
ATOM     23  O   UNL     1      -2.854  -4.342  -5.952  0.00  0.00    -0.269 OA
ATOM     24  H   UNL     1      -2.809  -7.307  -5.086  0.00  0.00    +0.173 HD
BRANCH  22  25
ATOM     25  C   UNL     1      -2.836  -6.153  -7.425  0.00  0.00    +0.040 A 
ATOM     26  C   UNL     1      -2.824  -7.549  -7.566  0.00  0.00    +0.014 A 
ATOM     27  C   UNL     1      -2.822  -8.116  -8.804  0.00  0.00    +0.011 A 
ATOM     28  C   UNL     1      -2.833  -7.305  -9.944  0.00  0.00    -0.000 A 
ATOM     29  C   UNL     1      -2.833  -7.577 -11.381  0.00  0.00    +0.027 A 
ATOM     30  C   UNL     1      -2.846  -6.388 -12.007  0.00  0.00    +0.083 A 
ATOM     31  N   UNL     1      -2.853  -5.377 -11.089  0.00  0.00    -0.361 N 
ATOM     32  H   UNL     1      -2.863  -4.431 -11.302  0.00  0.00    +0.165 HD
ATOM     33  C   UNL     1      -2.845  -5.902  -9.815  0.00  0.00    +0.047 A 
ATOM     34  C   UNL     1      -2.853  -5.333  -8.550  0.00  0.00    +0.039 A 
ENDBRANCH  22  25
ENDBRANCH   3  21
TORSDOF 7
