REMARK  Name = ZINC01820208
REMARK  11 active torsions:
REMARK  status: ('A' for Active; 'I' for Inactive)
REMARK    1  A    between atoms: C_1  and  C_2
REMARK    2  A    between atoms: C_5  and  C_8
REMARK    3  A    between atoms: C_11  and  S_20
REMARK    4  A    between atoms: N_12  and  C_13
REMARK    5  A    between atoms: C_16  and  C_19
REMARK    6  A    between atoms: S_20  and  C_21
REMARK    7  A    between atoms: C_21  and  C_22
REMARK    8  A    between atoms: N_24  and  N_25
REMARK    9  A    between atoms: C_26  and  C_27
REMARK   10  A    between atoms: C_31  and  O_33
REMARK   11  A    between atoms: O_33  and  C_34
REMARK                            x       y       z     vdW  Elec       q    Type
REMARK                         _______ _______ _______ _____ _____    ______ ____
ROOT
ATOM      1  S   UNL     1      -2.542  -8.394   2.480  0.00  0.00    -0.076 S 
ENDROOT
BRANCH   1   5
ATOM      2  C   UNL     1      -4.114  -4.998   1.343  0.00  0.00    +0.169 A 
ATOM      3  N   UNL     1      -4.214  -5.740   0.265  0.00  0.00    -0.128 NA
ATOM      4  N   UNL     1      -3.729  -6.909   0.488  0.00  0.00    -0.122 NA
ATOM      5  C   UNL     1      -3.288  -6.988   1.723  0.00  0.00    +0.197 A 
ATOM      6  N   UNL     1      -3.512  -5.773   2.311  0.00  0.00    -0.270 N 
BRANCH   2  11
ATOM      7  C   UNL     1      -5.838   0.462   1.913  0.00  0.00    +0.044 C 
ATOM      8  C   UNL     1      -5.387  -0.968   1.764  0.00  0.00    -0.050 A 
ATOM      9  C   UNL     1      -5.274  -1.527   0.503  0.00  0.00    +0.004 A 
ATOM     10  C   UNL     1      -4.861  -2.835   0.360  0.00  0.00    +0.012 A 
ATOM     11  C   UNL     1      -4.556  -3.596   1.490  0.00  0.00    +0.020 A 
ATOM     12  C   UNL     1      -4.672  -3.026   2.759  0.00  0.00    +0.012 A 
ATOM     13  C   UNL     1      -5.081  -1.715   2.888  0.00  0.00    +0.004 A 
ENDBRANCH   2  11
BRANCH   6  14
ATOM     14  C   UNL     1      -3.197  -5.396   3.624  0.00  0.00    +0.051 A 
ATOM     15  C   UNL     1      -2.259  -4.399   3.856  0.00  0.00    +0.026 A 
ATOM     16  C   UNL     1      -1.952  -4.029   5.151  0.00  0.00    +0.005 A 
ATOM     17  C   UNL     1      -2.577  -4.651   6.216  0.00  0.00    -0.050 A 
ATOM     18  C   UNL     1      -3.511  -5.645   5.988  0.00  0.00    +0.005 A 
ATOM     19  C   UNL     1      -3.827  -6.014   4.695  0.00  0.00    +0.026 A 
ATOM     20  C   UNL     1      -2.239  -4.246   7.627  0.00  0.00    +0.044 C 
ENDBRANCH   6  14
ENDBRANCH   1   5
BRANCH   1  21
ATOM     21  C   UNL     1      -2.540  -9.648   1.169  0.00  0.00    +0.174 C 
BRANCH  21  22
ATOM     22  C   UNL     1      -1.920 -10.918   1.691  0.00  0.00    +0.242 C 
ATOM     23  O   UNL     1      -1.519 -10.973   2.834  0.00  0.00    -0.273 OA
ATOM     24  N   UNL     1      -1.812 -11.995   0.887  0.00  0.00    -0.206 N 
ATOM     25  H   UNL     1      -2.133 -11.951  -0.028  0.00  0.00    +0.177 HD
BRANCH  24  26
ATOM     26  N   UNL     1      -1.236 -13.176   1.371  0.00  0.00    -0.188 NA
ATOM     27  C   UNL     1      -1.131 -14.212   0.598  0.00  0.00    +0.138 C 
BRANCH  27  28
ATOM     28  C   UNL     1      -0.524 -15.456   1.108  0.00  0.00    -0.002 A 
ATOM     29  C   UNL     1      -0.066 -15.523   2.426  0.00  0.00    +0.010 A 
ATOM     30  C   UNL     1       0.501 -16.688   2.900  0.00  0.00    +0.004 A 
ATOM     31  C   UNL     1       0.618 -17.791   2.074  0.00  0.00    +0.046 A 
ATOM     32  C   UNL     1       0.166 -17.734   0.762  0.00  0.00    +0.129 A 
ATOM     33  C   UNL     1      -0.411 -16.572   0.278  0.00  0.00    +0.055 A 
BRANCH  32  34
ATOM     34  O   UNL     1       0.285 -18.821  -0.045  0.00  0.00    -0.456 OA
BRANCH  34  35
ATOM     35  C   UNL     1      -0.161 -18.718  -1.324  0.00  0.00    +0.128 A 
ATOM     36  C   UNL     1       0.696 -18.286  -2.326  0.00  0.00    +0.046 A 
ATOM     37  C   UNL     1       0.240 -18.182  -3.626  0.00  0.00    +0.004 A 
ATOM     38  C   UNL     1      -1.069 -18.507  -3.929  0.00  0.00    +0.000 A 
ATOM     39  C   UNL     1      -1.926 -18.937  -2.932  0.00  0.00    +0.004 A 
ATOM     40  C   UNL     1      -1.473 -19.049  -1.631  0.00  0.00    +0.046 A 
ENDBRANCH  34  35
ENDBRANCH  32  34
ENDBRANCH  27  28
ENDBRANCH  24  26
ENDBRANCH  21  22
ENDBRANCH   1  21
TORSDOF 9
