REMARK  Name = ZINC07061214
REMARK  5 active torsions:
REMARK  status: ('A' for Active; 'I' for Inactive)
REMARK    1  A    between atoms: C_1  and  C_2
REMARK    2  A    between atoms: C_9  and  S_12
REMARK    3  A    between atoms: S_12  and  C_13
REMARK    4  A    between atoms: C_13  and  C_15
REMARK    5  A    between atoms: C_13  and  C_16
REMARK                            x       y       z     vdW  Elec       q    Type
REMARK                         _______ _______ _______ _____ _____    ______ ____
ROOT
ATOM      1  S   UNL     1      -3.862   5.053   2.177  0.00  0.00    -0.075 S 
ENDROOT
BRANCH   1  10
ATOM      2  C   UNL     1      -1.500   5.359   9.468  0.00  0.00    +0.044 C 
ATOM      3  C   UNL     1      -2.063   5.791   8.139  0.00  0.00    -0.048 A 
ATOM      4  C   UNL     1      -2.477   7.103   7.960  0.00  0.00    +0.005 A 
ATOM      5  C   UNL     1      -2.995   7.513   6.749  0.00  0.00    +0.028 A 
ATOM      6  C   UNL     1      -3.101   6.610   5.702  0.00  0.00    +0.067 A 
ATOM      7  C   UNL     1      -2.683   5.281   5.877  0.00  0.00    +0.090 A 
ATOM      8  C   UNL     1      -2.162   4.881   7.110  0.00  0.00    +0.033 A 
ATOM      9  N   UNL     1      -2.902   4.634   4.703  0.00  0.00    -0.222 NA
ATOM     10  C   UNL     1      -3.419   5.466   3.832  0.00  0.00    +0.168 A 
ATOM     11  N   UNL     1      -3.557   6.702   4.397  0.00  0.00    -0.333 N 
ATOM     12  H   UNL     1      -3.920   7.521   3.952  0.00  0.00    +0.168 HD
ENDBRANCH   1  10
BRANCH   1  13
ATOM     13  C   UNL     1      -3.398   3.304   2.154  0.00  0.00    +0.137 C 
ATOM     14  C   UNL     1      -4.285   2.528   3.130  0.00  0.00    +0.029 C 
BRANCH  13  15
ATOM     15  C   UNL     1      -3.582   2.754   0.763  0.00  0.00    +0.229 C 
ATOM     16  O   UNL     1      -4.304   3.326  -0.025  0.00  0.00    -0.274 OA
ATOM     17  N   UNL     1      -2.943   1.626   0.395  0.00  0.00    -0.301 N 
ATOM     18  C   UNL     1      -2.089   0.967   1.358  0.00  0.00    +0.108 C 
ATOM     19  C   UNL     1      -0.655   1.537   1.252  0.00  0.00    +0.019 C 
ATOM     20  C   UNL     1      -0.013   1.086   0.008  0.00  0.00    +0.002 C 
ATOM     21  C   UNL     1      -0.704   1.568  -1.264  0.00  0.00    +0.002 C 
ATOM     22  C   UNL     1      -1.829   0.625  -1.610  0.00  0.00    +0.019 C 
ATOM     23  C   UNL     1      -3.143   1.114  -0.975  0.00  0.00    +0.108 C 
ENDBRANCH  13  15
ENDBRANCH   1  13
TORSDOF 3
