REMARK  Name = ZINC64502499
REMARK  10 active torsions:
REMARK  status: ('A' for Active; 'I' for Inactive)
REMARK    1  A    between atoms: C_1  and  C_2
REMARK    2  A    between atoms: C_2  and  C_3
REMARK    3  A    between atoms: C_3  and  C_4
REMARK    4  A    between atoms: C_8  and  C_11
REMARK    5  A    between atoms: N_13  and  C_14
REMARK    6  A    between atoms: C_18  and  C_20
REMARK    7  A    between atoms: N_22  and  C_23
REMARK    8  A    between atoms: C_23  and  C_24
REMARK    9  A    between atoms: C_24  and  C_25
REMARK   10  A    between atoms: C_28  and  C_34
REMARK                            x       y       z     vdW  Elec       q    Type
REMARK                         _______ _______ _______ _____ _____    ______ ____
ROOT
ATOM      1  C   UNL     1       6.321  -4.780   1.203  0.00  0.00    +0.034 A 
ATOM      2  C   UNL     1       6.859  -3.792   0.387  0.00  0.00    +0.023 A 
ATOM      3  C   UNL     1       8.227  -3.701   0.212  0.00  0.00    +0.003 A 
ATOM      4  C   UNL     1       9.069  -4.593   0.846  0.00  0.00    +0.013 A 
ATOM      5  C   UNL     1       8.539  -5.589   1.667  0.00  0.00    +0.038 A 
ATOM      6  C   UNL     1       7.159  -5.676   1.849  0.00  0.00    +0.036 A 
ENDROOT
BRANCH   1   9
ATOM      7  C   UNL     1       4.428  -5.240   2.568  0.00  0.00    +0.254 C 
ATOM      8  O   UNL     1       5.171  -5.581   3.464  0.00  0.00    -0.272 OA
ATOM      9  N   UNL     1       4.935  -4.867   1.377  0.00  0.00    -0.283 N 
ATOM     10  H   UNL     1       4.340  -4.659   0.640  0.00  0.00    +0.155 HD
BRANCH   7  14
ATOM     11  C   UNL     1       1.138  -6.874   4.017  0.00  0.00    +0.187 C 
ATOM     12  N   UNL     1       1.475  -7.059   2.587  0.00  0.00    -0.177 NA
ATOM     13  N   UNL     1       2.277  -6.328   2.039  0.00  0.00    -0.167 NA
ATOM     14  C   UNL     1       2.937  -5.234   2.787  0.00  0.00    +0.272 C 
ATOM     15  S   UNL     1       2.506  -5.735   4.515  0.00  0.00    -0.095 S 
BRANCH  11  16
ATOM     16  C   UNL     1       1.208  -8.197   4.782  0.00  0.00    +0.039 C 
BRANCH  16  18
ATOM     17  C   UNL     1       0.935  -9.277   7.018  0.00  0.00    +0.004 C 
ATOM     18  C   UNL     1       0.865  -7.954   6.253  0.00  0.00    -0.000 C 
ENDBRANCH  16  18
ENDBRANCH  11  16
ENDBRANCH   7  14
ENDBRANCH   1   9
BRANCH   5  19
ATOM     19  C   UNL     1       9.438  -6.545   2.348  0.00  0.00    +0.244 C 
ATOM     20  O   UNL     1       8.975  -7.412   3.063  0.00  0.00    -0.270 OA
ATOM     21  N   UNL     1      10.772  -6.455   2.175  0.00  0.00    -0.311 N 
ATOM     22  H   UNL     1      11.142  -5.763   1.605  0.00  0.00    +0.149 HD
BRANCH  21  23
ATOM     23  C   UNL     1      11.663  -7.402   2.849  0.00  0.00    +0.109 C 
BRANCH  23  24
ATOM     24  C   UNL     1      13.115  -7.083   2.488  0.00  0.00    +0.052 C 
BRANCH  24  25
ATOM     25  C   UNL     1      14.032  -8.057   3.181  0.00  0.00    -0.040 C 
ATOM     26  C   UNL     1      14.541  -9.201   2.669  0.00  0.00    -0.001 A 
ATOM     27  C   UNL     1      14.397  -9.856   1.363  0.00  0.00    +0.013 A 
ATOM     28  C   UNL     1      15.044 -11.022   1.139  0.00  0.00    -0.050 A 
ATOM     29  C   UNL     1      15.845 -11.621   2.121  0.00  0.00    +0.005 A 
ATOM     30  C   UNL     1      16.025 -11.080   3.345  0.00  0.00    +0.026 A 
ATOM     31  C   UNL     1      15.393  -9.853   3.689  0.00  0.00    +0.043 A 
ATOM     32  N   UNL     1      15.410  -9.141   4.789  0.00  0.00    -0.380 N 
ATOM     33  C   UNL     1      14.575  -7.951   4.589  0.00  0.00    +0.144 C 
ATOM     34  C   UNL     1      14.898 -11.697  -0.201  0.00  0.00    +0.044 C 
ATOM     35  H   UNL     1      15.897  -9.361   5.598  0.00  0.00    +0.160 HD
ENDBRANCH  24  25
ENDBRANCH  23  24
ENDBRANCH  21  23
ENDBRANCH   5  19
TORSDOF 8
