REMARK  Name = ZINC08492756
REMARK  11 active torsions:
REMARK  status: ('A' for Active; 'I' for Inactive)
REMARK    1  A    between atoms: C_1  and  C_2
REMARK    2  A    between atoms: C_5  and  O_8
REMARK    3  A    between atoms: O_8  and  C_9
REMARK    4  A    between atoms: C_9  and  C_10
REMARK    5  A    between atoms: C_10  and  O_11
REMARK    6  A    between atoms: O_11  and  C_12
REMARK    7  A    between atoms: C_12  and  C_13
REMARK    8  A    between atoms: C_13  and  O_14
REMARK    9  A    between atoms: O_14  and  C_15
REMARK   10  A    between atoms: C_20  and  C_21
REMARK   11  A    between atoms: N_22  and  N_23
REMARK                            x       y       z     vdW  Elec       q    Type
REMARK                         _______ _______ _______ _____ _____    ______ ____
ROOT
ATOM      1  C   UNL     1      -0.486   3.812   0.061  0.00  0.00    +0.129 A 
ATOM      2  C   UNL     1      -1.716   3.182  -0.029  0.00  0.00    +0.046 A 
ATOM      3  C   UNL     1      -1.790   1.802  -0.042  0.00  0.00    +0.004 A 
ATOM      4  C   UNL     1      -0.638   1.039   0.045  0.00  0.00    +0.001 A 
ATOM      5  C   UNL     1       0.596   1.649   0.135  0.00  0.00    +0.013 A 
ATOM      6  C   UNL     1       0.683   3.043   0.144  0.00  0.00    +0.036 A 
ENDROOT
BRANCH   6   7
ATOM      7  C   UNL     1       1.998   3.702   0.241  0.00  0.00    +0.142 C 
ATOM      8  N   UNL     1       3.070   2.991   0.416  0.00  0.00    -0.187 NA
BRANCH   8   9
ATOM      9  N   UNL     1       4.305   3.622   0.613  0.00  0.00    -0.205 N 
ATOM     10  C   UNL     1       5.459   2.868   0.696  0.00  0.00    +0.241 A 
ATOM     11  N   UNL     1       5.412   1.554   0.496  0.00  0.00    -0.180 NA
ATOM     12  C   UNL     1       6.524   0.830   0.571  0.00  0.00    +0.224 A 
ATOM     13  N   UNL     1       7.682   1.418   0.857  0.00  0.00    -0.181 NA
ATOM     14  C   UNL     1       7.728   2.730   1.062  0.00  0.00    +0.224 A 
ATOM     15  N   UNL     1       6.617   3.456   0.982  0.00  0.00    -0.180 NA
ATOM     16  N   UNL     1       8.931   3.340   1.360  0.00  0.00    -0.299 N 
ATOM     17  C   UNL     1       9.894   3.192   0.239  0.00  0.00    +0.108 C 
ATOM     18  C   UNL     1      10.917   4.326   0.499  0.00  0.00    +0.020 C 
ATOM     19  C   UNL     1      10.030   5.479   1.022  0.00  0.00    +0.020 C 
ATOM     20  C   UNL     1       8.754   4.796   1.549  0.00  0.00    +0.108 C 
ATOM     21  N   UNL     1       6.476  -0.532   0.357  0.00  0.00    -0.299 N 
ATOM     22  C   UNL     1       6.768  -1.278   1.607  0.00  0.00    +0.108 C 
ATOM     23  C   UNL     1       6.169  -2.680   1.332  0.00  0.00    +0.020 C 
ATOM     24  C   UNL     1       4.884  -2.357   0.535  0.00  0.00    +0.020 C 
ATOM     25  C   UNL     1       5.121  -0.956  -0.059  0.00  0.00    +0.108 C 
ATOM     26  H   UNL     1       4.349   4.587   0.690  0.00  0.00    +0.177 HD
ENDBRANCH   8   9
ENDBRANCH   6   7
BRANCH   1  27
ATOM     27  O   UNL     1      -0.412   5.168   0.070  0.00  0.00    -0.489 OA
BRANCH  27  28
ATOM     28  C   UNL     1      -1.648   5.884   0.093  0.00  0.00    +0.257 C 
BRANCH  28  29
ATOM     29  C   UNL     1      -1.370   7.385  -0.015  0.00  0.00    +0.201 C 
BRANCH  29  30
ATOM     30  O   UNL     1      -0.811   7.674  -1.298  0.00  0.00    -0.373 OA
BRANCH  30  31
ATOM     31  C   UNL     1      -0.408   9.035  -1.463  0.00  0.00    +0.201 C 
BRANCH  31  32
ATOM     32  C   UNL     1       0.057   9.258  -2.904  0.00  0.00    +0.257 C 
BRANCH  32  33
ATOM     33  O   UNL     1      -1.045   9.076  -3.794  0.00  0.00    -0.490 OA
BRANCH  33  38
ATOM     34  C   UNL     1      -0.029   9.752  -9.293  0.00  0.00    +0.044 C 
ATOM     35  C   UNL     1      -0.301   9.571  -7.822  0.00  0.00    -0.050 A 
ATOM     36  C   UNL     1      -1.573   9.244  -7.390  0.00  0.00    +0.007 A 
ATOM     37  C   UNL     1      -1.825   9.078  -6.042  0.00  0.00    +0.046 A 
ATOM     38  C   UNL     1      -0.800   9.239  -5.121  0.00  0.00    +0.121 A 
ATOM     39  C   UNL     1       0.474   9.573  -5.556  0.00  0.00    +0.046 A 
ATOM     40  C   UNL     1       0.722   9.732  -6.906  0.00  0.00    +0.007 A 
ENDBRANCH  33  38
ENDBRANCH  32  33
ENDBRANCH  31  32
ENDBRANCH  30  31
ENDBRANCH  29  30
ENDBRANCH  28  29
ENDBRANCH  27  28
ENDBRANCH   1  27
TORSDOF 10
