REMARK  Name = ZINC67103941
REMARK  13 active torsions:
REMARK  status: ('A' for Active; 'I' for Inactive)
REMARK    1  A    between atoms: C_1  and  C_2
REMARK    2  A    between atoms: C_2  and  C_3
REMARK    3  A    between atoms: C_2  and  C_4
REMARK    4  A    between atoms: C_4  and  C_5
REMARK    5  A    between atoms: C_5  and  C_6
REMARK    6  A    between atoms: N_8  and  N_9
REMARK    7  A    between atoms: N_12  and  C_13
REMARK    8  A    between atoms: C_13  and  C_14
REMARK    9  A    between atoms: C_14  and  C_16
REMARK   10  A    between atoms: C_14  and  N_19
REMARK   11  A    between atoms: C_16  and  C_17
REMARK   12  A    between atoms: C_16  and  C_18
REMARK   13  A    between atoms: N_19  and  C_20
REMARK                            x       y       z     vdW  Elec       q    Type
REMARK                         _______ _______ _______ _____ _____    ______ ____
ROOT
ATOM      1  N   UNL     1       5.562  -2.183  -3.018  0.00  0.00    -0.218 N 
ATOM      2  C   UNL     1       6.768  -1.650  -3.296  0.00  0.00    +0.316 C 
ATOM      3  O   UNL     1       7.469  -2.148  -4.156  0.00  0.00    -0.251 OA
ATOM      4  N   UNL     1       7.198  -0.565  -2.622  0.00  0.00    -0.296 N 
ATOM      5  H   UNL     1       5.253  -2.964  -3.503  0.00  0.00    +0.174 HD
ATOM      6  H   UNL     1       6.639  -0.168  -1.936  0.00  0.00    +0.150 HD
ENDROOT
BRANCH   1   9
ATOM      7  C   UNL     1       3.549  -2.142  -1.748  0.00  0.00    +0.229 C 
ATOM      8  O   UNL     1       3.162  -3.118  -2.355  0.00  0.00    -0.274 OA
ATOM      9  N   UNL     1       4.755  -1.609  -2.027  0.00  0.00    -0.233 N 
ATOM     10  H   UNL     1       5.064  -0.828  -1.542  0.00  0.00    +0.173 HD
BRANCH   7  11
ATOM     11  C   UNL     1       2.680  -1.525  -0.682  0.00  0.00    +0.097 C 
BRANCH  11  12
ATOM     12  C   UNL     1       1.376  -2.316  -0.566  0.00  0.00    +0.012 C 
BRANCH  12  14
ATOM     13  C   UNL     1       0.077  -0.282   0.082  0.00  0.00    +0.007 C 
ATOM     14  C   UNL     1       0.494  -1.689   0.516  0.00  0.00    -0.017 C 
ATOM     15  C   UNL     1      -0.754  -2.550   0.719  0.00  0.00    +0.007 C 
ENDBRANCH  12  14
ENDBRANCH  11  12
ENDBRANCH   7  11
ENDBRANCH   1   9
BRANCH   4  16
ATOM     16  C   UNL     1       8.509   0.014  -2.925  0.00  0.00    +0.128 C 
BRANCH  16  17
ATOM     17  C   UNL     1       8.751   1.227  -2.024  0.00  0.00    +0.090 C 
BRANCH  17  18
ATOM     18  C   UNL     1      10.168   1.757  -2.252  0.00  0.00    +0.005 C 
ATOM     19  C   UNL     1      10.281   2.316  -3.672  0.00  0.00    +0.009 C 
ATOM     20  C   UNL     1      10.466   2.866  -1.241  0.00  0.00    +0.009 C 
ENDBRANCH  17  18
BRANCH  17  21
ATOM     21  N   UNL     1       8.596   0.833  -0.622  0.00  0.00    -0.339 N 
ATOM     22  H   UNL     1       9.082   0.068  -0.277  0.00  0.00    +0.146 HD
BRANCH  21  23
ATOM     23  C   UNL     1       7.750   1.560   0.218  0.00  0.00    +0.027 A 
ATOM     24  C   UNL     1       7.194   2.755  -0.218  0.00  0.00    +0.023 A 
ATOM     25  C   UNL     1       6.356   3.471   0.615  0.00  0.00    +0.002 A 
ATOM     26  C   UNL     1       6.072   2.999   1.883  0.00  0.00    +0.000 A 
ATOM     27  C   UNL     1       6.623   1.809   2.321  0.00  0.00    +0.002 A 
ATOM     28  C   UNL     1       7.457   1.085   1.491  0.00  0.00    +0.023 A 
ENDBRANCH  21  23
ENDBRANCH  17  21
ENDBRANCH  16  17
ENDBRANCH   4  16
TORSDOF 9
