REMARK  Name = ZINC38597560
REMARK  7 active torsions:
REMARK  status: ('A' for Active; 'I' for Inactive)
REMARK    1  A    between atoms: C_1  and  C_2
REMARK    2  A    between atoms: C_3  and  C_11
REMARK    3  A    between atoms: N_13  and  C_14
REMARK    4  A    between atoms: C_14  and  C_15
REMARK    5  A    between atoms: C_15  and  C_17
REMARK    6  A    between atoms: C_15  and  N_22
REMARK    7  A    between atoms: N_25  and  C_28
REMARK                            x       y       z     vdW  Elec       q    Type
REMARK                         _______ _______ _______ _____ _____    ______ ____
ROOT
ATOM      1  C   UNL     1      -0.051  -2.173  -5.662  0.00  0.00    +0.017 C 
ENDROOT
BRANCH   1   2
ATOM      2  N   UNL     1      -1.163  -3.071  -5.324  0.00  0.00    +0.389 N 
ATOM      3  C   UNL     1      -1.084  -4.280  -6.153  0.00  0.00    -0.059 C 
ATOM      4  C   UNL     1      -2.306  -5.164  -5.883  0.00  0.00    +0.086 C 
ATOM      5  N   UNL     1      -2.384  -5.424  -4.438  0.00  0.00    -0.333 N 
ATOM      6  C   UNL     1      -2.306  -4.275  -3.522  0.00  0.00    +0.086 C 
ATOM      7  C   UNL     1      -1.084  -3.433  -3.903  0.00  0.00    -0.059 C 
ATOM      8  H   UNL     1      -2.039  -2.601  -5.501  0.00  0.00    -0.081 HD
BRANCH   5   9
ATOM      9  C   UNL     1      -2.528  -6.725  -3.947  0.00  0.00    +0.030 A 
ATOM     10  C   UNL     1      -2.724  -6.939  -2.589  0.00  0.00    +0.026 A 
ATOM     11  C   UNL     1      -2.867  -8.226  -2.107  0.00  0.00    +0.040 A 
ATOM     12  C   UNL     1      -2.815  -9.302  -2.977  0.00  0.00    +0.124 A 
ATOM     13  C   UNL     1      -2.619  -9.091  -4.332  0.00  0.00    +0.040 A 
ATOM     14  C   UNL     1      -2.481  -7.806  -4.819  0.00  0.00    +0.026 A 
ATOM     15  F   UNL     1      -2.954 -10.559  -2.504  0.00  0.00    -0.205 F 
ENDBRANCH   5   9
ENDBRANCH   1   2
BRANCH   1  16
ATOM     16  C   UNL     1      -0.188  -1.720  -7.093  0.00  0.00    +0.093 A 
ATOM     17  C   UNL     1       0.819  -1.587  -7.975  0.00  0.00    +0.043 A 
ATOM     18  C   UNL     1       0.244  -1.142  -9.188  0.00  0.00    +0.041 A 
ATOM     19  C   UNL     1      -1.079  -1.030  -8.974  0.00  0.00    +0.195 A 
ATOM     20  O   UNL     1      -1.336  -1.387  -7.705  0.00  0.00    -0.469 OA
ENDBRANCH   1  16
BRANCH   1  21
ATOM     21  C   UNL     1      -0.079  -0.955  -4.737  0.00  0.00    +0.097 C 
BRANCH  21  24
ATOM     22  C   UNL     1      -1.625   0.835  -4.148  0.00  0.00    +0.263 C 
ATOM     23  O   UNL     1      -0.712   1.394  -3.567  0.00  0.00    -0.269 OA
ATOM     24  N   UNL     1      -1.398  -0.320  -4.805  0.00  0.00    -0.311 N 
ATOM     25  H   UNL     1      -2.107  -0.731  -5.323  0.00  0.00    +0.149 HD
BRANCH  22  28
ATOM     26  C   UNL     1      -2.490   3.320  -2.474  0.00  0.00    +0.068 C 
ATOM     27  C   UNL     1      -3.345   2.499  -3.404  0.00  0.00    +0.069 A 
ATOM     28  C   UNL     1      -2.926   1.398  -4.133  0.00  0.00    +0.131 A 
ATOM     29  N   UNL     1      -4.027   0.957  -4.844  0.00  0.00    -0.295 N 
ATOM     30  C   UNL     1      -4.205  -0.072  -5.714  0.00  0.00    +0.093 A 
ATOM     31  C   UNL     1      -5.411  -0.292  -6.285  0.00  0.00    +0.018 A 
ATOM     32  C   UNL     1      -6.495   0.545  -5.984  0.00  0.00    +0.005 A 
ATOM     33  C   UNL     1      -6.325   1.579  -5.113  0.00  0.00    +0.047 A 
ATOM     34  C   UNL     1      -5.063   1.790  -4.530  0.00  0.00    +0.138 A 
ATOM     35  N   UNL     1      -4.627   2.701  -3.661  0.00  0.00    -0.232 NA
ENDBRANCH  22  28
ENDBRANCH  21  24
ENDBRANCH   1  21
TORSDOF 6
