REMARK  Name = ZINC21587381
REMARK  6 active torsions:
REMARK  status: ('A' for Active; 'I' for Inactive)
REMARK    1  A    between atoms: C_4  and  C_7
REMARK    2  A    between atoms: C_7  and  C_8
REMARK    3  A    between atoms: C_13  and  N_14
REMARK    4  A    between atoms: C_15  and  C_17
REMARK    5  A    between atoms: N_22  and  S_24
REMARK    6  A    between atoms: S_24  and  C_27
REMARK                            x       y       z     vdW  Elec       q    Type
REMARK                         _______ _______ _______ _____ _____    ______ ____
ROOT
ATOM      1  N   UNL     1      -3.479   8.513   4.459  0.00  0.00    -0.285 N 
ATOM      2  C   UNL     1      -2.705   7.756   3.656  0.00  0.00    +0.222 C 
ATOM      3  O   UNL     1      -1.503   7.911   3.651  0.00  0.00    -0.275 OA
ATOM      4  H   UNL     1      -4.574   8.404   4.430  0.00  0.00    +0.155 HD
ENDROOT
BRANCH   1  10
ATOM      5  C   UNL     1      -3.566   9.846   6.471  0.00  0.00    -0.022 A 
ATOM      6  C   UNL     1      -2.979  10.755   7.330  0.00  0.00    +0.006 A 
ATOM      7  C   UNL     1      -1.727  11.268   7.047  0.00  0.00    +0.000 A 
ATOM      8  C   UNL     1      -1.055  10.869   5.906  0.00  0.00    +0.002 A 
ATOM      9  C   UNL     1      -1.633   9.956   5.046  0.00  0.00    +0.023 A 
ATOM     10  C   UNL     1      -2.891   9.439   5.328  0.00  0.00    +0.037 A 
BRANCH   5  11
ATOM     11  C   UNL     1      -4.933   9.292   6.777  0.00  0.00    +0.072 C 
BRANCH  11  15
ATOM     12  C   UNL     1      -4.535   5.570   8.835  0.00  0.00    +0.000 A 
ATOM     13  C   UNL     1      -4.599   6.752   9.550  0.00  0.00    +0.000 A 
ATOM     14  C   UNL     1      -4.728   7.956   8.884  0.00  0.00    +0.004 A 
ATOM     15  C   UNL     1      -4.793   7.979   7.503  0.00  0.00    -0.043 A 
ATOM     16  C   UNL     1      -4.734   6.797   6.789  0.00  0.00    +0.004 A 
ATOM     17  C   UNL     1      -4.601   5.593   7.455  0.00  0.00    +0.000 A 
ENDBRANCH  11  15
ENDBRANCH   5  11
ENDBRANCH   1  10
BRANCH   2  18
ATOM     18  C   UNL     1      -3.335   6.716   2.765  0.00  0.00    +0.091 C 
ATOM     19  C   UNL     1      -4.084   5.694   3.623  0.00  0.00    +0.015 C 
ATOM     20  C   UNL     1      -4.750   4.656   2.717  0.00  0.00    +0.018 C 
ATOM     21  C   UNL     1      -3.679   3.922   1.913  0.00  0.00    +0.109 C 
ATOM     22  N   UNL     1      -2.857   4.908   1.198  0.00  0.00    -0.175 NA
ATOM     23  C   UNL     1      -2.243   6.002   1.962  0.00  0.00    +0.122 C 
BRANCH  22  24
ATOM     24  S   UNL     1      -2.632   4.791  -0.438  0.00  0.00    +0.067 S 
ATOM     25  O   UNL     1      -2.320   6.099  -0.899  0.00  0.00    -0.152 OA
ATOM     26  O   UNL     1      -3.730   4.046  -0.947  0.00  0.00    -0.152 OA
BRANCH  24  27
ATOM     27  C   UNL     1      -1.193   3.809  -0.698  0.00  0.00    +0.143 A 
ATOM     28  C   UNL     1      -1.092   2.466  -0.850  0.00  0.00    +0.036 A 
ATOM     29  C   UNL     1       0.157   1.905  -1.041  0.00  0.00    +0.010 A 
ATOM     30  C   UNL     1       1.242   2.715  -1.082  0.00  0.00    +0.047 A 
ATOM     31  S   UNL     1       0.511   4.325  -0.838  0.00  0.00    -0.077 S 
ENDBRANCH  24  27
ENDBRANCH  22  24
ENDBRANCH   2  18
TORSDOF 6
