REMARK  Name = ZINC14547831
REMARK  3 active torsions:
REMARK  status: ('A' for Active; 'I' for Inactive)
REMARK    1  A    between atoms: C_9  and  O_29
REMARK    2  A    between atoms: C_10  and  C_11
REMARK    3  A    between atoms: C_24  and  C_27
REMARK                            x       y       z     vdW  Elec       q    Type
REMARK                         _______ _______ _______ _____ _____    ______ ____
ROOT
ATOM      1  C   UNL     1      -0.093   0.074  -0.045  0.00  0.00    +0.109 C 
ATOM      2  C   UNL     1       0.609  -0.774   0.995  0.00  0.00    +0.029 C 
ATOM      3  C   UNL     1       0.297  -2.275   1.029  0.00  0.00    +0.033 C 
ATOM      4  C   UNL     1       1.614  -2.847   1.561  0.00  0.00    -0.030 C 
ATOM      5  C   UNL     1       2.618  -2.032   1.256  0.00  0.00    -0.023 C 
ATOM      6  C   UNL     1       2.078  -0.889   0.480  0.00  0.00    +0.049 C 
ATOM      7  C   UNL     1       2.659   0.470   0.547  0.00  0.00    -0.018 A 
ATOM      8  C   UNL     1       3.995   0.674   0.819  0.00  0.00    +0.006 A 
ATOM      9  C   UNL     1       4.523   1.953   0.865  0.00  0.00    +0.002 A 
ATOM     10  C   UNL     1       3.708   3.040   0.634  0.00  0.00    +0.021 A 
ATOM     11  C   UNL     1       2.355   2.853   0.362  0.00  0.00    +0.073 A 
ATOM     12  C   UNL     1       1.806   1.553   0.325  0.00  0.00    +0.049 A 
ATOM     13  N   UNL     1       0.448   1.438   0.073  0.00  0.00    -0.335 N 
ATOM     14  H   UNL     1       0.177   2.004  -0.717  0.00  0.00    +0.147 HD
ENDROOT
BRANCH   1  24
ATOM     15  C   UNL     1      -1.882  -3.806  -2.862  0.00  0.00    +0.001 A 
ATOM     16  C   UNL     1      -2.149  -3.316  -1.584  0.00  0.00    +0.001 A 
ATOM     17  C   UNL     1      -1.488  -2.231  -1.097  0.00  0.00    +0.009 A 
ATOM     18  C   UNL     1      -0.521  -1.591  -1.892  0.00  0.00    -0.009 A 
ATOM     19  C   UNL     1      -0.250  -2.089  -3.192  0.00  0.00    -0.017 A 
ATOM     20  C   UNL     1      -0.953  -3.212  -3.659  0.00  0.00    +0.008 A 
ATOM     21  C   UNL     1       0.717  -1.451  -3.988  0.00  0.00    +0.012 A 
ATOM     22  C   UNL     1       1.380  -0.367  -3.504  0.00  0.00    +0.046 A 
ATOM     23  C   UNL     1       1.111   0.129  -2.225  0.00  0.00    +0.122 A 
ATOM     24  C   UNL     1       0.181  -0.470  -1.423  0.00  0.00    +0.022 A 
BRANCH  23  25
ATOM     25  O   UNL     1       1.786   1.218  -1.772  0.00  0.00    -0.506 OA
ATOM     26  H   UNL     1       2.664   1.017  -1.418  0.00  0.00    +0.292 HD
ENDBRANCH  23  25
ENDBRANCH   1  24
BRANCH  11  27
ATOM     27  C   UNL     1       1.515   3.986   0.117  0.00  0.00    +0.101 C 
ATOM     28  N   UNL     1       0.849   4.886  -0.076  0.00  0.00    -0.191 NA
ENDBRANCH  11  27
TORSDOF 3
