REMARK  Name = ZINC58999363
REMARK  10 active torsions:
REMARK  status: ('A' for Active; 'I' for Inactive)
REMARK    1  A    between atoms: C_1  and  C_2
REMARK    2  A    between atoms: N_4  and  C_9
REMARK    3  A    between atoms: C_6  and  C_8
REMARK    4  A    between atoms: C_12  and  C_16
REMARK    5  A    between atoms: C_16  and  N_17
REMARK    6  A    between atoms: C_18  and  C_20
REMARK    7  A    between atoms: C_20  and  C_21
REMARK    8  A    between atoms: C_20  and  N_24
REMARK    9  A    between atoms: C_21  and  C_22
REMARK   10  A    between atoms: C_21  and  C_23
REMARK                            x       y       z     vdW  Elec       q    Type
REMARK                         _______ _______ _______ _____ _____    ______ ____
ROOT
ATOM      1  C   UNL     1       4.801   2.555  -5.380  0.00  0.00    +0.139 C 
ENDROOT
BRANCH   1   5
ATOM      2  C   UNL     1       2.801   0.528  -2.191  0.00  0.00    +0.066 A 
ATOM      3  C   UNL     1       2.823   1.915  -2.229  0.00  0.00    +0.026 A 
ATOM      4  C   UNL     1       3.471   2.567  -3.260  0.00  0.00    +0.007 A 
ATOM      5  C   UNL     1       4.096   1.840  -4.256  0.00  0.00    -0.027 A 
ATOM      6  C   UNL     1       4.076   0.458  -4.224  0.00  0.00    +0.045 A 
ATOM      7  C   UNL     1       3.435  -0.202  -3.191  0.00  0.00    +0.145 A 
ATOM      8  F   UNL     1       3.421  -1.552  -3.156  0.00  0.00    -0.204 F 
BRANCH   2  12
ATOM      9  C   UNL     1      -0.019   1.526   0.010  0.00  0.00    +0.039 C 
ATOM     10  C   UNL     1       0.002  -0.004   0.002  0.00  0.00    +0.133 C 
ATOM     11  C   UNL     1       0.725  -0.499  -1.256  0.00  0.00    +0.136 C 
ATOM     12  N   UNL     1       2.147  -0.135  -1.148  0.00  0.00    -0.323 N 
ATOM     13  C   UNL     1       2.859  -0.488   0.090  0.00  0.00    +0.136 C 
ATOM     14  C   UNL     1       2.033   0.007   1.282  0.00  0.00    +0.133 C 
ATOM     15  O   UNL     1       0.693  -0.479   1.160  0.00  0.00    -0.371 OA
ATOM     16  C   UNL     1       2.648  -0.514   2.582  0.00  0.00    +0.039 C 
ENDBRANCH   2  12
ENDBRANCH   1   5
BRANCH   1  17
ATOM     17  N   UNL     1       6.199   2.788  -5.010  0.00  0.00    -0.310 N 
ATOM     18  C   UNL     1       7.027   3.417  -5.867  0.00  0.00    +0.234 C 
ATOM     19  O   UNL     1       6.615   3.791  -6.945  0.00  0.00    -0.274 OA
ATOM     20  H   UNL     1       6.529   2.489  -4.148  0.00  0.00    +0.149 HD
BRANCH  18  21
ATOM     21  C   UNL     1       8.466   3.656  -5.487  0.00  0.00    +0.163 C 
BRANCH  21  22
ATOM     22  N   UNL     1       9.151   4.351  -6.579  0.00  0.00    -0.288 N 
ATOM     23  C   UNL     1      10.486   4.238  -6.718  0.00  0.00    +0.298 C 
ATOM     24  O   UNL     1      11.123   3.558  -5.936  0.00  0.00    -0.253 OA
ATOM     25  N   UNL     1      11.117   4.878  -7.723  0.00  0.00    -0.313 N 
ATOM     26  H   UNL     1       8.643   4.894  -7.203  0.00  0.00    +0.151 HD
ATOM     27  H   UNL     1      10.609   5.420  -8.347  0.00  0.00    +0.146 HD
ATOM     28  H   UNL     1      12.078   4.796  -7.823  0.00  0.00    +0.146 HD
ENDBRANCH  21  22
BRANCH  21  29
ATOM     29  C   UNL     1       8.523   4.514  -4.221  0.00  0.00    +0.012 C 
ATOM     30  C   UNL     1       9.983   4.756  -3.835  0.00  0.00    +0.009 C 
ATOM     31  C   UNL     1       7.835   5.855  -4.483  0.00  0.00    +0.009 C 
ENDBRANCH  21  29
ENDBRANCH  18  21
ENDBRANCH   1  17
TORSDOF 6
