REMARK  Name = ZINC21155229
REMARK  12 active torsions:
REMARK  status: ('A' for Active; 'I' for Inactive)
REMARK    1  A    between atoms: C_1  and  C_2
REMARK    2  A    between atoms: C_2  and  C_3
REMARK    3  A    between atoms: C_3  and  C_4
REMARK    4  A    between atoms: N_6  and  C_7
REMARK    5  A    between atoms: C_10  and  S_13
REMARK    6  A    between atoms: S_13  and  N_16
REMARK    7  A    between atoms: N_16  and  C_17
REMARK    8  A    between atoms: C_17  and  C_18
REMARK    9  A    between atoms: C_18  and  C_20
REMARK   10  A    between atoms: C_18  and  N_26
REMARK   11  A    between atoms: N_24  and  C_25
REMARK   12  A    between atoms: N_29  and  C_32
REMARK                            x       y       z     vdW  Elec       q    Type
REMARK                         _______ _______ _______ _____ _____    ______ ____
ROOT
ATOM      1  N   UNL     1      -3.241   4.506   2.892  0.00  0.00    -0.188 NA
ATOM      2  H   UNL     1      -2.987   4.919   3.879  0.00  0.00    +0.148 HD
ENDROOT
BRANCH   1   3
ATOM      3  S   UNL     1      -2.169   3.492   2.139  0.00  0.00    +0.058 S 
ATOM      4  O   UNL     1      -2.941   2.478   1.511  0.00  0.00    -0.153 OA
ATOM      5  O   UNL     1      -1.153   3.199   3.087  0.00  0.00    -0.153 OA
BRANCH   3   9
ATOM      6  C   UNL     1      -0.197   5.858  -1.182  0.00  0.00    +0.033 A 
ATOM      7  C   UNL     1      -1.366   5.151  -1.431  0.00  0.00    +0.025 A 
ATOM      8  C   UNL     1      -1.962   4.426  -0.417  0.00  0.00    +0.030 A 
ATOM      9  C   UNL     1      -1.401   4.412   0.847  0.00  0.00    +0.105 A 
ATOM     10  C   UNL     1      -0.240   5.120   1.099  0.00  0.00    +0.030 A 
ATOM     11  C   UNL     1       0.363   5.842   0.089  0.00  0.00    +0.025 A 
BRANCH   6  14
ATOM     12  C   UNL     1       0.296   6.181  -3.487  0.00  0.00    +0.217 C 
ATOM     13  O   UNL     1      -0.255   5.130  -3.740  0.00  0.00    -0.275 OA
ATOM     14  N   UNL     1       0.413   6.589  -2.208  0.00  0.00    -0.285 N 
ATOM     15  H   UNL     1       0.987   7.496  -1.970  0.00  0.00    +0.155 HD
BRANCH  12  16
ATOM     16  C   UNL     1       0.850   7.030  -4.602  0.00  0.00    +0.096 C 
BRANCH  16  18
ATOM     17  C   UNL     1       1.149   7.206  -7.076  0.00  0.00    +0.004 C 
ATOM     18  C   UNL     1       0.587   6.344  -5.944  0.00  0.00    +0.006 C 
ENDBRANCH  16  18
ENDBRANCH  12  16
ENDBRANCH   6  14
ENDBRANCH   3   9
ENDBRANCH   1   3
BRANCH   1  19
ATOM     19  C   UNL     1      -4.404   5.016   2.161  0.00  0.00    +0.131 C 
BRANCH  19  20
ATOM     20  C   UNL     1      -5.430   5.564   3.154  0.00  0.00    +0.119 C 
BRANCH  20  21
ATOM     21  N   UNL     1      -5.976   4.459   3.954  0.00  0.00    -0.296 NA
ATOM     22  C   UNL     1      -4.898   3.628   4.509  0.00  0.00    +0.066 C 
ATOM     23  C   UNL     1      -5.503   2.539   5.398  0.00  0.00    -0.064 C 
ATOM     24  N   UNL     1      -6.437   1.726   4.606  0.00  0.00    +0.379 N 
ATOM     25  C   UNL     1      -7.514   2.557   4.051  0.00  0.00    -0.064 C 
ATOM     26  C   UNL     1      -6.909   3.646   3.162  0.00  0.00    +0.066 C 
ATOM     27  C   UNL     1      -6.982   0.622   5.405  0.00  0.00    -0.096 C 
ATOM     28  H   UNL     1      -5.878   1.289   3.765  0.00  0.00    -0.082 HD
ENDBRANCH  20  21
BRANCH  20  29
ATOM     29  C   UNL     1      -4.764   6.562   4.065  0.00  0.00    +0.037 A 
ATOM     30  C   UNL     1      -4.632   6.447   5.402  0.00  0.00    +0.024 A 
ATOM     31  C   UNL     1      -3.950   7.593   5.859  0.00  0.00    +0.019 A 
ATOM     32  C   UNL     1      -3.698   8.368   4.785  0.00  0.00    +0.085 A 
ATOM     33  N   UNL     1      -4.195   7.740   3.681  0.00  0.00    -0.352 N 
ATOM     34  C   UNL     1      -4.129   8.248   2.308  0.00  0.00    +0.148 C 
ENDBRANCH  20  29
ENDBRANCH  19  20
ENDBRANCH   1  19
TORSDOF 9
