REMARK  Name = ZINC13500581
REMARK  15 active torsions:
REMARK  status: ('A' for Active; 'I' for Inactive)
REMARK    1  A    between atoms: C_1  and  C_2
REMARK    2  A    between atoms: C_2  and  O_3
REMARK    3  A    between atoms: O_3  and  C_4
REMARK    4  A    between atoms: C_11  and  C_16
REMARK    5  A    between atoms: C_16  and  N_73
REMARK    6  A    between atoms: C_17  and  C_18
REMARK    7  A    between atoms: C_17  and  N_73
REMARK    8  A    between atoms: C_18  and  C_19
REMARK    9  A    between atoms: C_19  and  O_20
REMARK   10  A    between atoms: C_21  and  C_23
REMARK   11  A    between atoms: C_21  and  C_34
REMARK   12  A    between atoms: C_21  and  N_73
REMARK   13  A    between atoms: N_27  and  C_28
REMARK   14  A    between atoms: C_34  and  C_35
REMARK   15  A    between atoms: C_34  and  C_36
REMARK                            x       y       z     vdW  Elec       q    Type
REMARK                         _______ _______ _______ _____ _____    ______ ____
ROOT
ATOM      1  N   UNL     1      -2.057   2.423  -0.358  0.00  0.00    +0.389 N 
ATOM      2  H   UNL     1      -2.357   1.569  -0.843  0.00  0.00    -0.080 HD
ENDROOT
BRANCH   1   3
ATOM      3  C   UNL     1      -2.999   2.705   0.745  0.00  0.00    -0.037 C 
BRANCH   3  11
ATOM      4  C   UNL     1      -3.105   8.727   2.212  0.00  0.00    +0.121 A 
ATOM      5  C   UNL     1      -2.100   8.665   3.175  0.00  0.00    +0.047 A 
ATOM      6  C   UNL     1      -1.481   7.470   3.466  0.00  0.00    +0.030 A 
ATOM      7  C   UNL     1      -1.858   6.310   2.796  0.00  0.00    +0.049 A 
ATOM      8  C   UNL     1      -2.873   6.369   1.823  0.00  0.00    +0.002 A 
ATOM      9  C   UNL     1      -3.494   7.589   1.536  0.00  0.00    +0.055 A 
ATOM     10  C   UNL     1      -3.257   5.142   1.122  0.00  0.00    +0.017 A 
ATOM     11  C   UNL     1      -2.624   3.987   1.444  0.00  0.00    +0.001 A 
ATOM     12  C   UNL     1      -1.613   3.981   2.428  0.00  0.00    +0.251 A 
ATOM     13  O   UNL     1      -1.054   2.932   2.700  0.00  0.00    -0.268 OA
ATOM     14  N   UNL     1      -1.250   5.103   3.074  0.00  0.00    -0.322 N 
ATOM     15  H   UNL     1      -0.551   5.063   3.745  0.00  0.00    +0.169 HD
BRANCH   4  16
ATOM     16  O   UNL     1      -3.705   9.916   1.937  0.00  0.00    -0.492 OA
BRANCH  16  18
ATOM     17  C   UNL     1      -4.040  12.292   2.229  0.00  0.00    +0.048 C 
ATOM     18  C   UNL     1      -3.255  11.056   2.672  0.00  0.00    +0.225 C 
ENDBRANCH  16  18
ENDBRANCH   4  16
ENDBRANCH   3  11
ENDBRANCH   1   3
BRANCH   1  19
ATOM     19  C   UNL     1      -2.055   3.545  -1.321  0.00  0.00    -0.075 C 
BRANCH  19  20
ATOM     20  C   UNL     1      -3.477   3.753  -1.845  0.00  0.00    +0.009 C 
BRANCH  20  21
ATOM     21  C   UNL     1      -3.471   4.848  -2.913  0.00  0.00    +0.154 C 
BRANCH  21  22
ATOM     22  O   UNL     1      -4.800   5.043  -3.402  0.00  0.00    -0.395 OA
ATOM     23  H   UNL     1      -4.872   5.725  -4.084  0.00  0.00    +0.209 HD
ENDBRANCH  21  22
ENDBRANCH  20  21
ENDBRANCH  19  20
ENDBRANCH   1  19
BRANCH   1  24
ATOM     24  C   UNL     1      -0.696   2.217   0.180  0.00  0.00    +0.006 C 
BRANCH  24  25
ATOM     25  C   UNL     1      -0.663   0.909   0.928  0.00  0.00    +0.139 A 
ATOM     26  N   UNL     1      -1.411  -0.143   0.699  0.00  0.00    -0.115 NA
ATOM     27  N   UNL     1      -1.083  -1.057   1.545  0.00  0.00    -0.023 NA
ATOM     28  N   UNL     1      -0.149  -0.613   2.313  0.00  0.00    -0.044 NA
ATOM     29  N   UNL     1       0.137   0.595   1.964  0.00  0.00    -0.228 N 
BRANCH  29  30
ATOM     30  C   UNL     1       1.144   1.463   2.580  0.00  0.00    +0.111 C 
ATOM     31  C   UNL     1       2.540   0.904   2.298  0.00  0.00    +0.027 C 
ATOM     32  C   UNL     1       3.591   1.811   2.941  0.00  0.00    +0.002 C 
ATOM     33  C   UNL     1       3.360   1.868   4.452  0.00  0.00    +0.000 C 
ATOM     34  C   UNL     1       1.964   2.427   4.734  0.00  0.00    +0.002 C 
ATOM     35  C   UNL     1       0.913   1.520   4.091  0.00  0.00    +0.027 C 
ENDBRANCH  29  30
ENDBRANCH  24  25
BRANCH  24  36
ATOM     36  C   UNL     1       0.300   2.166  -0.981  0.00  0.00    -0.024 C 
ATOM     37  C   UNL     1      -0.325   1.411  -2.156  0.00  0.00    +0.006 C 
ATOM     38  C   UNL     1       0.648   3.590  -1.417  0.00  0.00    +0.006 C 
ENDBRANCH  24  36
ENDBRANCH   1  24
TORSDOF 12
