REMARK  Name = ZINC49368836
REMARK  7 active torsions:
REMARK  status: ('A' for Active; 'I' for Inactive)
REMARK    1  A    between atoms: C_4  and  C_6
REMARK    2  A    between atoms: C_6  and  C_7
REMARK    3  A    between atoms: C_7  and  C_8
REMARK    4  A    between atoms: C_19  and  S_21
REMARK    5  A    between atoms: S_21  and  C_22
REMARK    6  A    between atoms: C_22  and  C_23
REMARK    7  A    between atoms: N_25  and  C_26
REMARK                            x       y       z     vdW  Elec       q    Type
REMARK                         _______ _______ _______ _____ _____    ______ ____
ROOT
ATOM      1  C   UNL     1       1.271  -4.102   1.031  0.00  0.00    +0.216 C 
ATOM      2  O   UNL     1       1.875  -4.012   2.079  0.00  0.00    -0.276 OA
ATOM      3  N   UNL     1       0.789  -5.295   0.631  0.00  0.00    -0.298 N 
ATOM      4  C   UNL     1       0.061  -5.420  -0.640  0.00  0.00    +0.126 C 
ATOM      5  C   UNL     1       0.744  -6.497  -1.492  0.00  0.00    +0.126 C 
ATOM      6  N   UNL     1       0.937  -7.697  -0.666  0.00  0.00    -0.305 N 
ATOM      7  C   UNL     1       1.665  -7.572   0.605  0.00  0.00    +0.126 C 
ATOM      8  C   UNL     1       0.988  -6.496   1.454  0.00  0.00    +0.126 C 
ATOM      9  C   UNL     1       0.440  -8.928  -1.078  0.00  0.00    +0.185 A 
ATOM     10  N   UNL     1      -0.225  -9.235  -2.174  0.00  0.00    -0.125 NA
ATOM     11  N   UNL     1      -0.629 -10.533  -2.389  0.00  0.00    -0.133 NA
ATOM     12  C   UNL     1      -0.348 -11.463  -1.498  0.00  0.00    +0.160 A 
ATOM     13  S   UNL     1       0.539 -10.517  -0.269  0.00  0.00    -0.024 S 
ENDROOT
BRANCH   1  14
ATOM     14  C   UNL     1       1.060  -2.879   0.176  0.00  0.00    +0.096 C 
BRANCH  14  15
ATOM     15  C   UNL     1       1.701  -1.666   0.854  0.00  0.00    +0.013 C 
BRANCH  15  19
ATOM     16  C   UNL     1      -0.019   1.534   0.011  0.00  0.00    +0.000 C 
ATOM     17  C   UNL     1       1.453   1.995  -0.001  0.00  0.00    +0.000 C 
ATOM     18  C   UNL     1       2.232   0.792   0.586  0.00  0.00    +0.003 C 
ATOM     19  C   UNL     1       1.486  -0.425  -0.014  0.00  0.00    -0.011 C 
ATOM     20  C   UNL     1       0.002  -0.004   0.002  0.00  0.00    +0.003 C 
ENDBRANCH  15  19
ENDBRANCH  14  15
ENDBRANCH   1  14
BRANCH  12  21
ATOM     21  S   UNL     1      -0.738 -13.182  -1.516  0.00  0.00    -0.088 S 
BRANCH  21  22
ATOM     22  C   UNL     1      -1.638 -13.410  -3.074  0.00  0.00    +0.172 C 
BRANCH  22  23
ATOM     23  C   UNL     1      -2.036 -14.857  -3.217  0.00  0.00    +0.224 C 
ATOM     24  O   UNL     1      -1.741 -15.655  -2.353  0.00  0.00    -0.275 OA
ATOM     25  N   UNL     1      -2.719 -15.264  -4.305  0.00  0.00    -0.312 N 
ATOM     26  H   UNL     1      -2.955 -14.626  -4.996  0.00  0.00    +0.149 HD
BRANCH  25  27
ATOM     27  C   UNL     1      -3.106 -16.670  -4.444  0.00  0.00    +0.073 C 
ATOM     28  C   UNL     1      -1.973 -17.465  -5.126  0.00  0.00    +0.022 C 
ATOM     29  C   UNL     1      -2.714 -18.480  -6.032  0.00  0.00    +0.002 C 
ATOM     30  C   UNL     1      -3.912 -17.654  -6.562  0.00  0.00    +0.002 C 
ATOM     31  C   UNL     1      -4.339 -16.790  -5.356  0.00  0.00    +0.022 C 
ENDBRANCH  25  27
ENDBRANCH  22  23
ENDBRANCH  21  22
ENDBRANCH  12  21
TORSDOF 7
