REMARK  Name = ZINC63794356
REMARK  4 active torsions:
REMARK  status: ('A' for Active; 'I' for Inactive)
REMARK    1  A    between atoms: C_1  and  N_2
REMARK    2  A    between atoms: C_10  and  C_12
REMARK    3  A    between atoms: C_13  and  C_23
REMARK    4  A    between atoms: C_16  and  C_18
REMARK                            x       y       z     vdW  Elec       q    Type
REMARK                         _______ _______ _______ _____ _____    ______ ____
ROOT
ATOM      1  C   UNL     1      -1.173  -0.507   1.861  0.00  0.00    +0.027 C 
ATOM      2  C   UNL     1      -2.279   0.114   1.407  0.00  0.00    +0.098 C 
ATOM      3  N   UNL     1      -3.226   0.168   2.379  0.00  0.00    -0.153 NA
ATOM      4  N   UNL     1      -2.890  -0.348   3.448  0.00  0.00    -0.174 NA
ATOM      5  C   UNL     1      -1.523  -0.872   3.292  0.00  0.00    +0.196 C 
ENDROOT
BRANCH   1  15
ATOM      6  C   UNL     1      -0.379  -3.315   0.670  0.00  0.00    +0.131 C 
ATOM      7  N   UNL     1       0.436  -2.212   1.186  0.00  0.00    -0.310 N 
ATOM      8  C   UNL     1       1.677  -2.327   1.829  0.00  0.00    +0.052 A 
ATOM      9  C   UNL     1       2.432  -3.451   2.139  0.00  0.00    +0.025 A 
ATOM     10  C   UNL     1       3.644  -3.316   2.788  0.00  0.00    +0.002 A 
ATOM     11  C   UNL     1       4.111  -2.061   3.132  0.00  0.00    +0.002 A 
ATOM     12  C   UNL     1       3.366  -0.937   2.828  0.00  0.00    +0.025 A 
ATOM     13  C   UNL     1       2.146  -1.063   2.175  0.00  0.00    +0.050 A 
ATOM     14  N   UNL     1       1.226  -0.087   1.768  0.00  0.00    -0.321 N 
ATOM     15  C   UNL     1       0.109  -0.783   1.118  0.00  0.00    +0.190 C 
ATOM     16  H   UNL     1       1.314   0.872   1.889  0.00  0.00    +0.148 HD
ENDBRANCH   1  15
BRANCH   2  17
ATOM     17  C   UNL     1      -2.439   0.663   0.037  0.00  0.00    +0.002 A 
ATOM     18  C   UNL     1      -2.084  -0.104  -1.070  0.00  0.00    +0.010 A 
ATOM     19  C   UNL     1      -2.236   0.411  -2.341  0.00  0.00    +0.001 A 
ATOM     20  C   UNL     1      -2.739   1.688  -2.517  0.00  0.00    +0.000 A 
ATOM     21  C   UNL     1      -3.093   2.454  -1.421  0.00  0.00    +0.001 A 
ATOM     22  C   UNL     1      -2.950   1.947  -0.146  0.00  0.00    +0.010 A 
ENDBRANCH   2  17
BRANCH   5  23
ATOM     23  C   UNL     1      -0.584  -0.195   4.258  0.00  0.00    +0.020 A 
ATOM     24  C   UNL     1       0.502  -0.704   4.890  0.00  0.00    +0.014 A 
ATOM     25  C   UNL     1       1.224   0.111   5.742  0.00  0.00    +0.008 A 
ATOM     26  C   UNL     1       0.824   1.394   5.921  0.00  0.00    +0.045 A 
ATOM     27  S   UNL     1      -0.609   1.485   4.861  0.00  0.00    -0.099 S 
ENDBRANCH   5  23
TORSDOF 3
