REMARK  Name = ZINC00745627
REMARK  11 active torsions:
REMARK  status: ('A' for Active; 'I' for Inactive)
REMARK    1  A    between atoms: C_1  and  C_2
REMARK    2  A    between atoms: C_2  and  C_3
REMARK    3  A    between atoms: C_2  and  C_4
REMARK    4  A    between atoms: C_4  and  C_5
REMARK    5  A    between atoms: C_5  and  N_6
REMARK    6  A    between atoms: C_7  and  C_9
REMARK    7  A    between atoms: C_13  and  C_23
REMARK    8  A    between atoms: C_16  and  C_18
REMARK    9  A    between atoms: C_23  and  C_24
REMARK   10  A    between atoms: C_24  and  C_25
REMARK   11  A    between atoms: C_24  and  C_26
REMARK                            x       y       z     vdW  Elec       q    Type
REMARK                         _______ _______ _______ _____ _____    ______ ____
ROOT
ATOM      1  C   UNL     1       0.532   4.738   0.651  0.00  0.00    +0.173 C 
ATOM      2  C   UNL     1       1.213   5.664   1.706  0.00  0.00    +0.103 C 
ATOM      3  S   UNL     1       2.160   6.745   0.542  0.00  0.00    -0.136 S 
ATOM      4  C   UNL     1       2.434   5.484  -0.774  0.00  0.00    +0.135 C 
ATOM      5  N   UNL     1       1.455   4.432  -0.438  0.00  0.00    -0.273 N 
ATOM      6  C   UNL     1       1.413   3.259  -1.101  0.00  0.00    +0.255 C 
ATOM      7  O   UNL     1       0.532   2.455  -0.858  0.00  0.00    -0.269 OA
ENDROOT
BRANCH   6   8
ATOM      8  C   UNL     1       2.427   2.953  -2.114  0.00  0.00    +0.074 A 
ATOM      9  C   UNL     1       2.900   1.718  -2.531  0.00  0.00    +0.021 A 
ATOM     10  C   UNL     1       3.863   1.716  -3.509  0.00  0.00    +0.008 A 
ATOM     11  C   UNL     1       4.300   2.900  -4.012  0.00  0.00    +0.046 A 
ATOM     12  S   UNL     1       3.374   4.071  -3.131  0.00  0.00    -0.092 S 
ENDBRANCH   6   8
BRANCH   1  14
ATOM     13  N   UNL     1      -1.150   3.319   1.780  0.00  0.00    -0.314 N 
ATOM     14  C   UNL     1       0.109   3.455   1.318  0.00  0.00    +0.234 C 
ATOM     15  O   UNL     1       0.901   2.545   1.440  0.00  0.00    -0.274 OA
ATOM     16  H   UNL     1      -1.804   4.018   1.619  0.00  0.00    +0.149 HD
BRANCH  13  17
ATOM     17  C   UNL     1      -1.531   2.117   2.525  0.00  0.00    +0.104 C 
BRANCH  17  18
ATOM     18  C   UNL     1      -3.031   2.156   2.824  0.00  0.00    +0.022 C 
BRANCH  18  20
ATOM     19  C   UNL     1      -2.744   0.909   4.970  0.00  0.00    +0.007 C 
ATOM     20  C   UNL     1      -3.430   0.901   3.602  0.00  0.00    -0.016 C 
ATOM     21  C   UNL     1      -4.947   0.878   3.792  0.00  0.00    +0.007 C 
ENDBRANCH  18  20
ENDBRANCH  17  18
ENDBRANCH  13  17
ENDBRANCH   1  14
BRANCH   4  22
ATOM     22  C   UNL     1       3.861   4.936  -0.709  0.00  0.00    +0.036 C 
BRANCH  22  23
ATOM     23  C   UNL     1       4.855   6.074  -0.948  0.00  0.00    -0.015 C 
ATOM     24  C   UNL     1       6.281   5.556  -0.746  0.00  0.00    +0.007 C 
ATOM     25  C   UNL     1       4.700   6.595  -2.378  0.00  0.00    +0.007 C 
ENDBRANCH  22  23
ENDBRANCH   4  22
TORSDOF 7
