REMARK  Name = ZINC01477630
REMARK  11 active torsions:
REMARK  status: ('A' for Active; 'I' for Inactive)
REMARK    1  A    between atoms: C_1  and  O_2
REMARK    2  A    between atoms: O_2  and  C_3
REMARK    3  A    between atoms: C_6  and  C_9
REMARK    4  A    between atoms: C_12  and  S_22
REMARK    5  A    between atoms: N_13  and  C_14
REMARK    6  A    between atoms: C_17  and  O_20
REMARK    7  A    between atoms: O_20  and  C_21
REMARK    8  A    between atoms: S_22  and  C_23
REMARK    9  A    between atoms: C_23  and  C_24
REMARK   10  A    between atoms: N_26  and  N_27
REMARK   11  A    between atoms: C_28  and  C_29
REMARK                            x       y       z     vdW  Elec       q    Type
REMARK                         _______ _______ _______ _____ _____    ______ ____
ROOT
ATOM      1  C   UNL     1       2.047   0.585  -0.014  0.00  0.00    +0.169 A 
ATOM      2  N   UNL     1       1.214  -0.430  -0.012  0.00  0.00    -0.128 NA
ATOM      3  N   UNL     1       0.002  -0.004   0.002  0.00  0.00    -0.122 NA
ATOM      4  C   UNL     1      -0.016   1.310   0.009  0.00  0.00    +0.197 A 
ATOM      5  N   UNL     1       1.286   1.732  -0.001  0.00  0.00    -0.270 N 
ENDROOT
BRANCH   1   9
ATOM      6  C   UNL     1       6.290   0.370  -0.056  0.00  0.00    +0.120 A 
ATOM      7  C   UNL     1       5.537  -0.754  -0.367  0.00  0.00    +0.046 A 
ATOM      8  C   UNL     1       4.160  -0.689  -0.355  0.00  0.00    +0.015 A 
ATOM      9  C   UNL     1       3.523   0.510  -0.029  0.00  0.00    +0.020 A 
ATOM     10  C   UNL     1       4.285   1.640   0.278  0.00  0.00    +0.015 A 
ATOM     11  C   UNL     1       5.661   1.564   0.269  0.00  0.00    +0.046 A 
BRANCH   6  13
ATOM     12  C   UNL     1       8.361   1.494   0.262  0.00  0.00    +0.277 C 
ATOM     13  O   UNL     1       7.647   0.301  -0.068  0.00  0.00    -0.495 OA
ENDBRANCH   6  13
ENDBRANCH   1   9
BRANCH   5  14
ATOM     14  C   UNL     1       1.748   3.058   0.002  0.00  0.00    +0.051 A 
ATOM     15  C   UNL     1       2.450   3.550  -1.089  0.00  0.00    +0.030 A 
ATOM     16  C   UNL     1       2.900   4.856  -1.088  0.00  0.00    +0.047 A 
ATOM     17  C   UNL     1       2.660   5.671   0.007  0.00  0.00    +0.120 A 
ATOM     18  C   UNL     1       1.962   5.178   1.101  0.00  0.00    +0.047 A 
ATOM     19  C   UNL     1       1.507   3.874   1.098  0.00  0.00    +0.030 A 
BRANCH  17  20
ATOM     20  O   UNL     1       3.108   6.955   0.011  0.00  0.00    -0.495 OA
ATOM     21  C   UNL     1       3.818   7.397  -1.148  0.00  0.00    +0.277 C 
ENDBRANCH  17  20
ENDBRANCH   5  14
BRANCH   4  22
ATOM     22  S   UNL     1      -1.448   2.336   0.022  0.00  0.00    -0.076 S 
BRANCH  22  23
ATOM     23  C   UNL     1      -2.742   1.070   0.022  0.00  0.00    +0.174 C 
BRANCH  23  24
ATOM     24  C   UNL     1      -4.094   1.734   0.033  0.00  0.00    +0.242 C 
ATOM     25  O   UNL     1      -4.176   2.945   0.039  0.00  0.00    -0.273 OA
ATOM     26  N   UNL     1      -5.214   0.983   0.035  0.00  0.00    -0.206 N 
ATOM     27  H   UNL     1      -5.149   0.015   0.029  0.00  0.00    +0.177 HD
BRANCH  26  28
ATOM     28  N   UNL     1      -6.471   1.601   0.044  0.00  0.00    -0.188 NA
ATOM     29  C   UNL     1      -7.550   0.877   0.046  0.00  0.00    +0.140 C 
BRANCH  29  30
ATOM     30  C   UNL     1      -8.871   1.525   0.056  0.00  0.00    +0.020 A 
ATOM     31  C   UNL     1     -10.082   0.905   0.054  0.00  0.00    +0.093 A 
ATOM     32  N   UNL     1     -11.076   1.837   0.069  0.00  0.00    -0.360 N 
ATOM     33  H   UNL     1     -12.025   1.635   0.072  0.00  0.00    +0.165 HD
ATOM     34  C   UNL     1     -10.540   3.107   0.073  0.00  0.00    +0.047 A 
ATOM     35  C   UNL     1      -9.141   2.974   0.065  0.00  0.00    +0.008 A 
ATOM     36  C   UNL     1      -8.332   4.108   0.067  0.00  0.00    +0.010 A 
ATOM     37  C   UNL     1      -8.911   5.358   0.076  0.00  0.00    +0.001 A 
ATOM     38  C   UNL     1     -10.292   5.491   0.084  0.00  0.00    +0.002 A 
ATOM     39  C   UNL     1     -11.104   4.378   0.082  0.00  0.00    +0.026 A 
ENDBRANCH  29  30
ENDBRANCH  26  28
ENDBRANCH  23  24
ENDBRANCH  22  23
ENDBRANCH   4  22
TORSDOF 9
