REMARK  Name = ZINC39695816
REMARK  11 active torsions:
REMARK  status: ('A' for Active; 'I' for Inactive)
REMARK    1  A    between atoms: C_1  and  C_2
REMARK    2  A    between atoms: C_10  and  C_12
REMARK    3  A    between atoms: C_12  and  C_13
REMARK    4  A    between atoms: C_12  and  N_14
REMARK    5  A    between atoms: C_15  and  C_17
REMARK    6  A    between atoms: C_27  and  C_29
REMARK    7  A    between atoms: C_31  and  C_38
REMARK    8  A    between atoms: N_33  and  C_34
REMARK    9  A    between atoms: C_34  and  C_35
REMARK   10  A    between atoms: C_34  and  C_36
REMARK   11  A    between atoms: C_34  and  C_37
REMARK                            x       y       z     vdW  Elec       q    Type
REMARK                         _______ _______ _______ _____ _____    ______ ____
ROOT
ATOM      1  C   UNL     1       2.251  -8.817   0.844  0.00  0.00    +0.100 C 
ATOM      2  C   UNL     1       1.066  -9.207  -0.068  0.00  0.00    +0.121 C 
ATOM      3  N   UNL     1       1.184 -10.675  -0.229  0.00  0.00    -0.295 N 
ATOM      4  C   UNL     1       1.594 -11.161   1.111  0.00  0.00    +0.115 C 
ATOM      5  C   UNL     1       2.591 -10.103   1.616  0.00  0.00    -0.004 C 
ATOM      6  C   UNL     1       2.409  -9.883   3.115  0.00  0.00    -0.010 C 
ATOM      7  C   UNL     1       2.809 -11.156   3.866  0.00  0.00    -0.082 C 
ATOM      8  N   UNL     1       4.207 -11.485   3.565  0.00  0.00    +0.379 N 
ATOM      9  C   UNL     1       4.355 -11.786   2.136  0.00  0.00    -0.082 C 
ATOM     10  C   UNL     1       4.021 -10.540   1.312  0.00  0.00    -0.010 C 
ATOM     11  C   UNL     1       0.969 -11.404  -1.342  0.00  0.00    +0.265 C 
ATOM     12  O   UNL     1       1.118 -12.611  -1.316  0.00  0.00    -0.268 OA
ATOM     13  H   UNL     1       4.795 -10.700   3.804  0.00  0.00    -0.086 HD
ATOM     14  H   UNL     1       4.487 -12.289   4.107  0.00  0.00    -0.086 HD
ENDROOT
BRANCH  11  15
ATOM     15  C   UNL     1       0.553 -10.740  -2.588  0.00  0.00    +0.124 A 
ATOM     16  C   UNL     1       0.140  -9.427  -2.731  0.00  0.00    +0.057 A 
ATOM     17  C   UNL     1      -0.144  -9.275  -4.090  0.00  0.00    +0.061 A 
ATOM     18  N   UNL     1       0.090 -10.420  -4.680  0.00  0.00    -0.175 NA
ATOM     19  N   UNL     1       0.504 -11.294  -3.835  0.00  0.00    -0.254 N 
ATOM     20  C   UNL     1      -0.634  -8.017  -4.759  0.00  0.00    +0.067 C 
BRANCH  19  21
ATOM     21  C   UNL     1       0.864 -12.677  -4.160  0.00  0.00    +0.056 C 
ATOM     22  C   UNL     1      -0.098 -13.634  -3.452  0.00  0.00    +0.036 C 
ATOM     23  C   UNL     1       0.771 -12.887  -5.672  0.00  0.00    +0.036 C 
ATOM     24  C   UNL     1       2.295 -12.954  -3.693  0.00  0.00    +0.036 C 
ENDBRANCH  19  21
ENDBRANCH  11  15
BRANCH   1  26
ATOM     25  N   UNL     1       2.753  -6.831   2.230  0.00  0.00    -0.305 N 
ATOM     26  C   UNL     1       1.842  -7.725   1.798  0.00  0.00    +0.219 C 
ATOM     27  O   UNL     1       0.692  -7.650   2.177  0.00  0.00    -0.275 OA
ATOM     28  H   UNL     1       3.686  -6.933   1.986  0.00  0.00    +0.149 HD
BRANCH  25  29
ATOM     29  C   UNL     1       2.335  -5.705   3.069  0.00  0.00    +0.136 C 
ATOM     30  C   UNL     1       1.849  -4.559   2.179  0.00  0.00    +0.036 C 
BRANCH  29  40
ATOM     31  C   UNL     1       7.163  -2.936   8.009  0.00  0.00    +0.044 C 
ATOM     32  C   UNL     1       6.583  -3.612   6.793  0.00  0.00    -0.048 A 
ATOM     33  C   UNL     1       7.430  -4.138   5.828  0.00  0.00    +0.005 A 
ATOM     34  C   UNL     1       6.924  -4.755   4.718  0.00  0.00    +0.030 A 
ATOM     35  C   UNL     1       5.541  -4.859   4.550  0.00  0.00    +0.089 A 
ATOM     36  C   UNL     1       4.683  -4.327   5.527  0.00  0.00    +0.067 A 
ATOM     37  C   UNL     1       5.216  -3.709   6.651  0.00  0.00    +0.031 A 
ATOM     38  N   UNL     1       3.400  -4.582   5.087  0.00  0.00    -0.340 N 
ATOM     39  H   UNL     1       2.578  -4.338   5.541  0.00  0.00    +0.167 HD
ATOM     40  C   UNL     1       3.502  -5.236   3.899  0.00  0.00    +0.128 A 
ATOM     41  N   UNL     1       4.754  -5.399   3.584  0.00  0.00    -0.231 NA
ENDBRANCH  29  40
ENDBRANCH  25  29
ENDBRANCH   1  26
TORSDOF 5
