REMARK  Name = ZINC22750774
REMARK  2 active torsions:
REMARK  status: ('A' for Active; 'I' for Inactive)
REMARK    1  A    between atoms: C_13  and  C_29
REMARK    2  A    between atoms: C_19  and  C_24
REMARK                            x       y       z     vdW  Elec       q    Type
REMARK                         _______ _______ _______ _____ _____    ______ ____
ROOT
ATOM      1  C   UNL     1      11.517  -1.434   0.394  0.00  0.00    +0.002 A 
ATOM      2  C   UNL     1      11.528  -0.155  -0.143  0.00  0.00    +0.001 A 
ATOM      3  C   UNL     1      10.347   0.560  -0.214  0.00  0.00    +0.017 A 
ATOM      4  C   UNL     1       9.184  -0.005   0.247  0.00  0.00    +0.041 A 
ATOM      5  C   UNL     1       9.135  -1.304   0.801  0.00  0.00    +0.080 A 
ATOM      6  C   UNL     1      10.361  -2.006   0.857  0.00  0.00    +0.029 A 
ATOM      7  N   UNL     1       7.916  -1.720   1.210  0.00  0.00    -0.225 NA
ATOM      8  C   UNL     1       6.843  -0.972   1.103  0.00  0.00    +0.165 A 
ATOM      9  S   UNL     1       7.488   0.514   0.348  0.00  0.00    -0.052 S 
ATOM     10  N   UNL     1       5.542  -1.261   1.475  0.00  0.00    -0.266 N 
ATOM     11  C   UNL     1       4.545  -0.331   1.278  0.00  0.00    +0.186 C 
ATOM     12  N   UNL     1       4.838   0.812   0.744  0.00  0.00    -0.243 NA
ATOM     13  C   UNL     1       3.842   1.848   0.512  0.00  0.00    +0.173 C 
ATOM     14  C   UNL     1       2.443   1.288   0.560  0.00  0.00    +0.041 C 
ATOM     15  C   UNL     1       2.210   0.086   1.131  0.00  0.00    +0.020 C 
ATOM     16  N   UNL     1       3.255  -0.631   1.653  0.00  0.00    -0.290 N 
ATOM     17  C   UNL     1       0.819  -0.487   1.203  0.00  0.00    +0.060 C 
ATOM     18  C   UNL     1       0.002  -0.004   0.002  0.00  0.00    +0.039 C 
ATOM     19  C   UNL     1      -0.019   1.528   0.010  0.00  0.00    +0.088 C 
ATOM     20  C   UNL     1       1.397   2.039  -0.000  0.00  0.00    +0.164 C 
ATOM     21  O   UNL     1       1.638   3.119  -0.502  0.00  0.00    -0.292 OA
ATOM     22  H   UNL     1       5.304  -2.235   1.929  0.00  0.00    +0.157 HD
ATOM     23  H   UNL     1       3.065  -1.444   2.368  0.00  0.00    +0.154 HD
ENDROOT
BRANCH  13  24
ATOM     24  C   UNL     1       4.079   2.465  -0.843  0.00  0.00    -0.013 A 
ATOM     25  C   UNL     1       4.439   1.667  -1.911  0.00  0.00    +0.044 A 
ATOM     26  C   UNL     1       4.653   2.232  -3.158  0.00  0.00    +0.126 A 
ATOM     27  C   UNL     1       4.516   3.598  -3.330  0.00  0.00    +0.076 A 
ATOM     28  C   UNL     1       4.160   4.398  -2.257  0.00  0.00    +0.126 A 
ATOM     29  C   UNL     1       3.942   3.830  -1.014  0.00  0.00    +0.044 A 
ATOM     30  F   UNL     1       4.027   5.732  -2.424  0.00  0.00    -0.205 F 
ATOM     31  F   UNL     1       5.001   1.450  -4.203  0.00  0.00    -0.205 F 
ENDBRANCH  13  24
BRANCH  18  32
ATOM     32  C   UNL     1      -1.407  -0.530   0.103  0.00  0.00    -0.006 A 
ATOM     33  C   UNL     1      -2.088  -1.317  -0.764  0.00  0.00    +0.011 A 
ATOM     34  C   UNL     1      -3.387  -1.681  -0.461  0.00  0.00    +0.008 A 
ATOM     35  C   UNL     1      -3.940  -1.239   0.695  0.00  0.00    +0.045 A 
ATOM     36  S   UNL     1      -2.608  -0.284   1.401  0.00  0.00    -0.101 S 
ENDBRANCH  18  32
TORSDOF 2
