REMARK  Name = ZINC11055697
REMARK  6 active torsions:
REMARK  status: ('A' for Active; 'I' for Inactive)
REMARK    1  A    between atoms: C_1  and  C_2
REMARK    2  A    between atoms: C_2  and  C_4
REMARK    3  A    between atoms: C_2  and  S_11
REMARK    4  A    between atoms: N_9  and  C_10
REMARK    5  A    between atoms: S_11  and  C_12
REMARK    6  A    between atoms: N_25  and  C_26
REMARK                            x       y       z     vdW  Elec       q    Type
REMARK                         _______ _______ _______ _____ _____    ______ ____
ROOT
ATOM      1  C   UNL     1       2.365   0.050  -0.021  0.00  0.00    +0.178 A 
ATOM      2  N   UNL     1       2.374   1.368  -0.013  0.00  0.00    -0.215 NA
ATOM      3  C   UNL     1       1.239   2.056   0.001  0.00  0.00    +0.117 A 
ATOM      4  C   UNL     1      -0.017   1.426   0.010  0.00  0.00    +0.076 A 
ATOM      5  C   UNL     1      -1.179   2.318   0.020  0.00  0.00    -0.023 A 
ATOM      6  C   UNL     1      -0.933   3.644   0.030  0.00  0.00    -0.004 A 
ATOM      7  S   UNL     1       0.834   3.784   0.014  0.00  0.00    -0.073 S 
ATOM      8  C   UNL     1      -1.939   4.754   0.044  0.00  0.00    +0.043 C 
ATOM      9  C   UNL     1      -3.310   4.169  -0.323  0.00  0.00    +0.005 C 
ATOM     10  C   UNL     1      -3.544   2.906   0.511  0.00  0.00    +0.005 C 
ATOM     11  C   UNL     1      -2.611   1.791   0.036  0.00  0.00    +0.037 C 
ATOM     12  C   UNL     1       0.002  -0.004   0.002  0.00  0.00    +0.268 A 
ATOM     13  O   UNL     1      -1.040  -0.636   0.009  0.00  0.00    -0.267 OA
ATOM     14  N   UNL     1       1.187  -0.642  -0.013  0.00  0.00    -0.253 N 
ENDROOT
BRANCH  14  15
ATOM     15  C   UNL     1       1.213  -2.044  -0.022  0.00  0.00    +0.087 A 
ATOM     16  C   UNL     1       1.208  -2.732  -1.228  0.00  0.00    +0.029 A 
ATOM     17  C   UNL     1       1.239  -4.113  -1.233  0.00  0.00    +0.002 A 
ATOM     18  C   UNL     1       1.263  -4.812  -0.040  0.00  0.00    +0.003 A 
ATOM     19  C   UNL     1       1.262  -4.131   1.163  0.00  0.00    +0.040 A 
ATOM     20  C   UNL     1       1.237  -2.748   1.176  0.00  0.00    +0.147 A 
ATOM     21  F   UNL     1       1.236  -2.083   2.352  0.00  0.00    -0.203 F 
ENDBRANCH  14  15
BRANCH   1  22
ATOM     22  S   UNL     1       3.891  -0.830  -0.040  0.00  0.00    -0.075 S 
BRANCH  22  24
ATOM     23  C   UNL     1       4.927   1.332   1.269  0.00  0.00    +0.029 C 
ATOM     24  C   UNL     1       5.054   0.556  -0.044  0.00  0.00    +0.137 C 
BRANCH  24  25
ATOM     25  C   UNL     1       6.460   0.033  -0.184  0.00  0.00    +0.233 C 
ATOM     26  O   UNL     1       6.706  -1.123   0.087  0.00  0.00    -0.274 OA
ATOM     27  N   UNL     1       7.444   0.849  -0.610  0.00  0.00    -0.239 N 
ATOM     28  C   UNL     1       8.702   0.380  -0.736  0.00  0.00    +0.306 C 
ATOM     29  O   UNL     1       8.948  -0.778  -0.464  0.00  0.00    -0.252 OA
ATOM     30  N   UNL     1       9.686   1.197  -1.162  0.00  0.00    -0.302 N 
ATOM     31  C   UNL     1      11.052   0.688  -1.298  0.00  0.00    +0.129 C 
ATOM     32  H   UNL     1       7.247   1.774  -0.827  0.00  0.00    +0.159 HD
ATOM     33  H   UNL     1       9.489   2.122  -1.378  0.00  0.00    +0.150 HD
ENDBRANCH  24  25
ENDBRANCH  22  24
ENDBRANCH   1  22
TORSDOF 4
