REMARK  Name = ZINC23996120
REMARK  10 active torsions:
REMARK  status: ('A' for Active; 'I' for Inactive)
REMARK    1  A    between atoms: C_1  and  C_2
REMARK    2  A    between atoms: C_2  and  C_3
REMARK    3  A    between atoms: C_3  and  N_4
REMARK    4  A    between atoms: C_5  and  C_7
REMARK    5  A    between atoms: C_12  and  N_13
REMARK    6  A    between atoms: C_14  and  C_16
REMARK    7  A    between atoms: C_16  and  N_17
REMARK    8  A    between atoms: C_22  and  C_29
REMARK    9  A    between atoms: C_25  and  C_27
REMARK   10  A    between atoms: C_25  and  C_28
REMARK                            x       y       z     vdW  Elec       q    Type
REMARK                         _______ _______ _______ _____ _____    ______ ____
ROOT
ATOM      1  N   UNL     1      -0.848   3.279   1.477  0.00  0.00    -0.284 N 
ATOM      2  C   UNL     1      -0.703   1.958   1.253  0.00  0.00    +0.235 C 
ATOM      3  O   UNL     1      -1.156   1.156   2.042  0.00  0.00    -0.274 OA
ATOM      4  H   UNL     1      -0.375   4.006   0.801  0.00  0.00    +0.155 HD
ENDROOT
BRANCH   1  10
ATOM      5  C   UNL     1      -2.370   4.888   2.459  0.00  0.00    +0.058 A 
ATOM      6  C   UNL     1      -3.117   5.322   3.557  0.00  0.00    +0.015 A 
ATOM      7  C   UNL     1      -3.089   4.606   4.734  0.00  0.00    +0.001 A 
ATOM      8  C   UNL     1      -2.323   3.456   4.835  0.00  0.00    +0.002 A 
ATOM      9  C   UNL     1      -1.584   3.011   3.757  0.00  0.00    +0.024 A 
ATOM     10  C   UNL     1      -1.596   3.723   2.565  0.00  0.00    +0.046 A 
BRANCH   5  12
ATOM     11  N   UNL     1      -3.053   6.825   1.131  0.00  0.00    -0.311 N 
ATOM     12  C   UNL     1      -2.397   5.649   1.196  0.00  0.00    +0.246 C 
ATOM     13  O   UNL     1      -1.826   5.216   0.213  0.00  0.00    -0.270 OA
ATOM     14  H   UNL     1      -3.569   7.216   2.020  0.00  0.00    +0.149 HD
BRANCH  11  15
ATOM     15  C   UNL     1      -3.079   7.581  -0.123  0.00  0.00    +0.104 C 
BRANCH  15  17
ATOM     16  C   UNL     1      -3.910   9.657  -1.237  0.00  0.00    +0.005 C 
ATOM     17  C   UNL     1      -3.884   8.867   0.073  0.00  0.00    +0.015 C 
ENDBRANCH  15  17
ENDBRANCH  11  15
ENDBRANCH   5  12
ENDBRANCH   1  10
BRANCH   2  18
ATOM     18  C   UNL     1       0.021   1.477   0.022  0.00  0.00    +0.214 C 
BRANCH  18  19
ATOM     19  N   UNL     1       0.043   0.012   0.010  0.00  0.00    -0.215 N 
ATOM     20  C   UNL     1      -0.910  -0.755  -0.561  0.00  0.00    +0.247 C 
ATOM     21  O   UNL     1      -1.931  -0.354  -1.076  0.00  0.00    -0.273 OA
ATOM     22  C   UNL     1      -0.448  -2.183  -0.393  0.00  0.00    +0.113 C 
ATOM     23  C   UNL     1      -1.466  -2.986   0.405  0.00  0.00    +0.038 C 
ATOM     24  C   UNL     1      -2.693  -3.274  -0.462  0.00  0.00    -0.011 C 
ATOM     25  C   UNL     1      -2.259  -4.130  -1.649  0.00  0.00    +0.009 C 
ATOM     26  C   UNL     1      -1.248  -3.389  -2.517  0.00  0.00    -0.032 C 
ATOM     27  C   UNL     1      -0.088  -2.824  -1.717  0.00  0.00    +0.041 C 
ATOM     28  C   UNL     1      -0.677  -4.398  -3.538  0.00  0.00    +0.011 C 
ATOM     29  C   UNL     1      -1.950  -2.284  -3.311  0.00  0.00    +0.011 C 
ATOM     30  C   UNL     1      -3.729  -4.041   0.366  0.00  0.00    +0.007 C 
ATOM     31  N   UNL     1       0.786  -2.048   0.414  0.00  0.00    -0.285 N 
ATOM     32  C   UNL     1       1.003  -0.732   0.570  0.00  0.00    +0.310 C 
ATOM     33  O   UNL     1       1.965  -0.267   1.152  0.00  0.00    -0.252 OA
ATOM     34  H   UNL     1       1.321  -2.947   0.755  0.00  0.00    +0.151 HD
ENDBRANCH  18  19
ENDBRANCH   2  18
TORSDOF 6
