REMARK  Name = ZINC21901973
REMARK  9 active torsions:
REMARK  status: ('A' for Active; 'I' for Inactive)
REMARK    1  A    between atoms: C_4  and  C_7
REMARK    2  A    between atoms: C_9  and  C_12
REMARK    3  A    between atoms: C_12  and  C_13
REMARK    4  A    between atoms: C_13  and  C_14
REMARK    5  A    between atoms: N_16  and  N_17
REMARK    6  A    between atoms: C_18  and  C_20
REMARK    7  A    between atoms: C_23  and  C_26
REMARK    8  A    between atoms: C_26  and  N_27
REMARK    9  A    between atoms: C_29  and  C_32
REMARK                            x       y       z     vdW  Elec       q    Type
REMARK                         _______ _______ _______ _____ _____    ______ ____
ROOT
ATOM      1  N   UNL     1      -2.954  -2.339   0.018  0.00  0.00    -0.230 N 
ATOM      2  C   UNL     1      -3.183  -3.667   0.013  0.00  0.00    +0.260 C 
ATOM      3  O   UNL     1      -2.248  -4.444  -0.000  0.00  0.00    -0.269 OA
ATOM      4  H   UNL     1      -3.800  -1.635   0.029  0.00  0.00    +0.173 HD
ENDROOT
BRANCH   2   5
ATOM      5  C   UNL     1      -4.570  -4.179   0.023  0.00  0.00    +0.038 A 
ATOM      6  C   UNL     1      -5.645  -3.289   0.044  0.00  0.00    +0.013 A 
ATOM      7  C   UNL     1      -6.937  -3.773   0.050  0.00  0.00    +0.006 A 
ATOM      8  C   UNL     1      -7.168  -5.137   0.044  0.00  0.00    -0.024 A 
ATOM      9  C   UNL     1      -6.106  -6.025   0.029  0.00  0.00    +0.006 A 
ATOM     10  C   UNL     1      -4.809  -5.554   0.018  0.00  0.00    +0.013 A 
BRANCH   8  11
ATOM     11  C   UNL     1      -8.581  -5.659   0.056  0.00  0.00    +0.203 C 
BRANCH  11  12
ATOM     12  N   UNL     1      -9.026  -5.836   1.440  0.00  0.00    -0.158 N 
ATOM     13  N   UNL     1      -9.616  -4.940   2.154  0.00  0.00    -0.130 NA
ATOM     14  C   UNL     1      -9.859  -5.464   3.339  0.00  0.00    +0.205 A 
ATOM     15  N   UNL     1      -9.389  -6.719   3.308  0.00  0.00    -0.108 NA
ATOM     16  N   UNL     1      -8.893  -6.913   2.133  0.00  0.00    -0.045 NA
BRANCH  14  17
ATOM     17  C   UNL     1     -10.524  -4.795   4.485  0.00  0.00    +0.023 A 
ATOM     18  C   UNL     1     -10.957  -3.476   4.369  0.00  0.00    +0.012 A 
ATOM     19  C   UNL     1     -11.579  -2.860   5.436  0.00  0.00    +0.001 A 
ATOM     20  C   UNL     1     -11.764  -3.546   6.622  0.00  0.00    +0.000 A 
ATOM     21  C   UNL     1     -11.332  -4.854   6.745  0.00  0.00    +0.001 A 
ATOM     22  C   UNL     1     -10.713  -5.482   5.682  0.00  0.00    +0.012 A 
ENDBRANCH  14  17
ENDBRANCH  11  12
ENDBRANCH   8  11
ENDBRANCH   2   5
BRANCH   1  25
ATOM     23  C   UNL     1      -1.412  -0.526   0.013  0.00  0.00    +0.230 C 
ATOM     24  O   UNL     1      -2.344   0.250   0.026  0.00  0.00    -0.274 OA
ATOM     25  N   UNL     1      -1.640  -1.854   0.008  0.00  0.00    -0.234 N 
ATOM     26  H   UNL     1      -0.794  -2.557  -0.004  0.00  0.00    +0.173 HD
BRANCH  23  27
ATOM     27  C   UNL     1       0.002  -0.004   0.002  0.00  0.00    +0.107 C 
BRANCH  27  28
ATOM     28  C   UNL     1      -0.019   1.526   0.010  0.00  0.00    +0.108 C 
BRANCH  28  31
ATOM     29  C   UNL     1       3.305   2.758  -0.587  0.00  0.00    +0.202 A 
ATOM     30  N   UNL     1       2.115   2.322  -1.059  0.00  0.00    -0.191 NA
ATOM     31  C   UNL     1       1.395   2.047  -0.000  0.00  0.00    +0.228 A 
ATOM     32  O   UNL     1       2.148   2.322   1.069  0.00  0.00    -0.338 OA
ATOM     33  N   UNL     1       3.238   2.722   0.719  0.00  0.00    -0.056 NA
BRANCH  29  37
ATOM     34  C   UNL     1       6.638   4.011  -2.911  0.00  0.00    +0.000 A 
ATOM     35  C   UNL     1       6.716   4.027  -1.530  0.00  0.00    +0.001 A 
ATOM     36  C   UNL     1       5.637   3.622  -0.771  0.00  0.00    +0.012 A 
ATOM     37  C   UNL     1       4.468   3.195  -1.398  0.00  0.00    +0.022 A 
ATOM     38  C   UNL     1       4.397   3.175  -2.789  0.00  0.00    +0.012 A 
ATOM     39  C   UNL     1       5.480   3.589  -3.539  0.00  0.00    +0.001 A 
ENDBRANCH  29  37
ENDBRANCH  28  31
ENDBRANCH  27  28
ENDBRANCH  23  27
ENDBRANCH   1  25
TORSDOF 9
