REMARK  Name = ZINC35807801
REMARK  21 active torsions:
REMARK  status: ('A' for Active; 'I' for Inactive)
REMARK    1  A    between atoms: C_1  and  C_2
REMARK    2  A    between atoms: C_2  and  C_3
REMARK    3  A    between atoms: C_2  and  C_4
REMARK    4  A    between atoms: C_2  and  C_5
REMARK    5  A    between atoms: C_8  and  C_11
REMARK    6  A    between atoms: C_11  and  N_12
REMARK    7  A    between atoms: N_12  and  C_13
REMARK    8  A    between atoms: N_12  and  C_25
REMARK    9  A    between atoms: C_13  and  C_14
REMARK   10  A    between atoms: C_14  and  C_15
REMARK   11  A    between atoms: C_18  and  O_23
REMARK   12  A    between atoms: C_19  and  O_21
REMARK   13  A    between atoms: O_21  and  C_22
REMARK   14  A    between atoms: O_23  and  C_24
REMARK   15  A    between atoms: C_25  and  C_26
REMARK   16  A    between atoms: C_28  and  C_31
REMARK   17  A    between atoms: N_33  and  C_34
REMARK   18  A    between atoms: C_34  and  C_35
REMARK   19  A    between atoms: C_35  and  N_36
REMARK   20  A    between atoms: N_36  and  C_37
REMARK   21  A    between atoms: N_36  and  C_38
REMARK                            x       y       z     vdW  Elec       q    Type
REMARK                         _______ _______ _______ _____ _____    ______ ____
ROOT
ATOM      1  N   UNL     1       2.378  -0.695  -5.764  0.00  0.00    -0.292 NA
ENDROOT
BRANCH   1   2
ATOM      2  C   UNL     1       2.839  -1.748  -4.849  0.00  0.00    +0.120 C 
BRANCH   2   6
ATOM      3  C   UNL     1       2.363  -5.563  -6.711  0.00  0.00    -0.042 A 
ATOM      4  C   UNL     1       3.557  -4.877  -6.836  0.00  0.00    +0.004 A 
ATOM      5  C   UNL     1       3.711  -3.642  -6.233  0.00  0.00    +0.005 A 
ATOM      6  C   UNL     1       2.671  -3.093  -5.507  0.00  0.00    -0.033 A 
ATOM      7  C   UNL     1       1.477  -3.779  -5.383  0.00  0.00    +0.005 A 
ATOM      8  C   UNL     1       1.321  -5.011  -5.989  0.00  0.00    +0.004 A 
BRANCH   3  10
ATOM      9  C   UNL     1       1.132  -6.812  -8.464  0.00  0.00    +0.015 C 
ATOM     10  C   UNL     1       2.196  -6.909  -7.368  0.00  0.00    -0.013 C 
ATOM     11  C   UNL     1       1.758  -7.936  -6.322  0.00  0.00    +0.015 C 
ATOM     12  C   UNL     1       3.526  -7.345  -7.985  0.00  0.00    +0.015 C 
ENDBRANCH   3  10
ENDBRANCH   2   6
ENDBRANCH   1   2
BRANCH   1  13
ATOM     13  C   UNL     1       3.117  -0.739  -7.033  0.00  0.00    +0.090 C 
BRANCH  13  14
ATOM     14  C   UNL     1       4.585  -0.387  -6.781  0.00  0.00    +0.050 C 
BRANCH  14  15
ATOM     15  C   UNL     1       5.343  -0.433  -8.083  0.00  0.00    -0.042 A 
ATOM     16  C   UNL     1       5.932  -1.613  -8.497  0.00  0.00    +0.007 A 
ATOM     17  C   UNL     1       6.628  -1.660  -9.690  0.00  0.00    +0.049 A 
ATOM     18  C   UNL     1       6.737  -0.523 -10.474  0.00  0.00    +0.161 A 
ATOM     19  C   UNL     1       6.144   0.665 -10.058  0.00  0.00    +0.162 A 
ATOM     20  C   UNL     1       5.443   0.704  -8.863  0.00  0.00    +0.053 A 
BRANCH  19  21
ATOM     21  O   UNL     1       6.248   1.784 -10.824  0.00  0.00    -0.491 OA
ATOM     22  C   UNL     1       5.614   2.967 -10.334  0.00  0.00    +0.277 C 
ENDBRANCH  19  21
BRANCH  18  23
ATOM     23  O   UNL     1       7.422  -0.568 -11.648  0.00  0.00    -0.491 OA
ATOM     24  C   UNL     1       8.005  -1.821 -12.012  0.00  0.00    +0.277 C 
ENDBRANCH  18  23
ENDBRANCH  14  15
ENDBRANCH  13  14
ENDBRANCH   1  13
BRANCH   1  25
ATOM     25  C   UNL     1       0.931  -0.793  -5.994  0.00  0.00    +0.147 C 
BRANCH  25  26
ATOM     26  C   UNL     1       0.194  -0.281  -4.784  0.00  0.00    +0.093 A 
ATOM     27  N   UNL     1      -0.272   0.920  -4.574  0.00  0.00    -0.238 NA
ATOM     28  C   UNL     1      -0.901   1.164  -3.420  0.00  0.00    +0.133 A 
ATOM     29  C   UNL     1      -0.998   0.109  -2.552  0.00  0.00    +0.080 A 
ATOM     30  S   UNL     1      -0.227  -1.123  -3.394  0.00  0.00    -0.078 S 
BRANCH  28  31
ATOM     31  C   UNL     1      -1.456   2.490  -3.099  0.00  0.00    +0.263 C 
ATOM     32  O   UNL     1      -2.022   2.672  -2.038  0.00  0.00    -0.269 OA
ATOM     33  N   UNL     1      -1.337   3.501  -3.982  0.00  0.00    -0.312 N 
ATOM     34  H   UNL     1      -0.886   3.356  -4.829  0.00  0.00    +0.149 HD
BRANCH  33  35
ATOM     35  C   UNL     1      -1.890   4.820  -3.664  0.00  0.00    +0.086 C 
BRANCH  35  36
ATOM     36  C   UNL     1      -1.621   5.780  -4.825  0.00  0.00    -0.061 C 
BRANCH  36  37
ATOM     37  N   UNL     1      -2.175   7.102  -4.506  0.00  0.00    +0.377 N 
ATOM     38  C   UNL     1      -1.456   7.670  -3.358  0.00  0.00    -0.097 C 
ATOM     39  C   UNL     1      -2.024   7.989  -5.667  0.00  0.00    -0.097 C 
ATOM     40  H   UNL     1      -3.154   7.011  -4.278  0.00  0.00    -0.083 HD
ENDBRANCH  36  37
ENDBRANCH  35  36
ENDBRANCH  33  35
ENDBRANCH  28  31
ENDBRANCH  25  26
ENDBRANCH   1  25
TORSDOF 14
