REMARK  Name = ZINC35397824
REMARK  6 active torsions:
REMARK  status: ('A' for Active; 'I' for Inactive)
REMARK    1  A    between atoms: C_4  and  S_7
REMARK    2  A    between atoms: S_7  and  N_10
REMARK    3  A    between atoms: N_10  and  C_11
REMARK    4  A    between atoms: C_13  and  C_30
REMARK    5  A    between atoms: C_21  and  C_24
REMARK    6  A    between atoms: C_24  and  N_25
REMARK                            x       y       z     vdW  Elec       q    Type
REMARK                         _______ _______ _______ _____ _____    ______ ____
ROOT
ATOM      1  C   UNL     1       5.655  -1.606   1.868  0.00  0.00    +0.091 A 
ATOM      2  C   UNL     1       6.899  -1.013   2.040  0.00  0.00    +0.046 A 
ATOM      3  C   UNL     1       8.006  -1.843   2.259  0.00  0.00    +0.103 A 
ATOM      4  C   UNL     1       7.814  -3.235   2.295  0.00  0.00    +0.113 A 
ATOM      5  N   UNL     1       6.606  -3.750   2.125  0.00  0.00    -0.347 N 
ATOM      6  C   UNL     1       5.547  -2.991   1.924  0.00  0.00    +0.110 A 
ATOM      7  N   UNL     1       8.894  -4.073   2.510  0.00  0.00    -0.316 N 
ATOM      8  C   UNL     1       9.219  -4.544   3.863  0.00  0.00    +0.106 C 
ATOM      9  C   UNL     1       9.307  -6.073   3.845  0.00  0.00    +0.019 C 
ATOM     10  C   UNL     1      10.305  -6.510   2.770  0.00  0.00    +0.005 C 
ATOM     11  C   UNL     1       9.820  -6.038   1.398  0.00  0.00    -0.010 C 
ATOM     12  C   UNL     1       9.734  -4.513   1.387  0.00  0.00    +0.108 C 
ATOM     13  H   UNL     1       6.497  -4.714   2.154  0.00  0.00    +0.167 HD
ENDROOT
BRANCH   3  14
ATOM     14  C   UNL     1       9.347  -1.268   2.447  0.00  0.00    +0.390 C 
ATOM     15  O   UNL     1       9.521  -0.064   2.308  0.00  0.00    -0.240 OA
ATOM     16  O   UNL     1      10.287  -1.992   2.742  0.00  0.00    -0.240 OA
ENDBRANCH   3  14
BRANCH   1  17
ATOM     17  N   UNL     1       4.519  -0.817   1.647  0.00  0.00    -0.096 NA
BRANCH  17  18
ATOM     18  S   UNL     1       3.039  -1.533   1.450  0.00  0.00    +0.092 S 
ATOM     19  O   UNL     1       2.713  -2.140   2.692  0.00  0.00    -0.148 OA
ATOM     20  O   UNL     1       3.103  -2.269   0.236  0.00  0.00    -0.148 OA
BRANCH  18  24
ATOM     21  C   UNL     1       0.024   1.780   0.798  0.00  0.00    +0.000 A 
ATOM     22  C   UNL     1       0.672   1.213  -0.283  0.00  0.00    +0.002 A 
ATOM     23  C   UNL     1       1.593   0.201  -0.084  0.00  0.00    +0.029 A 
ATOM     24  C   UNL     1       1.866  -0.243   1.196  0.00  0.00    +0.110 A 
ATOM     25  C   UNL     1       1.218   0.325   2.278  0.00  0.00    +0.029 A 
ATOM     26  C   UNL     1       0.296   1.335   2.079  0.00  0.00    +0.002 A 
ENDBRANCH  18  24
ENDBRANCH  17  18
ENDBRANCH   1  17
BRANCH  11  27
ATOM     27  C   UNL     1      10.801  -6.504   0.321  0.00  0.00    -0.074 C 
BRANCH  27  28
ATOM     28  N   UNL     1      10.792  -7.971   0.252  0.00  0.00    +0.380 N 
ATOM     29  C   UNL     1       9.494  -8.451  -0.286  0.00  0.00    -0.079 C 
ATOM     30  C   UNL     1       9.831  -9.867  -0.816  0.00  0.00    -0.020 C 
ATOM     31  C   UNL     1      11.249  -9.688  -1.403  0.00  0.00    -0.020 C 
ATOM     32  C   UNL     1      11.822  -8.444  -0.700  0.00  0.00    -0.079 C 
ATOM     33  H   UNL     1      10.958  -8.364   1.167  0.00  0.00    -0.082 HD
ENDBRANCH  27  28
ENDBRANCH  11  27
TORSDOF 6
