REMARK  Name = ZINC36828059
REMARK  8 active torsions:
REMARK  status: ('A' for Active; 'I' for Inactive)
REMARK    1  A    between atoms: C_1  and  C_2
REMARK    2  A    between atoms: C_2  and  N_3
REMARK    3  A    between atoms: C_4  and  C_25
REMARK    4  A    between atoms: C_7  and  S_8
REMARK    5  A    between atoms: S_8  and  C_9
REMARK    6  A    between atoms: C_9  and  C_10
REMARK    7  A    between atoms: N_15  and  C_16
REMARK    8  A    between atoms: C_22  and  C_24
REMARK                            x       y       z     vdW  Elec       q    Type
REMARK                         _______ _______ _______ _____ _____    ______ ____
ROOT
ATOM      1  C   UNL     1      -2.971  -1.094   5.121  0.00  0.00    +0.231 C 
ATOM      2  O   UNL     1      -3.866  -0.720   4.393  0.00  0.00    -0.274 OA
ATOM      3  N   UNL     1      -3.240  -1.443   6.395  0.00  0.00    -0.239 N 
ATOM      4  C   UNL     1      -4.504  -1.377   6.859  0.00  0.00    +0.306 C 
ATOM      5  O   UNL     1      -5.401  -1.002   6.130  0.00  0.00    -0.252 OA
ATOM      6  N   UNL     1      -4.772  -1.726   8.133  0.00  0.00    -0.296 N 
ATOM      7  H   UNL     1      -2.524  -1.743   6.977  0.00  0.00    +0.159 HD
ATOM      8  H   UNL     1      -4.056  -2.026   8.715  0.00  0.00    +0.151 HD
ENDROOT
BRANCH   6   9
ATOM      9  C   UNL     1      -6.146  -1.654   8.638  0.00  0.00    +0.077 C 
ATOM     10  C   UNL     1      -6.888  -2.944   8.282  0.00  0.00    +0.022 C 
ATOM     11  C   UNL     1      -8.322  -2.868   8.810  0.00  0.00    +0.002 C 
ATOM     12  C   UNL     1      -8.298  -2.697  10.330  0.00  0.00    +0.000 C 
ATOM     13  C   UNL     1      -7.556  -1.407  10.686  0.00  0.00    +0.005 C 
ATOM     14  C   UNL     1      -6.121  -1.483  10.158  0.00  0.00    +0.006 C 
ATOM     15  C   UNL     1      -5.379  -0.194  10.514  0.00  0.00    +0.009 C 
ENDBRANCH   6   9
BRANCH   1  16
ATOM     16  C   UNL     1      -1.559  -1.168   4.601  0.00  0.00    +0.173 C 
BRANCH  16  17
ATOM     17  S   UNL     1      -1.524  -0.637   2.867  0.00  0.00    -0.077 S 
BRANCH  17  22
ATOM     18  N   UNL     1       0.711  -0.489   1.189  0.00  0.00    -0.302 N 
ATOM     19  C   UNL     1       2.059  -0.744   1.308  0.00  0.00    +0.171 A 
ATOM     20  N   UNL     1       2.265  -1.162   2.537  0.00  0.00    -0.128 NA
ATOM     21  N   UNL     1       1.155  -1.185   3.184  0.00  0.00    -0.122 NA
ATOM     22  C   UNL     1       0.172  -0.778   2.412  0.00  0.00    +0.192 A 
BRANCH  19  23
ATOM     23  C   UNL     1       3.076  -0.580   0.257  0.00  0.00    +0.056 A 
ATOM     24  C   UNL     1       4.443  -0.551   0.374  0.00  0.00    +0.019 A 
ATOM     25  C   UNL     1       5.200  -0.385  -0.764  0.00  0.00    +0.008 A 
ATOM     26  C   UNL     1       4.575  -0.255  -1.963  0.00  0.00    +0.046 A 
ATOM     27  S   UNL     1       2.854  -0.376  -1.503  0.00  0.00    -0.094 S 
ENDBRANCH  19  23
BRANCH  18  29
ATOM     28  C   UNL     1      -0.019   1.526   0.010  0.00  0.00    +0.027 C 
ATOM     29  C   UNL     1       0.002  -0.004   0.002  0.00  0.00    +0.122 C 
ENDBRANCH  18  29
ENDBRANCH  17  22
ENDBRANCH  16  17
ENDBRANCH   1  16
TORSDOF 6
