REMARK  Name = ZINC01445594
REMARK  6 active torsions:
REMARK  status: ('A' for Active; 'I' for Inactive)
REMARK    1  A    between atoms: C_1  and  O_2
REMARK    2  A    between atoms: O_2  and  C_3
REMARK    3  A    between atoms: C_3  and  C_5
REMARK    4  A    between atoms: C_6  and  N_33
REMARK    5  A    between atoms: N_7  and  C_26
REMARK    6  A    between atoms: C_10  and  C_12
REMARK                            x       y       z     vdW  Elec       q    Type
REMARK                         _______ _______ _______ _____ _____    ______ ____
ROOT
ATOM      1  C   UNL     1      -0.892  -2.354   0.474  0.00  0.00    +0.084 C 
ATOM      2  C   UNL     1      -2.180  -2.787   0.555  0.00  0.00    +0.103 C 
ATOM      3  N   UNL     1      -2.536  -3.996   0.006  0.00  0.00    -0.261 N 
ATOM      4  C   UNL     1      -1.750  -4.584  -0.950  0.00  0.00    +0.024 C 
ATOM      5  C   UNL     1      -0.455  -4.230  -1.091  0.00  0.00    +0.025 C 
ATOM      6  C   UNL     1       0.161  -3.178  -0.207  0.00  0.00    +0.094 C 
ATOM      7  C   UNL     1       0.359  -4.831  -2.067  0.00  0.00    +0.162 C 
ATOM      8  O   UNL     1       1.516  -4.477  -2.179  0.00  0.00    -0.292 OA
ATOM      9  C   UNL     1      -0.176  -5.904  -2.976  0.00  0.00    +0.080 C 
ATOM     10  C   UNL     1      -1.305  -6.650  -2.256  0.00  0.00    +0.014 C 
ATOM     11  C   UNL     1      -2.370  -5.632  -1.841  0.00  0.00    +0.052 C 
ENDROOT
BRANCH   6  12
ATOM     12  C   UNL     1       1.012  -3.853   0.838  0.00  0.00    -0.031 A 
ATOM     13  C   UNL     1       0.433  -4.728   1.739  0.00  0.00    +0.008 A 
ATOM     14  C   UNL     1       1.209  -5.350   2.698  0.00  0.00    +0.050 A 
ATOM     15  C   UNL     1       2.570  -5.099   2.759  0.00  0.00    +0.166 A 
ATOM     16  C   UNL     1       3.153  -4.218   1.851  0.00  0.00    +0.167 A 
ATOM     17  C   UNL     1       2.370  -3.602   0.889  0.00  0.00    +0.054 A 
ATOM     18  O   UNL     1       4.490  -4.141   2.116  0.00  0.00    -0.453 OA
ATOM     19  C   UNL     1       4.649  -4.665   3.448  0.00  0.00    +0.466 C 
ATOM     20  O   UNL     1       3.542  -5.573   3.592  0.00  0.00    -0.453 OA
ENDBRANCH   6  12
BRANCH   3  21
ATOM     21  C   UNL     1      -3.711  -4.631   0.428  0.00  0.00    +0.040 A 
ATOM     22  C   UNL     1      -3.681  -5.501   1.509  0.00  0.00    +0.026 A 
ATOM     23  C   UNL     1      -4.840  -6.127   1.923  0.00  0.00    +0.040 A 
ATOM     24  C   UNL     1      -6.032  -5.888   1.260  0.00  0.00    +0.124 A 
ATOM     25  C   UNL     1      -6.064  -5.020   0.181  0.00  0.00    +0.040 A 
ATOM     26  C   UNL     1      -4.908  -4.388  -0.232  0.00  0.00    +0.026 A 
ATOM     27  F   UNL     1      -7.165  -6.501   1.666  0.00  0.00    -0.205 F 
ENDBRANCH   3  21
BRANCH   2  28
ATOM     28  N   UNL     1      -3.123  -2.017   1.185  0.00  0.00    -0.346 N 
ATOM     29  H   UNL     1      -3.126  -1.055   1.062  0.00  0.00    +0.143 HD
ATOM     30  H   UNL     1      -3.788  -2.434   1.755  0.00  0.00    +0.143 HD
ENDBRANCH   2  28
BRANCH   1  31
ATOM     31  C   UNL     1      -0.545  -1.115   1.032  0.00  0.00    +0.339 C 
ATOM     32  O   UNL     1      -1.372  -0.475   1.657  0.00  0.00    -0.245 OA
BRANCH  31  34
ATOM     33  C   UNL     1       0.990   0.638   1.469  0.00  0.00    +0.280 C 
ATOM     34  O   UNL     1       0.706  -0.630   0.875  0.00  0.00    -0.465 OA
ENDBRANCH  31  34
ENDBRANCH   1  31
TORSDOF 5
