REMARK  Name = ZINC39528417
REMARK  7 active torsions:
REMARK  status: ('A' for Active; 'I' for Inactive)
REMARK    1  A    between atoms: C_1  and  C_2
REMARK    2  A    between atoms: C_4  and  C_25
REMARK    3  A    between atoms: C_7  and  N_8
REMARK    4  A    between atoms: C_12  and  S_15
REMARK    5  A    between atoms: S_15  and  O_18
REMARK    6  A    between atoms: O_18  and  C_19
REMARK    7  A    between atoms: C_30  and  O_31
REMARK                            x       y       z     vdW  Elec       q    Type
REMARK                         _______ _______ _______ _____ _____    ______ ____
ROOT
ATOM      1  N   UNL     1       0.025  -0.012   2.414  0.00  0.00    -0.331 N 
ATOM      2  C   UNL     1      -1.236   0.341   3.086  0.00  0.00    +0.086 C 
ATOM      3  C   UNL     1      -1.151  -0.113   4.547  0.00  0.00    -0.061 C 
ATOM      4  N   UNL     1       0.048   0.463   5.168  0.00  0.00    +0.398 N 
ATOM      5  C   UNL     1       1.252  -0.069   4.519  0.00  0.00    +0.133 C 
ATOM      6  C   UNL     1       1.287   0.381   3.059  0.00  0.00    +0.115 C 
ATOM      7  H   UNL     1       0.029   1.467   5.067  0.00  0.00    -0.083 HD
ATOM      8  H   UNL     1       0.064   0.227   6.149  0.00  0.00    -0.083 HD
ENDROOT
BRANCH   1  15
ATOM      9  C   UNL     1      -0.018   1.503   0.010  0.00  0.00    +0.045 C 
ATOM     10  C   UNL     1       0.002  -0.004   0.002  0.00  0.00    -0.029 A 
ATOM     11  C   UNL     1       0.006  -0.686  -1.196  0.00  0.00    +0.013 A 
ATOM     12  C   UNL     1       0.025  -2.080  -1.203  0.00  0.00    -0.014 A 
ATOM     13  C   UNL     1       0.041  -2.781   0.002  0.00  0.00    +0.010 A 
ATOM     14  C   UNL     1       0.037  -2.095   1.197  0.00  0.00    +0.024 A 
ATOM     15  C   UNL     1       0.023  -0.705   1.202  0.00  0.00    +0.033 A 
BRANCH  12  16
ATOM     16  C   UNL     1       0.029  -2.816  -2.491  0.00  0.00    +0.024 A 
ATOM     17  C   UNL     1      -0.900  -2.501  -3.480  0.00  0.00    +0.012 A 
ATOM     18  C   UNL     1      -0.893  -3.188  -4.676  0.00  0.00    +0.001 A 
ATOM     19  C   UNL     1       0.034  -4.192  -4.897  0.00  0.00    +0.004 A 
ATOM     20  C   UNL     1       0.960  -4.513  -3.923  0.00  0.00    +0.046 A 
ATOM     21  C   UNL     1       0.968  -3.826  -2.720  0.00  0.00    +0.125 A 
BRANCH  21  22
ATOM     22  O   UNL     1       1.881  -4.138  -1.763  0.00  0.00    -0.506 OA
ATOM     23  H   UNL     1       1.587  -4.823  -1.147  0.00  0.00    +0.292 HD
ENDBRANCH  21  22
ENDBRANCH  12  16
ENDBRANCH   1  15
BRANCH   5  24
ATOM     24  S   UNL     1       2.726   0.547   5.379  0.00  0.00    +0.109 S 
ATOM     25  O   UNL     1       3.890  -0.097   4.879  0.00  0.00    -0.138 OA
ATOM     26  O   UNL     1       2.672   1.962   5.490  0.00  0.00    -0.138 OA
BRANCH  24  27
ATOM     27  O   UNL     1       2.586   0.040   6.807  0.00  0.00    -0.347 OA
BRANCH  27  28
ATOM     28  C   UNL     1       2.848  -1.286   6.952  0.00  0.00    +0.156 A 
ATOM     29  C   UNL     1       1.827  -2.215   6.817  0.00  0.00    +0.048 A 
ATOM     30  C   UNL     1       2.096  -3.562   6.964  0.00  0.00    +0.004 A 
ATOM     31  C   UNL     1       3.382  -3.984   7.245  0.00  0.00    +0.000 A 
ATOM     32  C   UNL     1       4.402  -3.060   7.380  0.00  0.00    +0.004 A 
ATOM     33  C   UNL     1       4.139  -1.712   7.229  0.00  0.00    +0.048 A 
ENDBRANCH  27  28
ENDBRANCH  24  27
ENDBRANCH   5  24
TORSDOF 6
