REMARK  Name = ZINC20309350
REMARK  10 active torsions:
REMARK  status: ('A' for Active; 'I' for Inactive)
REMARK    1  A    between atoms: C_1  and  N_2
REMARK    2  A    between atoms: N_2  and  C_3
REMARK    3  A    between atoms: N_2  and  C_4
REMARK    4  A    between atoms: C_4  and  C_5
REMARK    5  A    between atoms: C_5  and  N_6
REMARK    6  A    between atoms: C_7  and  C_27
REMARK    7  A    between atoms: C_9  and  C_14
REMARK    8  A    between atoms: C_14  and  C_16
REMARK    9  A    between atoms: C_25  and  O_26
REMARK   10  A    between atoms: C_30  and  N_33
REMARK                            x       y       z     vdW  Elec       q    Type
REMARK                         _______ _______ _______ _____ _____    ______ ____
ROOT
ATOM      1  N   UNL     1       1.336   2.443  -0.145  0.00  0.00    -0.285 N 
ATOM      2  C   UNL     1       0.521   3.616  -0.481  0.00  0.00    +0.145 C 
ATOM      3  C   UNL     1      -0.913   3.223  -0.215  0.00  0.00    +0.076 C 
ATOM      4  C   UNL     1      -0.892   1.943   0.223  0.00  0.00    +0.249 C 
ATOM      5  C   UNL     1       0.506   1.468   0.270  0.00  0.00    +0.288 C 
ATOM      6  O   UNL     1       0.854   0.360   0.625  0.00  0.00    -0.266 OA
ATOM      7  O   UNL     1      -1.980   1.215   0.568  0.00  0.00    -0.282 OA
ENDROOT
BRANCH   2   8
ATOM      8  C   UNL     1       0.701   3.973  -1.934  0.00  0.00    -0.022 A 
ATOM      9  C   UNL     1       0.607   2.992  -2.903  0.00  0.00    +0.008 A 
ATOM     10  C   UNL     1       0.767   3.320  -4.237  0.00  0.00    +0.033 A 
ATOM     11  C   UNL     1       1.031   4.627  -4.600  0.00  0.00    +0.126 A 
ATOM     12  C   UNL     1       1.132   5.607  -3.630  0.00  0.00    +0.033 A 
ATOM     13  C   UNL     1       0.966   5.280  -2.297  0.00  0.00    +0.008 A 
BRANCH  11  14
ATOM     14  N   UNL     1       1.208   4.978  -6.027  0.00  0.00    +0.056 N 
ATOM     15  O   UNL     1       1.442   6.130  -6.347  0.00  0.00    -0.126 OA
ATOM     16  O   UNL     1       1.120   4.114  -6.881  0.00  0.00    -0.126 OA
ENDBRANCH  11  14
ENDBRANCH   2   8
BRANCH   3  17
ATOM     17  C   UNL     1      -2.100   4.065  -0.402  0.00  0.00    +0.199 C 
ATOM     18  O   UNL     1      -2.924   3.776  -1.250  0.00  0.00    -0.287 OA
BRANCH  17  19
ATOM     19  C   UNL     1      -2.295   5.260   0.438  0.00  0.00    +0.064 A 
ATOM     20  C   UNL     1      -1.369   5.560   1.454  0.00  0.00    +0.016 A 
ATOM     21  C   UNL     1      -1.526   6.654   2.239  0.00  0.00    +0.009 A 
ATOM     22  C   UNL     1      -2.627   7.513   2.047  0.00  0.00    -0.014 A 
ATOM     23  C   UNL     1      -2.805   8.650   2.851  0.00  0.00    +0.008 A 
ATOM     24  C   UNL     1      -3.878   9.463   2.643  0.00  0.00    +0.001 A 
ATOM     25  C   UNL     1      -4.806   9.184   1.642  0.00  0.00    +0.001 A 
ATOM     26  C   UNL     1      -4.665   8.089   0.844  0.00  0.00    +0.012 A 
ATOM     27  C   UNL     1      -3.571   7.229   1.030  0.00  0.00    +0.024 A 
ATOM     28  C   UNL     1      -3.393   6.091   0.216  0.00  0.00    +0.135 A 
BRANCH  28  29
ATOM     29  O   UNL     1      -4.281   5.806  -0.766  0.00  0.00    -0.505 OA
ATOM     30  H   UNL     1      -5.144   6.465  -0.935  0.00  0.00    +0.292 HD
ENDBRANCH  28  29
ENDBRANCH  17  19
ENDBRANCH   3  17
BRANCH   1  31
ATOM     31  C   UNL     1       2.795   2.349  -0.243  0.00  0.00    +0.090 C 
BRANCH  31  32
ATOM     32  C   UNL     1       3.180   1.843  -1.635  0.00  0.00    -0.060 C 
BRANCH  32  34
ATOM     33  C   UNL     1       5.166   0.716  -0.829  0.00  0.00    -0.097 C 
ATOM     34  N   UNL     1       4.643   1.749  -1.734  0.00  0.00    +0.377 N 
ATOM     35  C   UNL     1       5.062   1.497  -3.119  0.00  0.00    -0.097 C 
ATOM     36  H   UNL     1       5.066   2.716  -1.423  0.00  0.00    -0.083 HD
ENDBRANCH  32  34
ENDBRANCH  31  32
ENDBRANCH   1  31
TORSDOF 8
