REMARK  Name = ZINC66772007
REMARK  10 active torsions:
REMARK  status: ('A' for Active; 'I' for Inactive)
REMARK    1  A    between atoms: C_1  and  C_2
REMARK    2  A    between atoms: C_2  and  C_4
REMARK    3  A    between atoms: C_2  and  C_7
REMARK    4  A    between atoms: C_4  and  S_5
REMARK    5  A    between atoms: S_5  and  C_6
REMARK    6  A    between atoms: N_9  and  C_10
REMARK    7  A    between atoms: C_12  and  C_21
REMARK    8  A    between atoms: C_21  and  C_22
REMARK    9  A    between atoms: C_21  and  C_23
REMARK   10  A    between atoms: C_21  and  C_24
REMARK                            x       y       z     vdW  Elec       q    Type
REMARK                         _______ _______ _______ _____ _____    ______ ____
ROOT
ATOM      1  C   UNL     1       0.952  -0.652   3.582  0.00  0.00    +0.132 A 
ATOM      2  C   UNL     1       2.077  -1.418   3.592  0.00  0.00    +0.069 A 
ATOM      3  C   UNL     1       2.423  -1.656   4.926  0.00  0.00    +0.071 A 
ATOM      4  N   UNL     1       1.547  -1.061   5.694  0.00  0.00    -0.167 NA
ATOM      5  N   UNL     1       0.609  -0.415   4.880  0.00  0.00    -0.183 N 
ATOM      6  C   UNL     1      -0.482   0.334   5.317  0.00  0.00    +0.253 A 
ATOM      7  N   UNL     1      -1.290   0.881   4.423  0.00  0.00    -0.219 NA
ATOM      8  C   UNL     1      -2.335   1.597   4.804  0.00  0.00    +0.116 A 
ATOM      9  C   UNL     1      -2.577   1.772   6.158  0.00  0.00    +0.039 A 
ATOM     10  C   UNL     1      -1.710   1.185   7.066  0.00  0.00    +0.116 A 
ATOM     11  N   UNL     1      -0.687   0.477   6.617  0.00  0.00    -0.219 NA
ENDROOT
BRANCH   1  14
ATOM     12  C   UNL     1       0.731  -0.503   1.223  0.00  0.00    +0.222 C 
ATOM     13  O   UNL     1       1.725  -1.187   1.099  0.00  0.00    -0.275 OA
ATOM     14  N   UNL     1       0.278  -0.191   2.453  0.00  0.00    -0.270 N 
ATOM     15  H   UNL     1      -0.517   0.356   2.553  0.00  0.00    +0.156 HD
BRANCH  12  17
ATOM     16  C   UNL     1      -0.019   1.526   0.010  0.00  0.00    +0.018 C 
ATOM     17  C   UNL     1       0.002  -0.004   0.002  0.00  0.00    +0.082 C 
BRANCH  17  18
ATOM     18  C   UNL     1       0.718  -0.497  -1.257  0.00  0.00    +0.081 C 
BRANCH  18  19
ATOM     19  S   UNL     1      -0.239  -0.022  -2.723  0.00  0.00    -0.163 S 
ATOM     20  C   UNL     1       0.732  -0.673  -4.110  0.00  0.00    +0.084 C 
ENDBRANCH  18  19
ENDBRANCH  17  18
ENDBRANCH  12  17
ENDBRANCH   1  14
BRANCH   3  21
ATOM     21  C   UNL     1       3.605  -2.462   5.398  0.00  0.00    +0.006 C 
ATOM     22  C   UNL     1       4.887  -1.648   5.205  0.00  0.00    +0.017 C 
ATOM     23  C   UNL     1       3.433  -2.799   6.880  0.00  0.00    +0.017 C 
ATOM     24  C   UNL     1       3.696  -3.756   4.587  0.00  0.00    +0.017 C 
ENDBRANCH   3  21
TORSDOF 5
