REMARK  Name = ZINC12863096
REMARK  5 active torsions:
REMARK  status: ('A' for Active; 'I' for Inactive)
REMARK    1  A    between atoms: C_1  and  C_2
REMARK    2  A    between atoms: N_18  and  C_21
REMARK    3  A    between atoms: C_26  and  C_27
REMARK    4  A    between atoms: N_29  and  C_30
REMARK    5  A    between atoms: C_30  and  C_31
REMARK                            x       y       z     vdW  Elec       q    Type
REMARK                         _______ _______ _______ _____ _____    ______ ____
ROOT
ATOM      1  C   UNL     1       3.032   4.401   0.990  0.00  0.00    +0.048 C 
ATOM      2  C   UNL     1       1.792   5.234   0.659  0.00  0.00    +0.153 C 
ATOM      3  C   UNL     1       1.905   6.654   1.157  0.00  0.00    +0.053 A 
ATOM      4  C   UNL     1       2.064   7.713   0.330  0.00  0.00    -0.015 A 
ATOM      5  C   UNL     1       2.151   8.889   1.179  0.00  0.00    +0.003 A 
ATOM      6  C   UNL     1       2.325  10.247   0.892  0.00  0.00    +0.010 A 
ATOM      7  C   UNL     1       2.358  11.106   1.963  0.00  0.00    +0.001 A 
ATOM      8  C   UNL     1       2.227  10.661   3.268  0.00  0.00    +0.002 A 
ATOM      9  C   UNL     1       2.054   9.323   3.579  0.00  0.00    +0.026 A 
ATOM     10  C   UNL     1       2.017   8.428   2.512  0.00  0.00    +0.047 A 
ATOM     11  N   UNL     1       1.867   7.072   2.459  0.00  0.00    -0.356 N 
ATOM     12  H   UNL     1       1.750   6.493   3.228  0.00  0.00    +0.166 HD
ATOM     13  C   UNL     1       2.133   7.670  -1.175  0.00  0.00    +0.056 C 
ATOM     14  C   UNL     1       2.360   6.229  -1.657  0.00  0.00    +0.115 C 
ATOM     15  N   UNL     1       1.566   5.344  -0.802  0.00  0.00    -0.265 N 
ATOM     16  C   UNL     1       0.512   4.579  -1.086  0.00  0.00    +0.317 C 
ATOM     17  O   UNL     1       0.173   4.275  -2.212  0.00  0.00    -0.252 OA
ATOM     18  N   UNL     1      -0.132   4.188   0.026  0.00  0.00    -0.191 N 
ATOM     19  C   UNL     1       0.522   4.574   1.143  0.00  0.00    +0.257 C 
ATOM     20  O   UNL     1       0.166   4.423   2.292  0.00  0.00    -0.272 OA
ENDROOT
BRANCH  18  21
ATOM     21  C   UNL     1      -1.328   3.466   0.027  0.00  0.00    +0.058 A 
ATOM     22  C   UNL     1      -2.545   4.133   0.037  0.00  0.00    +0.025 A 
ATOM     23  C   UNL     1      -3.726   3.417   0.038  0.00  0.00    +0.002 A 
ATOM     24  C   UNL     1      -3.706   2.032   0.031  0.00  0.00    +0.001 A 
ATOM     25  C   UNL     1      -2.506   1.353   0.015  0.00  0.00    +0.015 A 
ATOM     26  C   UNL     1      -1.304   2.064   0.019  0.00  0.00    +0.059 A 
BRANCH  26  27
ATOM     27  C   UNL     1      -0.016   1.344   0.009  0.00  0.00    +0.246 C 
ATOM     28  O   UNL     1       1.028   1.966   0.003  0.00  0.00    -0.270 OA
ATOM     29  N   UNL     1       0.002  -0.004   0.002  0.00  0.00    -0.309 N 
ATOM     30  H   UNL     1      -0.831  -0.500   0.007  0.00  0.00    +0.149 HD
BRANCH  29  31
ATOM     31  C   UNL     1       1.281  -0.719  -0.014  0.00  0.00    +0.136 C 
BRANCH  31  32
ATOM     32  C   UNL     1       1.021  -2.227  -0.020  0.00  0.00    +0.135 C 
ATOM     33  C   UNL     1       2.361  -2.989   0.080  0.00  0.00    +0.035 C 
ATOM     34  C   UNL     1       2.132  -4.183  -0.886  0.00  0.00    +0.031 C 
ATOM     35  C   UNL     1       1.243  -3.521  -1.968  0.00  0.00    +0.160 C 
ATOM     36  O   UNL     1       0.397  -2.608  -1.251  0.00  0.00    -0.375 OA
ENDBRANCH  31  32
ENDBRANCH  29  31
ENDBRANCH  26  27
ENDBRANCH  18  21
TORSDOF 4
