REMARK  Name = ZINC63809750
REMARK  8 active torsions:
REMARK  status: ('A' for Active; 'I' for Inactive)
REMARK    1  A    between atoms: C_1  and  O_2
REMARK    2  A    between atoms: O_2  and  C_3
REMARK    3  A    between atoms: C_6  and  S_23
REMARK    4  A    between atoms: C_8  and  N_9
REMARK    5  A    between atoms: C_10  and  C_12
REMARK    6  A    between atoms: C_12  and  C_13
REMARK    7  A    between atoms: C_13  and  C_14
REMARK    8  A    between atoms: S_23  and  N_26
REMARK                            x       y       z     vdW  Elec       q    Type
REMARK                         _______ _______ _______ _____ _____    ______ ____
ROOT
ATOM      1  C   UNL     1       0.625  -0.613  -1.057  0.00  0.00    +0.141 A 
ATOM      2  C   UNL     1       1.202   0.148  -2.061  0.00  0.00    +0.049 A 
ATOM      3  C   UNL     1       1.817  -0.472  -3.133  0.00  0.00    +0.032 A 
ATOM      4  C   UNL     1       1.859  -1.853  -3.206  0.00  0.00    +0.107 A 
ATOM      5  C   UNL     1       1.286  -2.619  -2.208  0.00  0.00    +0.055 A 
ATOM      6  C   UNL     1       0.672  -2.003  -1.128  0.00  0.00    +0.077 A 
ENDROOT
BRANCH   6   7
ATOM      7  N   UNL     1       0.095  -2.777  -0.112  0.00  0.00    -0.283 N 
ATOM      8  C   UNL     1      -0.496  -3.950  -0.413  0.00  0.00    +0.218 C 
ATOM      9  O   UNL     1      -0.459  -4.375  -1.549  0.00  0.00    -0.275 OA
ATOM     10  H   UNL     1       0.122  -2.469   0.807  0.00  0.00    +0.155 HD
BRANCH   8  11
ATOM     11  C   UNL     1      -1.204  -4.735   0.661  0.00  0.00    +0.100 C 
BRANCH  11  12
ATOM     12  C   UNL     1      -1.784  -6.017   0.059  0.00  0.00    +0.042 C 
BRANCH  12  13
ATOM     13  C   UNL     1      -2.491  -6.801   1.134  0.00  0.00    -0.041 C 
ATOM     14  C   UNL     1      -3.812  -6.775   1.423  0.00  0.00    -0.001 A 
ATOM     15  C   UNL     1      -4.942  -6.037   0.847  0.00  0.00    +0.010 A 
ATOM     16  C   UNL     1      -6.179  -6.223   1.361  0.00  0.00    +0.001 A 
ATOM     17  C   UNL     1      -6.408  -7.102   2.429  0.00  0.00    +0.002 A 
ATOM     18  C   UNL     1      -5.421  -7.816   3.011  0.00  0.00    +0.026 A 
ATOM     19  C   UNL     1      -4.081  -7.698   2.550  0.00  0.00    +0.043 A 
ATOM     20  N   UNL     1      -2.969  -8.271   2.942  0.00  0.00    -0.380 N 
ATOM     21  C   UNL     1      -1.869  -7.782   2.103  0.00  0.00    +0.144 C 
ATOM     22  H   UNL     1      -2.888  -8.915   3.663  0.00  0.00    +0.160 HD
ENDBRANCH  12  13
ENDBRANCH  11  12
ENDBRANCH   8  11
ENDBRANCH   6   7
BRANCH   4  23
ATOM     23  S   UNL     1       2.643  -2.637  -4.575  0.00  0.00    +0.061 S 
ATOM     24  O   UNL     1       2.071  -3.933  -4.684  0.00  0.00    -0.153 OA
ATOM     25  O   UNL     1       2.622  -1.702  -5.645  0.00  0.00    -0.153 OA
BRANCH  23  26
ATOM     26  N   UNL     1       4.234  -2.854  -4.169  0.00  0.00    -0.177 NA
ATOM     27  C   UNL     1       5.179  -1.807  -4.483  0.00  0.00    +0.109 C 
ATOM     28  C   UNL     1       5.753  -2.034  -5.904  0.00  0.00    +0.017 C 
ATOM     29  C   UNL     1       6.660  -3.193  -5.909  0.00  0.00    +0.001 C 
ATOM     30  C   UNL     1       5.989  -4.517  -5.556  0.00  0.00    +0.001 C 
ATOM     31  C   UNL     1       5.949  -4.673  -4.056  0.00  0.00    +0.017 C 
ATOM     32  C   UNL     1       4.627  -4.108  -3.495  0.00  0.00    +0.109 C 
ENDBRANCH  23  26
ENDBRANCH   4  23
BRANCH   1  34
ATOM     33  C   UNL     1       0.011   1.426   0.003  0.00  0.00    +0.277 C 
ATOM     34  O   UNL     1       0.020  -0.003  -0.003  0.00  0.00    -0.493 OA
ENDBRANCH   1  34
TORSDOF 7
