REMARK  Name = ZINC13498943
REMARK  18 active torsions:
REMARK  status: ('A' for Active; 'I' for Inactive)
REMARK    1  A    between atoms: C_1  and  C_2
REMARK    2  A    between atoms: C_2  and  C_3
REMARK    3  A    between atoms: C_3  and  C_4
REMARK    4  A    between atoms: C_3  and  C_5
REMARK    5  A    between atoms: C_3  and  N_6
REMARK    6  A    between atoms: C_7  and  C_11
REMARK    7  A    between atoms: C_11  and  C_13
REMARK    8  A    between atoms: C_11  and  N_71
REMARK    9  A    between atoms: C_13  and  C_14
REMARK   10  A    between atoms: C_13  and  C_15
REMARK   11  A    between atoms: C_16  and  C_17
REMARK   12  A    between atoms: C_16  and  N_71
REMARK   13  A    between atoms: C_17  and  C_18
REMARK   14  A    between atoms: C_18  and  O_19
REMARK   15  A    between atoms: C_20  and  C_21
REMARK   16  A    between atoms: C_20  and  N_71
REMARK   17  A    between atoms: C_25  and  C_34
REMARK   18  A    between atoms: C_26  and  C_33
REMARK                            x       y       z     vdW  Elec       q    Type
REMARK                         _______ _______ _______ _____ _____    ______ ____
ROOT
ATOM      1  N   UNL     1       4.328  -0.288  -0.133  0.00  0.00    +0.389 N 
ATOM      2  H   UNL     1       4.131  -1.203   0.290  0.00  0.00    -0.080 HD
ENDROOT
BRANCH   1   3
ATOM      3  C   UNL     1       3.159   0.132  -0.934  0.00  0.00    +0.006 C 
BRANCH   3   5
ATOM      4  N   UNL     1       1.708  -1.694  -1.966  0.00  0.00    -0.225 N 
ATOM      5  C   UNL     1       2.832  -0.956  -1.925  0.00  0.00    +0.139 A 
ATOM      6  N   UNL     1       3.589  -1.368  -2.913  0.00  0.00    -0.115 NA
ATOM      7  N   UNL     1       2.958  -2.305  -3.533  0.00  0.00    -0.023 NA
ATOM      8  N   UNL     1       1.821  -2.504  -2.963  0.00  0.00    -0.043 NA
BRANCH   4   9
ATOM      9  C   UNL     1       0.567  -1.592  -1.053  0.00  0.00    +0.061 C 
ATOM     10  C   UNL     1      -0.122  -0.240  -1.246  0.00  0.00    +0.036 C 
ATOM     11  C   UNL     1       1.056  -1.714   0.391  0.00  0.00    +0.036 C 
BRANCH   9  13
ATOM     12  C   UNL     1      -1.619  -2.611  -0.398  0.00  0.00    +0.006 C 
ATOM     13  C   UNL     1      -0.427  -2.717  -1.351  0.00  0.00    +0.026 C 
ENDBRANCH   9  13
ENDBRANCH   4   9
ENDBRANCH   3   5
BRANCH   3  14
ATOM     14  C   UNL     1       3.462   1.431  -1.684  0.00  0.00    -0.024 C 
ATOM     15  C   UNL     1       4.198   1.109  -2.986  0.00  0.00    +0.006 C 
ATOM     16  C   UNL     1       2.151   2.152  -2.005  0.00  0.00    +0.006 C 
ENDBRANCH   3  14
ENDBRANCH   1   3
BRANCH   1  17
ATOM     17  C   UNL     1       5.519  -0.406  -1.000  0.00  0.00    -0.075 C 
BRANCH  17  18
ATOM     18  C   UNL     1       6.581  -1.228  -0.266  0.00  0.00    +0.009 C 
BRANCH  18  19
ATOM     19  C   UNL     1       7.854  -1.288  -1.112  0.00  0.00    +0.154 C 
BRANCH  19  20
ATOM     20  O   UNL     1       8.845  -2.056  -0.427  0.00  0.00    -0.395 OA
ATOM     21  H   UNL     1       9.681  -2.137  -0.906  0.00  0.00    +0.209 HD
ENDBRANCH  19  20
ENDBRANCH  18  19
ENDBRANCH  17  18
ENDBRANCH   1  17
BRANCH   1  22
ATOM     22  C   UNL     1       4.581   0.694   0.943  0.00  0.00    -0.037 C 
BRANCH  22  23
ATOM     23  C   UNL     1       3.603   0.446   2.062  0.00  0.00    +0.001 A 
ATOM     24  C   UNL     1       3.950  -0.356   3.098  0.00  0.00    +0.017 A 
ATOM     25  C   UNL     1       2.977  -0.576   4.169  0.00  0.00    -0.001 A 
ATOM     26  C   UNL     1       3.277  -1.393   5.264  0.00  0.00    +0.013 A 
ATOM     27  C   UNL     1       2.347  -1.579   6.247  0.00  0.00    -0.047 A 
ATOM     28  C   UNL     1       1.105  -0.962   6.169  0.00  0.00    -0.046 A 
ATOM     29  C   UNL     1       0.787  -0.152   5.100  0.00  0.00    +0.030 A 
ATOM     30  C   UNL     1       1.719   0.051   4.087  0.00  0.00    +0.049 A 
ATOM     31  N   UNL     1       1.428   0.856   3.007  0.00  0.00    -0.322 N 
ATOM     32  H   UNL     1       0.560   1.287   2.952  0.00  0.00    +0.169 HD
ATOM     33  C   UNL     1       2.330   1.056   2.030  0.00  0.00    +0.251 A 
ATOM     34  O   UNL     1       2.040   1.778   1.092  0.00  0.00    -0.268 OA
ATOM     35  C   UNL     1       0.095  -1.181   7.265  0.00  0.00    +0.044 C 
ATOM     36  C   UNL     1       2.671  -2.459   7.426  0.00  0.00    +0.044 C 
ENDBRANCH  22  23
ENDBRANCH   1  22
TORSDOF 11
