REMARK  Name = ZINC04383832
REMARK  4 active torsions:
REMARK  status: ('A' for Active; 'I' for Inactive)
REMARK    1  A    between atoms: C_10  and  N_20
REMARK    2  A    between atoms: C_13  and  C_14
REMARK    3  A    between atoms: N_20  and  C_21
REMARK    4  A    between atoms: C_21  and  C_22
REMARK                            x       y       z     vdW  Elec       q    Type
REMARK                         _______ _______ _______ _____ _____    ______ ____
ROOT
ATOM      1  C   UNL     1      -2.801  -2.523   0.523  0.00  0.00    +0.002 A 
ATOM      2  C   UNL     1      -1.558  -2.761   1.092  0.00  0.00    +0.002 A 
ATOM      3  C   UNL     1      -0.439  -2.104   0.626  0.00  0.00    +0.028 A 
ATOM      4  C   UNL     1      -0.555  -1.206  -0.426  0.00  0.00    +0.075 A 
ATOM      5  C   UNL     1      -1.814  -0.968  -1.005  0.00  0.00    +0.090 A 
ATOM      6  C   UNL     1      -2.937  -1.643  -0.512  0.00  0.00    +0.030 A 
ATOM      7  N   UNL     1      -1.638  -0.060  -1.995  0.00  0.00    -0.226 NA
ATOM      8  C   UNL     1      -0.364   0.277  -2.066  0.00  0.00    +0.158 A 
ATOM      9  N   UNL     1       0.347  -0.409  -1.111  0.00  0.00    -0.279 N 
ATOM     10  C   UNL     1       1.692  -0.226  -0.990  0.00  0.00    +0.109 A 
ATOM     11  C   UNL     1       2.394   0.645  -1.806  0.00  0.00    -0.004 A 
ATOM     12  C   UNL     1       1.735   1.363  -2.788  0.00  0.00    -0.020 A 
ATOM     13  C   UNL     1       0.353   1.204  -2.945  0.00  0.00    +0.098 A 
ATOM     14  C   UNL     1       2.443   2.315  -3.714  0.00  0.00    +0.037 C 
ATOM     15  C   UNL     1       3.812   2.692  -3.152  0.00  0.00    +0.005 C 
ATOM     16  C   UNL     1       4.558   1.402  -2.791  0.00  0.00    +0.005 C 
ATOM     17  C   UNL     1       3.878   0.775  -1.576  0.00  0.00    +0.039 C 
ENDROOT
BRANCH  13  18
ATOM     18  C   UNL     1      -0.352   1.939  -3.952  0.00  0.00    +0.103 C 
ATOM     19  N   UNL     1      -0.911   2.522  -4.751  0.00  0.00    -0.191 NA
ENDBRANCH  13  18
BRANCH  10  20
ATOM     20  N   UNL     1       2.374  -0.929  -0.027  0.00  0.00    -0.327 N 
ATOM     21  H   UNL     1       1.750  -1.247   0.699  0.00  0.00    +0.148 HD
BRANCH  20  22
ATOM     22  C   UNL     1       3.110  -2.054  -0.619  0.00  0.00    +0.134 C 
BRANCH  22  23
ATOM     23  C   UNL     1       2.188  -3.271  -0.718  0.00  0.00    +0.135 C 
ATOM     24  C   UNL     1       2.974  -4.502  -1.221  0.00  0.00    +0.035 C 
ATOM     25  C   UNL     1       1.971  -5.240  -2.136  0.00  0.00    +0.031 C 
ATOM     26  C   UNL     1       0.698  -4.367  -2.078  0.00  0.00    +0.160 C 
ATOM     27  O   UNL     1       1.169  -3.050  -1.717  0.00  0.00    -0.375 OA
ENDBRANCH  22  23
ENDBRANCH  20  22
ENDBRANCH  10  20
TORSDOF 4
