REMARK  Name = ZINC03328027
REMARK  11 active torsions:
REMARK  status: ('A' for Active; 'I' for Inactive)
REMARK    1  A    between atoms: C_1  and  C_2
REMARK    2  A    between atoms: C_3  and  C_31
REMARK    3  A    between atoms: C_4  and  C_30
REMARK    4  A    between atoms: C_7  and  C_8
REMARK    5  A    between atoms: C_8  and  C_10
REMARK    6  A    between atoms: C_10  and  C_12
REMARK    7  A    between atoms: C_10  and  O_13
REMARK    8  A    between atoms: O_13  and  C_14
REMARK    9  A    between atoms: C_14  and  C_16
REMARK   10  A    between atoms: C_31  and  O_33
REMARK   11  A    between atoms: O_33  and  C_34
REMARK                            x       y       z     vdW  Elec       q    Type
REMARK                         _______ _______ _______ _____ _____    ______ ____
ROOT
ATOM      1  O   UNL     1      -0.529   7.159  -1.598  0.00  0.00    -0.453 OA
ENDROOT
BRANCH   1   2
ATOM      2  C   UNL     1      -0.856   7.560  -2.955  0.00  0.00    +0.245 C 
ATOM      3  C   UNL     1       0.434   7.744  -3.757  0.00  0.00    +0.061 C 
BRANCH   2   4
ATOM      4  C   UNL     1      -1.618   8.860  -2.924  0.00  0.00    +0.219 C 
ATOM      5  O   UNL     1      -1.556   9.577  -1.946  0.00  0.00    -0.287 OA
BRANCH   4  12
ATOM      6  C   UNL     1      -3.275  11.485  -3.100  0.00  0.00    +0.047 C 
ATOM      7  C   UNL     1      -3.149  10.401  -4.140  0.00  0.00    -0.008 A 
ATOM      8  C   UNL     1      -3.769  10.375  -5.407  0.00  0.00    +0.083 A 
ATOM      9  C   UNL     1      -3.379   9.201  -6.029  0.00  0.00    +0.028 A 
ATOM     10  N   UNL     1      -2.558   8.531  -5.207  0.00  0.00    -0.355 N 
ATOM     11  H   UNL     1      -2.140   7.679  -5.403  0.00  0.00    +0.166 HD
ATOM     12  C   UNL     1      -2.405   9.245  -4.036  0.00  0.00    +0.090 A 
ATOM     13  C   UNL     1      -3.802   8.754  -7.405  0.00  0.00    +0.064 C 
BRANCH   8  14
ATOM     14  C   UNL     1      -4.664  11.404  -5.964  0.00  0.00    +0.341 C 
ATOM     15  O   UNL     1      -4.203  12.325  -6.610  0.00  0.00    -0.245 OA
BRANCH  14  16
ATOM     16  O   UNL     1      -5.993  11.324  -5.757  0.00  0.00    -0.464 OA
ATOM     17  C   UNL     1      -6.814  12.373  -6.335  0.00  0.00    +0.280 C 
ENDBRANCH  14  16
ENDBRANCH   8  14
ENDBRANCH   4  12
ENDBRANCH   2   4
ENDBRANCH   1   2
BRANCH   1  18
ATOM     18  C   UNL     1      -0.433   5.842  -1.359  0.00  0.00    +0.320 C 
ATOM     19  O   UNL     1      -0.617   5.050  -2.253  0.00  0.00    -0.250 OA
BRANCH  18  20
ATOM     20  C   UNL     1      -0.098   5.350   0.026  0.00  0.00    +0.165 C 
ATOM     21  C   UNL     1      -0.053   3.846   0.021  0.00  0.00    +0.013 A 
ATOM     22  C   UNL     1      -1.239   3.132   0.029  0.00  0.00    +0.008 A 
ATOM     23  C   UNL     1      -1.219   1.751   0.017  0.00  0.00    +0.001 A 
ATOM     24  C   UNL     1      -0.013   1.076   0.008  0.00  0.00    +0.004 A 
ATOM     25  C   UNL     1       1.173   1.782   0.000  0.00  0.00    +0.046 A 
ATOM     26  C   UNL     1       1.157   3.172   0.007  0.00  0.00    +0.133 A 
ATOM     27  O   UNL     1       2.332   3.847   0.002  0.00  0.00    -0.455 OA
ATOM     28  C   UNL     1       2.376   5.137   0.413  0.00  0.00    +0.133 A 
ATOM     29  C   UNL     1       1.232   5.916   0.445  0.00  0.00    +0.013 A 
ATOM     30  C   UNL     1       1.305   7.233   0.865  0.00  0.00    +0.008 A 
ATOM     31  C   UNL     1       2.517   7.772   1.255  0.00  0.00    +0.001 A 
ATOM     32  C   UNL     1       3.660   6.996   1.226  0.00  0.00    +0.004 A 
ATOM     33  C   UNL     1       3.593   5.682   0.807  0.00  0.00    +0.046 A 
ENDBRANCH  18  20
ENDBRANCH   1  18
TORSDOF 7
