REMARK  Name = ZINC00669203
REMARK  3 active torsions:
REMARK  status: ('A' for Active; 'I' for Inactive)
REMARK    1  A    between atoms: C_1  and  C_2
REMARK    2  A    between atoms: C_6  and  N_8
REMARK    3  A    between atoms: C_9  and  C_20
REMARK                            x       y       z     vdW  Elec       q    Type
REMARK                         _______ _______ _______ _____ _____    ______ ____
ROOT
ATOM      1  N   UNL     1       1.322   1.687   0.052  0.00  0.00    -0.244 N 
ATOM      2  C   UNL     1      -0.017   1.553  -0.522  0.00  0.00    +0.199 C 
ATOM      3  N   UNL     1      -1.033   1.627   0.535  0.00  0.00    -0.321 N 
ATOM      4  C   UNL     1      -0.899   2.596   1.524  0.00  0.00    +0.041 A 
ATOM      5  C   UNL     1      -1.998   3.125   2.179  0.00  0.00    +0.024 A 
ATOM      6  C   UNL     1      -1.814   4.066   3.174  0.00  0.00    +0.002 A 
ATOM      7  C   UNL     1      -0.538   4.481   3.523  0.00  0.00    +0.001 A 
ATOM      8  C   UNL     1       0.567   3.967   2.877  0.00  0.00    +0.015 A 
ATOM      9  C   UNL     1       0.395   3.028   1.863  0.00  0.00    +0.058 A 
ATOM     10  C   UNL     1       1.542   2.452   1.139  0.00  0.00    +0.254 C 
ATOM     11  O   UNL     1       2.677   2.667   1.519  0.00  0.00    -0.270 OA
ATOM     12  H   UNL     1      -1.783   1.012   0.543  0.00  0.00    +0.148 HD
ENDROOT
BRANCH   1  18
ATOM     13  C   UNL     1       5.077   1.653  -3.122  0.00  0.00    +0.044 C 
ATOM     14  C   UNL     1       4.230   0.968  -2.080  0.00  0.00    -0.049 A 
ATOM     15  C   UNL     1       4.512  -0.334  -1.707  0.00  0.00    +0.003 A 
ATOM     16  C   UNL     1       3.737  -0.966  -0.752  0.00  0.00    +0.002 A 
ATOM     17  C   UNL     1       2.683  -0.297  -0.162  0.00  0.00    +0.023 A 
ATOM     18  C   UNL     1       2.393   1.008  -0.539  0.00  0.00    +0.039 A 
ATOM     19  C   UNL     1       3.173   1.640  -1.499  0.00  0.00    +0.027 A 
ENDBRANCH   1  18
BRANCH   2  20
ATOM     20  C   UNL     1      -0.249   2.666  -1.512  0.00  0.00    +0.005 A 
ATOM     21  C   UNL     1       0.450   3.853  -1.394  0.00  0.00    +0.008 A 
ATOM     22  C   UNL     1       0.237   4.873  -2.302  0.00  0.00    +0.000 A 
ATOM     23  C   UNL     1      -0.674   4.707  -3.328  0.00  0.00    +0.001 A 
ATOM     24  C   UNL     1      -1.374   3.521  -3.446  0.00  0.00    +0.015 A 
ATOM     25  C   UNL     1      -1.158   2.498  -2.541  0.00  0.00    +0.024 A 
ATOM     26 BR   UNL     1      -2.109   0.872  -2.706  0.00  0.00    -0.050 Br
ENDBRANCH   2  20
TORSDOF 2
