REMARK  Name = ZINC63294520
REMARK  10 active torsions:
REMARK  status: ('A' for Active; 'I' for Inactive)
REMARK    1  A    between atoms: C_1  and  O_2
REMARK    2  A    between atoms: O_2  and  C_3
REMARK    3  A    between atoms: C_6  and  C_9
REMARK    4  A    between atoms: C_13  and  C_35
REMARK    5  A    between atoms: N_15  and  C_22
REMARK    6  A    between atoms: C_22  and  C_23
REMARK    7  A    between atoms: C_23  and  C_24
REMARK    8  A    between atoms: C_27  and  O_33
REMARK    9  A    between atoms: O_33  and  C_34
REMARK   10  A    between atoms: C_38  and  O_41
REMARK                            x       y       z     vdW  Elec       q    Type
REMARK                         _______ _______ _______ _____ _____    ______ ____
ROOT
ATOM      1  C   UNL     1       2.387  -2.530   4.235  0.00  0.00    +0.136 C 
ATOM      2  C   UNL     1       1.427  -3.066   5.323  0.00  0.00    +0.077 C 
ATOM      3  C   UNL     1       1.632  -2.263   6.621  0.00  0.00    +0.114 C 
ATOM      4  N   UNL     1       2.797  -2.857   7.284  0.00  0.00    -0.292 N 
ATOM      5  C   UNL     1       3.083  -4.067   6.780  0.00  0.00    +0.243 C 
ATOM      6  O   UNL     1       3.982  -4.782   7.170  0.00  0.00    -0.273 OA
ATOM      7  C   UNL     1       2.121  -4.425   5.648  0.00  0.00    +0.218 C 
ATOM      8  N   UNL     1       2.890  -4.718   4.430  0.00  0.00    -0.203 NA
ATOM      9  N   UNL     1       3.032  -3.736   3.699  0.00  0.00    -0.305 N 
ATOM     10  H   UNL     1       3.515  -3.756   2.858  0.00  0.00    +0.183 HD
ENDROOT
BRANCH   1  14
ATOM     11  C   UNL     1       0.199  -0.512   1.169  0.00  0.00    +0.120 A 
ATOM     12  C   UNL     1       0.872   0.218   2.138  0.00  0.00    +0.046 A 
ATOM     13  C   UNL     1       1.578  -0.436   3.128  0.00  0.00    +0.009 A 
ATOM     14  C   UNL     1       1.615  -1.818   3.154  0.00  0.00    -0.023 A 
ATOM     15  C   UNL     1       0.947  -2.548   2.189  0.00  0.00    +0.009 A 
ATOM     16  C   UNL     1       0.234  -1.898   1.200  0.00  0.00    +0.046 A 
BRANCH  11  18
ATOM     17  C   UNL     1      -0.488   1.559   0.224  0.00  0.00    +0.277 C 
ATOM     18  O   UNL     1      -0.496   0.130   0.193  0.00  0.00    -0.495 OA
ENDBRANCH  11  18
ENDBRANCH   1  14
BRANCH   3  19
ATOM     19  C   UNL     1       1.898  -0.815   6.300  0.00  0.00    -0.026 A 
ATOM     20  C   UNL     1       0.845   0.075   6.206  0.00  0.00    +0.009 A 
ATOM     21  C   UNL     1       1.086   1.403   5.911  0.00  0.00    +0.046 A 
ATOM     22  C   UNL     1       2.386   1.843   5.710  0.00  0.00    +0.117 A 
ATOM     23  C   UNL     1       3.441   0.948   5.806  0.00  0.00    +0.046 A 
ATOM     24  C   UNL     1       3.195  -0.378   6.106  0.00  0.00    +0.009 A 
BRANCH  22  25
ATOM     25  O   UNL     1       2.626   3.149   5.420  0.00  0.00    -0.507 OA
ATOM     26  H   UNL     1       2.768   3.705   6.198  0.00  0.00    +0.292 HD
ENDBRANCH  22  25
ENDBRANCH   3  19
BRANCH   4  27
ATOM     27  C   UNL     1       3.553  -2.211   8.360  0.00  0.00    +0.113 C 
BRANCH  27  28
ATOM     28  C   UNL     1       2.949  -2.598   9.711  0.00  0.00    +0.052 C 
BRANCH  28  29
ATOM     29  C   UNL     1       3.726  -1.934  10.818  0.00  0.00    -0.040 C 
ATOM     30  C   UNL     1       3.429  -0.766  11.432  0.00  0.00    +0.002 A 
ATOM     31  C   UNL     1       2.338   0.198  11.262  0.00  0.00    +0.055 A 
ATOM     32  C   UNL     1       2.300   1.307  12.040  0.00  0.00    +0.121 A 
ATOM     33  C   UNL     1       3.277   1.573  13.015  0.00  0.00    +0.047 A 
ATOM     34  C   UNL     1       4.319   0.746  13.245  0.00  0.00    +0.029 A 
ATOM     35  C   UNL     1       4.458  -0.485  12.460  0.00  0.00    +0.043 A 
ATOM     36  N   UNL     1       5.354  -1.440  12.480  0.00  0.00    -0.380 N 
ATOM     37  C   UNL     1       4.993  -2.441  11.470  0.00  0.00    +0.144 C 
ATOM     38  H   UNL     1       6.126  -1.480  13.066  0.00  0.00    +0.160 HD
BRANCH  32  39
ATOM     39  O   UNL     1       1.283   2.192  11.871  0.00  0.00    -0.495 OA
ATOM     40  C   UNL     1       1.282   3.348  12.713  0.00  0.00    +0.277 C 
ENDBRANCH  32  39
ENDBRANCH  28  29
ENDBRANCH  27  28
ENDBRANCH   4  27
TORSDOF 8
