REMARK  Name = ZINC20831915
REMARK  11 active torsions:
REMARK  status: ('A' for Active; 'I' for Inactive)
REMARK    1  A    between atoms: C_1  and  C_2
REMARK    2  A    between atoms: C_2  and  C_33
REMARK    3  A    between atoms: C_4  and  N_10
REMARK    4  A    between atoms: C_6  and  C_8
REMARK    5  A    between atoms: C_6  and  C_9
REMARK    6  A    between atoms: C_11  and  C_13
REMARK    7  A    between atoms: C_13  and  S_14
REMARK    8  A    between atoms: S_14  and  C_15
REMARK    9  A    between atoms: N_21  and  N_22
REMARK   10  A    between atoms: C_23  and  C_24
REMARK   11  A    between atoms: C_27  and  N_30
REMARK                            x       y       z     vdW  Elec       q    Type
REMARK                         _______ _______ _______ _____ _____    ______ ____
ROOT
ATOM      1  C   UNL     1       6.365  -0.743  -6.352  0.00  0.00    +0.186 A 
ATOM      2  N   UNL     1       7.480  -0.436  -7.049  0.00  0.00    -0.252 N 
ATOM      3  H   UNL     1       8.155   0.218  -6.807  0.00  0.00    +0.191 HD
ATOM      4  N   UNL     1       7.472  -1.251  -8.192  0.00  0.00    -0.134 NA
ATOM      5  C   UNL     1       6.387  -1.986  -8.130  0.00  0.00    +0.255 A 
ATOM      6  N   UNL     1       5.719  -1.681  -7.012  0.00  0.00    -0.187 NA
ATOM      7  N   UNL     1       5.996  -2.934  -9.075  0.00  0.00    -0.204 N 
ATOM      8  H   UNL     1       5.174  -3.434  -8.949  0.00  0.00    +0.177 HD
ENDROOT
BRANCH   7   9
ATOM      9  N   UNL     1       6.790  -3.166 -10.206  0.00  0.00    -0.188 NA
ATOM     10  C   UNL     1       6.426  -4.049 -11.085  0.00  0.00    +0.138 C 
BRANCH  10  11
ATOM     11  C   UNL     1       7.261  -4.292 -12.275  0.00  0.00    -0.005 A 
ATOM     12  C   UNL     1       8.449  -3.578 -12.457  0.00  0.00    +0.012 A 
ATOM     13  C   UNL     1       9.225  -3.811 -13.573  0.00  0.00    +0.033 A 
ATOM     14  C   UNL     1       8.831  -4.749 -14.511  0.00  0.00    +0.126 A 
ATOM     15  C   UNL     1       7.656  -5.459 -14.337  0.00  0.00    +0.033 A 
ATOM     16  C   UNL     1       6.873  -5.242 -13.223  0.00  0.00    +0.012 A 
BRANCH  14  17
ATOM     17  N   UNL     1       9.670  -4.993 -15.707  0.00  0.00    +0.056 N 
ATOM     18  O   UNL     1      10.697  -4.374 -15.861  0.00  0.00    -0.126 OA
ATOM     19  O   UNL     1       9.329  -5.812 -16.528  0.00  0.00    -0.126 OA
ENDBRANCH  14  17
ENDBRANCH  10  11
ENDBRANCH   7   9
BRANCH   1  20
ATOM     20  S   UNL     1       5.867  -0.020  -4.824  0.00  0.00    -0.077 S 
BRANCH  20  21
ATOM     21  C   UNL     1       4.312  -0.866  -4.426  0.00  0.00    +0.173 C 
BRANCH  21  23
ATOM     22  N   UNL     1       2.615  -0.819  -2.626  0.00  0.00    -0.312 N 
ATOM     23  C   UNL     1       3.770  -0.334  -3.123  0.00  0.00    +0.224 C 
ATOM     24  O   UNL     1       4.374   0.530  -2.523  0.00  0.00    -0.275 OA
ATOM     25  H   UNL     1       2.133  -1.510  -3.106  0.00  0.00    +0.149 HD
BRANCH  22  29
ATOM     26  C   UNL     1      -0.019   1.528   0.010  0.00  0.00    -0.010 C 
ATOM     27  C   UNL     1       0.002  -0.004   0.002  0.00  0.00    -0.072 C 
ATOM     28  C   UNL     1       0.573  -0.505  -1.321  0.00  0.00    +0.009 C 
ATOM     29  C   UNL     1       2.088  -0.301  -1.357  0.00  0.00    +0.070 C 
ATOM     30  C   UNL     1       2.703  -1.086  -0.198  0.00  0.00    +0.009 C 
ATOM     31  C   UNL     1       2.147  -0.590   1.133  0.00  0.00    -0.072 C 
ATOM     32  N   UNL     1       0.697  -0.529   1.164  0.00  0.00    +0.386 N 
ATOM     33  C   UNL     1       2.769   0.766   1.481  0.00  0.00    -0.010 C 
ATOM     34  C   UNL     1       2.600  -1.589   2.223  0.00  0.00    -0.010 C 
ATOM     35  C   UNL     1      -1.468  -0.478   0.079  0.00  0.00    -0.010 C 
ATOM     36  H   UNL     1       0.416   0.021   1.982  0.00  0.00    -0.084 HD
ATOM     37  H   UNL     1       0.341  -1.472   1.351  0.00  0.00    -0.084 HD
ENDBRANCH  22  29
ENDBRANCH  21  23
ENDBRANCH  20  21
ENDBRANCH   1  20
TORSDOF 7
