REMARK  Name = ZINC13137592
REMARK  9 active torsions:
REMARK  status: ('A' for Active; 'I' for Inactive)
REMARK    1  A    between atoms: C_1  and  C_2
REMARK    2  A    between atoms: C_5  and  C_34
REMARK    3  A    between atoms: C_6  and  N_8
REMARK    4  A    between atoms: C_17  and  S_18
REMARK    5  A    between atoms: S_18  and  C_19
REMARK    6  A    between atoms: C_19  and  C_21
REMARK    7  A    between atoms: C_19  and  C_24
REMARK    8  A    between atoms: C_21  and  C_22
REMARK    9  A    between atoms: C_21  and  C_23
REMARK                            x       y       z     vdW  Elec       q    Type
REMARK                         _______ _______ _______ _____ _____    ______ ____
ROOT
ATOM      1  N   UNL     1       1.295  -4.456  -0.215  0.00  0.00    -0.255 N 
ATOM      2  C   UNL     1       1.713  -3.179  -0.376  0.00  0.00    +0.268 A 
ATOM      3  O   UNL     1       2.869  -2.905  -0.646  0.00  0.00    -0.267 OA
ATOM      4  C   UNL     1       0.712  -2.167  -0.209  0.00  0.00    +0.076 A 
ATOM      5  C   UNL     1       0.900  -0.731  -0.328  0.00  0.00    -0.023 A 
ATOM      6  C   UNL     1      -0.191   0.043  -0.128  0.00  0.00    -0.004 A 
ATOM      7  S   UNL     1      -1.509  -1.092   0.224  0.00  0.00    -0.073 S 
ATOM      8  C   UNL     1      -0.598  -2.599   0.104  0.00  0.00    +0.117 A 
ATOM      9  N   UNL     1      -0.945  -3.872   0.248  0.00  0.00    -0.215 NA
ATOM     10  C   UNL     1       0.006  -4.783   0.087  0.00  0.00    +0.178 A 
ATOM     11  C   UNL     1      -0.267   1.537  -0.192  0.00  0.00    +0.043 C 
ATOM     12  C   UNL     1       1.161   2.099  -0.157  0.00  0.00    +0.005 C 
ATOM     13  C   UNL     1       2.018   1.326  -1.163  0.00  0.00    +0.005 C 
ATOM     14  C   UNL     1       2.249  -0.099  -0.661  0.00  0.00    +0.037 C 
ENDROOT
BRANCH   1  20
ATOM     15  C   UNL     1       3.579  -7.710  -3.111  0.00  0.00    +0.044 C 
ATOM     16  C   UNL     1       3.356  -7.084  -1.758  0.00  0.00    -0.048 A 
ATOM     17  C   UNL     1       4.074  -7.530  -0.664  0.00  0.00    +0.004 A 
ATOM     18  C   UNL     1       3.872  -6.959   0.579  0.00  0.00    +0.005 A 
ATOM     19  C   UNL     1       2.951  -5.940   0.731  0.00  0.00    -0.026 A 
ATOM     20  C   UNL     1       2.229  -5.490  -0.366  0.00  0.00    +0.055 A 
ATOM     21  C   UNL     1       2.430  -6.070  -1.612  0.00  0.00    +0.030 A 
ATOM     22  C   UNL     1       2.731  -5.318   2.086  0.00  0.00    +0.046 C 
ENDBRANCH   1  20
BRANCH  10  23
ATOM     23  S   UNL     1      -0.414  -6.484   0.271  0.00  0.00    -0.074 S 
BRANCH  23  24
ATOM     24  C   UNL     1      -2.154  -6.329   0.747  0.00  0.00    +0.143 C 
BRANCH  24  25
ATOM     25  C   UNL     1      -2.951  -5.814  -0.423  0.00  0.00    +0.234 C 
ATOM     26  O   UNL     1      -2.554  -5.995  -1.554  0.00  0.00    -0.274 OA
ATOM     27  N   UNL     1      -4.106  -5.152  -0.212  0.00  0.00    -0.239 N 
ATOM     28  C   UNL     1      -4.819  -4.691  -1.259  0.00  0.00    +0.303 C 
ATOM     29  O   UNL     1      -4.421  -4.873  -2.393  0.00  0.00    -0.253 OA
ATOM     30  N   UNL     1      -5.974  -4.029  -1.049  0.00  0.00    -0.313 N 
ATOM     31  H   UNL     1      -4.424  -5.007   0.692  0.00  0.00    +0.159 HD
ATOM     32  H   UNL     1      -6.292  -3.884  -0.144  0.00  0.00    +0.146 HD
ATOM     33  H   UNL     1      -6.487  -3.697  -1.802  0.00  0.00    +0.146 HD
ENDBRANCH  24  25
BRANCH  24  34
ATOM     34  C   UNL     1      -2.692  -7.698   1.168  0.00  0.00    +0.005 C 
ATOM     35  C   UNL     1      -1.879  -8.223   2.354  0.00  0.00    +0.009 C 
ATOM     36  C   UNL     1      -4.160  -7.566   1.575  0.00  0.00    +0.009 C 
ENDBRANCH  24  34
ENDBRANCH  23  24
ENDBRANCH  10  23
TORSDOF 5
