REMARK  Name = ZINC16810059
REMARK  7 active torsions:
REMARK  status: ('A' for Active; 'I' for Inactive)
REMARK    1  A    between atoms: C_1  and  C_2
REMARK    2  A    between atoms: N_13  and  C_16
REMARK    3  A    between atoms: C_16  and  C_18
REMARK    4  A    between atoms: C_16  and  C_19
REMARK    5  A    between atoms: N_21  and  N_22
REMARK    6  A    between atoms: C_23  and  C_24
REMARK    7  A    between atoms: C_29  and  O_30
REMARK                            x       y       z     vdW  Elec       q    Type
REMARK                         _______ _______ _______ _____ _____    ______ ____
ROOT
ATOM      1  C   UNL     1       1.699   5.336   1.263  0.00  0.00    +0.176 C 
ATOM      2  C   UNL     1       1.027   5.968   0.042  0.00  0.00    +0.041 C 
ENDROOT
BRANCH   1  14
ATOM      3  C   UNL     1       6.673  10.093   7.393  0.00  0.00    +0.008 C 
ATOM      4  C   UNL     1       6.164   9.073   6.373  0.00  0.00    -0.009 C 
ATOM      5  C   UNL     1       4.678   9.319   6.096  0.00  0.00    +0.008 C 
ATOM      6  C   UNL     1       4.104   8.164   5.276  0.00  0.00    +0.037 C 
ATOM      7  C   UNL     1       4.976   7.955   4.042  0.00  0.00    -0.023 A 
ATOM      8  C   UNL     1       6.232   8.448   3.994  0.00  0.00    -0.004 A 
ATOM      9  S   UNL     1       6.852   7.971   2.403  0.00  0.00    -0.073 S 
ATOM     10  C   UNL     1       5.419   7.111   1.806  0.00  0.00    +0.116 A 
ATOM     11  C   UNL     1       4.506   7.223   2.866  0.00  0.00    +0.076 A 
ATOM     12  C   UNL     1       3.229   6.607   2.654  0.00  0.00    +0.263 A 
ATOM     13  O   UNL     1       2.367   6.654   3.514  0.00  0.00    -0.267 OA
ATOM     14  N   UNL     1       2.999   5.973   1.489  0.00  0.00    -0.287 N 
ATOM     15  C   UNL     1       3.946   5.915   0.517  0.00  0.00    +0.204 A 
ATOM     16  N   UNL     1       5.117   6.470   0.680  0.00  0.00    -0.230 NA
ATOM     17  C   UNL     1       6.942   9.227   5.058  0.00  0.00    +0.046 C 
ENDBRANCH   1  14
BRANCH   1  18
ATOM     18  C   UNL     1       1.897   3.862   1.021  0.00  0.00    +0.255 C 
ATOM     19  O   UNL     1       2.986   3.442   0.690  0.00  0.00    -0.272 OA
ATOM     20  N   UNL     1       0.864   3.010   1.173  0.00  0.00    -0.205 N 
ATOM     21  H   UNL     1       0.013   3.334   1.506  0.00  0.00    +0.177 HD
BRANCH  20  22
ATOM     22  N   UNL     1       1.020   1.655   0.849  0.00  0.00    -0.188 NA
ATOM     23  C   UNL     1      -0.004   0.858   0.881  0.00  0.00    +0.142 C 
BRANCH  23  24
ATOM     24  C   UNL     1      -1.363   1.410   1.022  0.00  0.00    +0.036 A 
ATOM     25  C   UNL     1      -1.643   2.708   0.588  0.00  0.00    +0.013 A 
ATOM     26  C   UNL     1      -2.918   3.217   0.718  0.00  0.00    +0.001 A 
ATOM     27  C   UNL     1      -3.921   2.450   1.287  0.00  0.00    +0.004 A 
ATOM     28  C   UNL     1      -3.655   1.166   1.725  0.00  0.00    +0.046 A 
ATOM     29  C   UNL     1      -2.381   0.638   1.597  0.00  0.00    +0.125 A 
BRANCH  29  30
ATOM     30  O   UNL     1      -2.120  -0.624   2.027  0.00  0.00    -0.506 OA
ATOM     31  H   UNL     1      -1.907  -0.682   2.969  0.00  0.00    +0.292 HD
ENDBRANCH  29  30
ENDBRANCH  23  24
ENDBRANCH  20  22
ENDBRANCH   1  18
TORSDOF 5
