REMARK  Name = ZINC07544039
REMARK  7 active torsions:
REMARK  status: ('A' for Active; 'I' for Inactive)
REMARK    1  A    between atoms: C_4  and  C_7
REMARK    2  A    between atoms: C_10  and  C_12
REMARK    3  A    between atoms: C_12  and  O_13
REMARK    4  A    between atoms: O_13  and  C_14
REMARK    5  A    between atoms: C_14  and  C_16
REMARK    6  A    between atoms: C_16  and  S_17
REMARK    7  A    between atoms: S_17  and  C_18
REMARK                            x       y       z     vdW  Elec       q    Type
REMARK                         _______ _______ _______ _____ _____    ______ ____
ROOT
ATOM      1  C   UNL     1      -2.738   3.183   1.578  0.00  0.00    +0.318 C 
ATOM      2  O   UNL     1      -3.348   3.607   0.625  0.00  0.00    -0.250 OA
ENDROOT
BRANCH   1   3
ATOM      3  O   UNL     1      -1.645   2.426   1.392  0.00  0.00    -0.454 OA
BRANCH   3   4
ATOM      4  C   UNL     1      -1.254   2.157   0.020  0.00  0.00    +0.327 C 
BRANCH   4   8
ATOM      5  C   UNL     1       2.068   0.682  -0.014  0.00  0.00    +0.155 A 
ATOM      6  C   UNL     1       1.277  -0.421  -0.012  0.00  0.00    +0.161 A 
ATOM      7  N   UNL     1       0.002  -0.004   0.002  0.00  0.00    -0.218 NA
ATOM      8  C   UNL     1      -0.016   1.299   0.009  0.00  0.00    +0.234 A 
ATOM      9  O   UNL     1       1.245   1.754  -0.000  0.00  0.00    -0.436 OA
BRANCH   5  13
ATOM     10  C   UNL     1       6.315   0.752  -0.052  0.00  0.00    +0.000 A 
ATOM     11  C   UNL     1       5.606   1.940  -0.040  0.00  0.00    +0.001 A 
ATOM     12  C   UNL     1       4.227   1.925  -0.028  0.00  0.00    +0.011 A 
ATOM     13  C   UNL     1       3.546   0.707  -0.028  0.00  0.00    +0.019 A 
ATOM     14  C   UNL     1       4.267  -0.489  -0.035  0.00  0.00    +0.011 A 
ATOM     15  C   UNL     1       5.646  -0.459  -0.052  0.00  0.00    +0.001 A 
ENDBRANCH   5  13
ENDBRANCH   4   8
ENDBRANCH   3   4
ENDBRANCH   1   3
BRANCH   1  16
ATOM     16  C   UNL     1      -3.205   3.503   2.974  0.00  0.00    +0.194 C 
BRANCH  16  17
ATOM     17  S   UNL     1      -4.694   4.535   2.892  0.00  0.00    -0.114 S 
BRANCH  17  18
ATOM     18  C   UNL     1      -5.109   4.820   4.581  0.00  0.00    +0.009 A 
ATOM     19  C   UNL     1      -4.317   4.263   5.593  0.00  0.00    +0.015 A 
ATOM     20  C   UNL     1      -4.610   4.471   6.903  0.00  0.00    +0.009 A 
ATOM     21  C   UNL     1      -5.729   5.246   7.257  0.00  0.00    -0.018 A 
ATOM     22  C   UNL     1      -6.060   5.471   8.604  0.00  0.00    +0.008 A 
ATOM     23  C   UNL     1      -7.151   6.225   8.913  0.00  0.00    +0.001 A 
ATOM     24  C   UNL     1      -7.948   6.778   7.913  0.00  0.00    +0.001 A 
ATOM     25  C   UNL     1      -7.659   6.581   6.598  0.00  0.00    +0.008 A 
ATOM     26  C   UNL     1      -6.540   5.809   6.240  0.00  0.00    -0.017 A 
ATOM     27  C   UNL     1      -6.213   5.584   4.893  0.00  0.00    +0.023 A 
ENDBRANCH  17  18
ENDBRANCH  16  17
ENDBRANCH   1  16
TORSDOF 7
