REMARK  Name = ZINC09295107
REMARK  8 active torsions:
REMARK  status: ('A' for Active; 'I' for Inactive)
REMARK    1  A    between atoms: C_1  and  C_2
REMARK    2  A    between atoms: C_2  and  C_3
REMARK    3  A    between atoms: C_3  and  C_4
REMARK    4  A    between atoms: C_10  and  C_25
REMARK    5  A    between atoms: C_12  and  C_15
REMARK    6  A    between atoms: N_17  and  C_18
REMARK    7  A    between atoms: C_28  and  C_31
REMARK    8  A    between atoms: C_31  and  C_32
REMARK                            x       y       z     vdW  Elec       q    Type
REMARK                         _______ _______ _______ _____ _____    ______ ____
ROOT
ATOM      1  C   UNL     1       6.327  -3.853  -1.858  0.00  0.00    +0.151 A 
ATOM      2  N   UNL     1       6.132  -3.962  -3.144  0.00  0.00    -0.132 NA
ATOM      3  N   UNL     1       4.898  -4.245  -3.383  0.00  0.00    -0.121 NA
ATOM      4  C   UNL     1       4.246  -4.332  -2.257  0.00  0.00    +0.209 A 
ATOM      5  N   UNL     1       5.128  -4.079  -1.245  0.00  0.00    -0.225 N 
ATOM      6  N   UNL     1       4.859  -4.053   0.086  0.00  0.00    -0.272 N 
ATOM      7  C   UNL     1       3.659  -4.802   0.459  0.00  0.00    +0.140 C 
ATOM      8  C   UNL     1       2.428  -4.236  -0.260  0.00  0.00    +0.166 C 
ATOM      9  S   UNL     1       2.539  -4.710  -2.012  0.00  0.00    -0.069 S 
ATOM     10  H   UNL     1       5.658  -4.359   0.622  0.00  0.00    +0.167 HD
ENDROOT
BRANCH   7  11
ATOM     11  C   UNL     1       3.454  -4.705   1.949  0.00  0.00    -0.024 A 
ATOM     12  C   UNL     1       3.673  -3.505   2.600  0.00  0.00    +0.006 A 
ATOM     13  C   UNL     1       3.481  -3.414   3.966  0.00  0.00    +0.004 A 
ATOM     14  C   UNL     1       3.079  -4.526   4.683  0.00  0.00    -0.048 A 
ATOM     15  C   UNL     1       2.865  -5.727   4.032  0.00  0.00    +0.004 A 
ATOM     16  C   UNL     1       3.053  -5.817   2.666  0.00  0.00    +0.006 A 
BRANCH  14  17
ATOM     17  C   UNL     1       2.874  -4.429   6.172  0.00  0.00    +0.032 C 
ATOM     18  C   UNL     1       4.185  -4.757   6.890  0.00  0.00    +0.009 C 
ENDBRANCH  14  17
ENDBRANCH   7  11
BRANCH   8  19
ATOM     19  C   UNL     1       2.412  -2.734  -0.138  0.00  0.00    +0.233 C 
ATOM     20  O   UNL     1       3.454  -2.114  -0.144  0.00  0.00    -0.274 OA
ATOM     21  N   UNL     1       1.239  -2.080  -0.021  0.00  0.00    -0.283 N 
ATOM     22  H   UNL     1       0.412  -2.579   0.064  0.00  0.00    +0.155 HD
BRANCH  21  23
ATOM     23  C   UNL     1       1.215  -0.680  -0.024  0.00  0.00    +0.052 A 
ATOM     24  C   UNL     1       2.237   0.032  -0.638  0.00  0.00    +0.025 A 
ATOM     25  C   UNL     1       2.210   1.413  -0.639  0.00  0.00    +0.002 A 
ATOM     26  C   UNL     1       1.167   2.087  -0.031  0.00  0.00    +0.002 A 
ATOM     27  C   UNL     1       0.147   1.381   0.581  0.00  0.00    +0.022 A 
ATOM     28  C   UNL     1       0.168  -0.001   0.586  0.00  0.00    +0.062 A 
ATOM     29 CL   UNL     1      -1.112  -0.886   1.355  0.00  0.00    -0.082 Cl
ENDBRANCH  21  23
ENDBRANCH   8  19
BRANCH   1  30
ATOM     30  C   UNL     1       7.633  -3.535  -1.176  0.00  0.00    +0.078 C 
BRANCH  30  32
ATOM     31  C   UNL     1       9.704  -4.513  -0.179  0.00  0.00    +0.004 C 
ATOM     32  C   UNL     1       8.378  -4.836  -0.871  0.00  0.00    +0.004 C 
ENDBRANCH  30  32
ENDBRANCH   1  30
TORSDOF 6
