REMARK  Name = ZINC05646191
REMARK  6 active torsions:
REMARK  status: ('A' for Active; 'I' for Inactive)
REMARK    1  A    between atoms: C_1  and  C_2
REMARK    2  A    between atoms: C_2  and  C_3
REMARK    3  A    between atoms: C_6  and  C_9
REMARK    4  A    between atoms: C_12  and  C_23
REMARK    5  A    between atoms: C_18  and  N_22
REMARK    6  A    between atoms: C_19  and  C_20
REMARK                            x       y       z     vdW  Elec       q    Type
REMARK                         _______ _______ _______ _____ _____    ______ ____
ROOT
ATOM      1  C   UNL     1      -5.142  -1.811  -0.117  0.00  0.00    +0.102 C 
ATOM      2  C   UNL     1      -6.223  -0.896  -0.631  0.00  0.00    +0.054 A 
ATOM      3  C   UNL     1      -6.781   0.239  -0.032  0.00  0.00    +0.101 A 
ATOM      4  N   UNL     1      -7.697   0.722  -0.852  0.00  0.00    -0.171 NA
ATOM      5  N   UNL     1      -7.744  -0.095  -1.992  0.00  0.00    -0.246 N 
ATOM      6  H   UNL     1      -8.327   0.027  -2.757  0.00  0.00    +0.192 HD
ATOM      7  C   UNL     1      -6.835  -1.080  -1.837  0.00  0.00    +0.223 A 
ATOM      8  O   UNL     1      -6.520  -2.105  -2.668  0.00  0.00    -0.423 OA
ATOM      9  C   UNL     1      -5.774  -3.110  -2.166  0.00  0.00    +0.200 C 
ATOM     10  C   UNL     1      -5.112  -3.042  -0.989  0.00  0.00    +0.098 C 
ENDROOT
BRANCH   3  11
ATOM     11  C   UNL     1      -6.409   0.800   1.288  0.00  0.00    +0.010 A 
ATOM     12  C   UNL     1      -6.310  -0.024   2.395  0.00  0.00    +0.011 A 
ATOM     13  C   UNL     1      -5.962   0.494   3.637  0.00  0.00    +0.001 A 
ATOM     14  C   UNL     1      -5.709   1.823   3.800  0.00  0.00    +0.008 A 
ATOM     15  C   UNL     1      -5.798   2.696   2.702  0.00  0.00    -0.017 A 
ATOM     16  C   UNL     1      -6.146   2.183   1.429  0.00  0.00    -0.009 A 
ATOM     17  C   UNL     1      -6.230   3.055   0.334  0.00  0.00    +0.009 A 
ATOM     18  C   UNL     1      -5.971   4.381   0.506  0.00  0.00    +0.001 A 
ATOM     19  C   UNL     1      -5.623   4.887   1.756  0.00  0.00    +0.001 A 
ATOM     20  C   UNL     1      -5.543   4.072   2.844  0.00  0.00    +0.008 A 
ENDBRANCH   3  11
BRANCH   1  24
ATOM     21  C   UNL     1      -1.364   0.174  -0.298  0.00  0.00    -0.048 A 
ATOM     22  C   UNL     1      -1.825  -0.325   0.905  0.00  0.00    +0.004 A 
ATOM     23  C   UNL     1      -3.048  -0.968   0.964  0.00  0.00    +0.005 A 
ATOM     24  C   UNL     1      -3.810  -1.110  -0.181  0.00  0.00    -0.035 A 
ATOM     25  C   UNL     1      -3.349  -0.609  -1.384  0.00  0.00    +0.005 A 
ATOM     26  C   UNL     1      -2.128   0.037  -1.442  0.00  0.00    +0.004 A 
BRANCH  21  28
ATOM     27  C   UNL     1      -0.228   2.370  -0.103  0.00  0.00    +0.009 C 
ATOM     28  C   UNL     1      -0.031   0.875  -0.362  0.00  0.00    +0.032 C 
ENDBRANCH  21  28
ENDBRANCH   1  24
BRANCH   9  29
ATOM     29  N   UNL     1      -5.683  -4.272  -2.892  0.00  0.00    -0.328 N 
ATOM     30  H   UNL     1      -6.147  -4.352  -3.740  0.00  0.00    +0.145 HD
ATOM     31  H   UNL     1      -5.154  -5.013  -2.557  0.00  0.00    +0.145 HD
ENDBRANCH   9  29
BRANCH  10  32
ATOM     32  C   UNL     1      -4.355  -4.177  -0.554  0.00  0.00    +0.101 C 
ATOM     33  N   UNL     1      -3.754  -5.077  -0.210  0.00  0.00    -0.191 NA
ENDBRANCH  10  32
TORSDOF 5
