REMARK  Name = ZINC09674064
REMARK  9 active torsions:
REMARK  status: ('A' for Active; 'I' for Inactive)
REMARK    1  A    between atoms: C_1  and  C_2
REMARK    2  A    between atoms: C_2  and  C_3
REMARK    3  A    between atoms: C_9  and  C_10
REMARK    4  A    between atoms: C_9  and  N_75
REMARK    5  A    between atoms: C_10  and  C_11
REMARK    6  A    between atoms: C_11  and  N_12
REMARK    7  A    between atoms: C_13  and  C_15
REMARK    8  A    between atoms: N_17  and  C_30
REMARK    9  A    between atoms: N_28  and  C_29
REMARK                            x       y       z     vdW  Elec       q    Type
REMARK                         _______ _______ _______ _____ _____    ______ ____
ROOT
ATOM      1  C   UNL     1      -1.670  -2.359  -1.663  0.00  0.00    +0.063 A 
ATOM      2  C   UNL     1      -1.407  -3.700  -1.718  0.00  0.00    +0.103 A 
ATOM      3  N   UNL     1      -2.378  -4.585  -2.046  0.00  0.00    -0.310 N 
ATOM      4  C   UNL     1      -3.634  -4.202  -2.332  0.00  0.00    +0.276 A 
ATOM      5  O   UNL     1      -4.468  -5.043  -2.622  0.00  0.00    -0.265 OA
ATOM      6  C   UNL     1      -3.999  -2.837  -2.300  0.00  0.00    +0.116 A 
ATOM      7  C   UNL     1      -3.031  -1.897  -1.961  0.00  0.00    +0.026 A 
ATOM      8  C   UNL     1      -3.682  -0.585  -1.999  0.00  0.00    +0.009 A 
ATOM      9  C   UNL     1      -3.241   0.718  -1.763  0.00  0.00    +0.010 A 
ATOM     10  C   UNL     1      -4.113   1.764  -1.882  0.00  0.00    +0.001 A 
ATOM     11  C   UNL     1      -5.436   1.540  -2.237  0.00  0.00    +0.002 A 
ATOM     12  C   UNL     1      -5.892   0.263  -2.474  0.00  0.00    +0.026 A 
ATOM     13  C   UNL     1      -5.021  -0.819  -2.358  0.00  0.00    +0.050 A 
ATOM     14  N   UNL     1      -5.188  -2.174  -2.542  0.00  0.00    -0.339 N 
ATOM     15  C   UNL     1      -6.446  -2.821  -2.923  0.00  0.00    +0.149 C 
ENDROOT
BRANCH   3  16
ATOM     16  C   UNL     1      -2.047  -6.011  -2.092  0.00  0.00    +0.090 C 
ATOM     17  C   UNL     1      -1.559  -6.466  -0.715  0.00  0.00    +0.025 C 
ATOM     18  C   UNL     1      -1.214  -7.955  -0.763  0.00  0.00    +0.002 C 
ATOM     19  C   UNL     1      -0.111  -8.190  -1.798  0.00  0.00    +0.000 C 
ATOM     20  C   UNL     1      -0.599  -7.735  -3.175  0.00  0.00    +0.002 C 
ATOM     21  C   UNL     1      -0.944  -6.246  -3.127  0.00  0.00    +0.025 C 
ENDBRANCH   3  16
BRANCH   1  23
ATOM     22  N   UNL     1       0.659  -1.822  -1.159  0.00  0.00    -0.311 N 
ATOM     23  C   UNL     1      -0.613  -1.400  -1.305  0.00  0.00    +0.246 C 
ATOM     24  O   UNL     1      -0.886  -0.226  -1.141  0.00  0.00    -0.270 OA
ATOM     25  H   UNL     1       0.865  -2.768  -1.213  0.00  0.00    +0.149 HD
BRANCH  22  26
ATOM     26  C   UNL     1       1.729  -0.852  -0.912  0.00  0.00    +0.102 C 
BRANCH  26  27
ATOM     27  C   UNL     1       3.065  -1.588  -0.786  0.00  0.00    +0.000 C 
BRANCH  27  28
ATOM     28  C   UNL     1       4.182  -0.575  -0.528  0.00  0.00    -0.077 C 
BRANCH  28  34
ATOM     29  C   UNL     1       6.582  -0.332  -0.320  0.00  0.00    -0.069 C 
ATOM     30  C   UNL     1       7.907  -1.098  -0.342  0.00  0.00    -0.015 C 
ATOM     31  C   UNL     1       7.947  -2.072   0.839  0.00  0.00    -0.003 C 
ATOM     32  C   UNL     1       6.746  -3.018   0.751  0.00  0.00    -0.019 C 
ATOM     33  C   UNL     1       5.455  -2.196   0.741  0.00  0.00    -0.078 C 
ATOM     34  N   UNL     1       5.468  -1.297  -0.432  0.00  0.00    +0.382 N 
ATOM     35  H   UNL     1       5.598  -1.859  -1.281  0.00  0.00    -0.081 HD
BRANCH  29  37
ATOM     36  C   UNL     1       6.539  -0.173  -2.813  0.00  0.00    +0.002 C 
ATOM     37  C   UNL     1       6.529   0.628  -1.510  0.00  0.00    -0.019 C 
ENDBRANCH  29  37
ENDBRANCH  28  34
ENDBRANCH  27  28
ENDBRANCH  26  27
ENDBRANCH  22  26
ENDBRANCH   1  23
TORSDOF 7
