REMARK  Name = ZINC63098845
REMARK  6 active torsions:
REMARK  status: ('A' for Active; 'I' for Inactive)
REMARK    1  A    between atoms: C_1  and  C_2
REMARK    2  A    between atoms: C_2  and  C_4
REMARK    3  A    between atoms: C_2  and  N_17
REMARK    4  A    between atoms: N_6  and  C_7
REMARK    5  A    between atoms: C_10  and  N_14
REMARK    6  A    between atoms: C_20  and  C_23
REMARK                            x       y       z     vdW  Elec       q    Type
REMARK                         _______ _______ _______ _____ _____    ______ ____
ROOT
ATOM      1  N   UNL     1       1.062  -0.702   0.656  0.00  0.00    +0.387 N 
ATOM      2  C   UNL     1       1.059  -2.027   0.025  0.00  0.00    -0.077 C 
ATOM      3  C   UNL     1       2.042  -2.946   0.754  0.00  0.00    -0.011 C 
ATOM      4  C   UNL     1       3.448  -2.345   0.674  0.00  0.00    +0.014 C 
ATOM      5  C   UNL     1       3.424  -0.934   1.268  0.00  0.00    -0.011 C 
ATOM      6  C   UNL     1       2.389  -0.090   0.520  0.00  0.00    -0.077 C 
ATOM      7  H   UNL     1       0.835  -0.797   1.635  0.00  0.00    -0.081 HD
ENDROOT
BRANCH   4   8
ATOM      8  C   UNL     1       4.408  -3.205   1.456  0.00  0.00    -0.039 C 
ATOM      9  C   UNL     1       5.506  -3.836   0.982  0.00  0.00    -0.001 A 
ATOM     10  C   UNL     1       6.112  -3.909  -0.353  0.00  0.00    +0.010 A 
ATOM     11  C   UNL     1       7.239  -4.638  -0.523  0.00  0.00    +0.001 A 
ATOM     12  C   UNL     1       7.840  -5.324   0.541  0.00  0.00    +0.002 A 
ATOM     13  C   UNL     1       7.342  -5.304   1.796  0.00  0.00    +0.026 A 
ATOM     14  C   UNL     1       6.161  -4.569   2.089  0.00  0.00    +0.043 A 
ATOM     15  N   UNL     1       5.494  -4.398   3.204  0.00  0.00    -0.380 N 
ATOM     16  C   UNL     1       4.342  -3.531   2.932  0.00  0.00    +0.145 C 
ATOM     17  H   UNL     1       5.725  -4.778   4.066  0.00  0.00    +0.160 HD
ENDBRANCH   4   8
BRANCH   1  19
ATOM     18  C   UNL     1       0.108   1.553   0.617  0.00  0.00    -0.004 C 
ATOM     19  C   UNL     1       0.061   0.152   0.003  0.00  0.00    +0.016 C 
BRANCH  19  20
ATOM     20  C   UNL     1      -1.310  -0.438   0.203  0.00  0.00    +0.203 C 
ATOM     21  O   UNL     1      -1.540  -1.121   1.179  0.00  0.00    -0.277 OA
ATOM     22  N   UNL     1      -2.282  -0.208  -0.702  0.00  0.00    -0.286 N 
ATOM     23  H   UNL     1      -2.079   0.276  -1.518  0.00  0.00    +0.155 HD
BRANCH  22  24
ATOM     24  C   UNL     1      -3.583  -0.667  -0.465  0.00  0.00    +0.052 A 
ATOM     25  C   UNL     1      -3.986  -0.979   0.827  0.00  0.00    +0.027 A 
ATOM     26  C   UNL     1      -5.270  -1.431   1.058  0.00  0.00    +0.034 A 
ATOM     27  C   UNL     1      -6.155  -1.574   0.004  0.00  0.00    +0.128 A 
ATOM     28  C   UNL     1      -5.758  -1.264  -1.283  0.00  0.00    +0.054 A 
ATOM     29  C   UNL     1      -4.476  -0.806  -1.521  0.00  0.00    +0.064 A 
ATOM     30 CL   UNL     1      -3.979  -0.410  -3.136  0.00  0.00    -0.082 Cl
BRANCH  27  31
ATOM     31  N   UNL     1      -7.531  -2.059   0.256  0.00  0.00    +0.056 N 
ATOM     32  O   UNL     1      -7.880  -2.331   1.382  0.00  0.00    -0.126 OA
ATOM     33  O   UNL     1      -8.306  -2.184  -0.663  0.00  0.00    -0.126 OA
ENDBRANCH  27  31
ENDBRANCH  22  24
ENDBRANCH  19  20
ENDBRANCH   1  19
TORSDOF 5
