REMARK  Name = ZINC40383891
REMARK  15 active torsions:
REMARK  status: ('A' for Active; 'I' for Inactive)
REMARK    1  A    between atoms: C_1  and  C_2
REMARK    2  A    between atoms: C_2  and  N_3
REMARK    3  A    between atoms: N_3  and  C_4
REMARK    4  A    between atoms: N_3  and  C_6
REMARK    5  A    between atoms: C_4  and  C_5
REMARK    6  A    between atoms: C_6  and  C_7
REMARK    7  A    between atoms: C_7  and  C_8
REMARK    8  A    between atoms: C_8  and  C_9
REMARK    9  A    between atoms: C_9  and  C_11
REMARK   10  A    between atoms: C_9  and  N_12
REMARK   11  A    between atoms: C_13  and  C_15
REMARK   12  A    between atoms: C_18  and  C_20
REMARK   13  A    between atoms: C_20  and  N_21
REMARK   14  A    between atoms: C_29  and  C_31
REMARK   15  A    between atoms: C_34  and  N_37
REMARK                            x       y       z     vdW  Elec       q    Type
REMARK                         _______ _______ _______ _____ _____    ______ ____
ROOT
ATOM      1  C   UNL     1      -5.259  -2.224  -4.383  0.00  0.00    +0.189 A 
ATOM      2  C   UNL     1      -6.549  -1.817  -4.566  0.00  0.00    +0.055 A 
ATOM      3  C   UNL     1      -6.610  -1.227  -5.838  0.00  0.00    +0.047 A 
ATOM      4  C   UNL     1      -5.369  -1.299  -6.369  0.00  0.00    +0.120 A 
ATOM      5  O   UNL     1      -4.557  -1.896  -5.487  0.00  0.00    -0.454 OA
ENDROOT
BRANCH   1   7
ATOM      6  N   UNL     1      -3.425  -3.240  -3.137  0.00  0.00    -0.306 N 
ATOM      7  C   UNL     1      -4.727  -2.895  -3.192  0.00  0.00    +0.280 C 
ATOM      8  O   UNL     1      -5.461  -3.139  -2.252  0.00  0.00    -0.267 OA
ATOM      9  H   UNL     1      -2.840  -3.045  -3.886  0.00  0.00    +0.149 HD
BRANCH   6  10
ATOM     10  C   UNL     1      -2.895  -3.910  -1.948  0.00  0.00    +0.070 C 
ATOM     11  C   UNL     1      -3.139  -5.417  -2.059  0.00  0.00    +0.028 C 
BRANCH  10  12
ATOM     12  C   UNL     1      -1.392  -3.644  -1.840  0.00  0.00    +0.020 C 
BRANCH  12  13
ATOM     13  C   UNL     1      -1.155  -2.151  -1.603  0.00  0.00    -0.017 C 
BRANCH  13  14
ATOM     14  C   UNL     1       0.348  -1.884  -1.496  0.00  0.00    -0.079 C 
BRANCH  14  15
ATOM     15  N   UNL     1       0.576  -0.451  -1.269  0.00  0.00    +0.379 N 
ATOM     16  H   UNL     1       0.124   0.081  -1.998  0.00  0.00    -0.082 HD
BRANCH  15  18
ATOM     17  C   UNL     1       0.128   1.449   0.210  0.00  0.00    -0.017 C 
ATOM     18  C   UNL     1       0.019  -0.067   0.035  0.00  0.00    -0.082 C 
ENDBRANCH  15  18
BRANCH  15  19
ATOM     19  C   UNL     1       2.019  -0.176  -1.285  0.00  0.00    -0.082 C 
ATOM     20  C   UNL     1       2.573  -0.440  -2.687  0.00  0.00    -0.017 C 
ENDBRANCH  15  19
ENDBRANCH  14  15
ENDBRANCH  13  14
ENDBRANCH  12  13
ENDBRANCH  10  12
ENDBRANCH   6  10
ENDBRANCH   1   7
BRANCH   4  21
ATOM     21  C   UNL     1      -4.965  -0.788  -7.728  0.00  0.00    +0.159 C 
BRANCH  21  22
ATOM     22  N   UNL     1      -4.525   0.609  -7.615  0.00  0.00    -0.281 NA
ATOM     23  C   UNL     1      -3.294   0.710  -6.818  0.00  0.00    +0.107 C 
ATOM     24  C   UNL     1      -3.068   2.166  -6.394  0.00  0.00    +0.137 C 
ATOM     25  N   UNL     1      -3.184   3.015  -7.586  0.00  0.00    -0.348 N 
ATOM     26  C   UNL     1      -2.766   4.296  -7.744  0.00  0.00    +0.086 A 
ATOM     27  C   UNL     1      -3.071   4.687  -9.001  0.00  0.00    +0.019 A 
ATOM     28  C   UNL     1      -3.704   3.600  -9.640  0.00  0.00    +0.024 A 
ATOM     29  C   UNL     1      -3.762   2.595  -8.755  0.00  0.00    +0.041 A 
ATOM     30  C   UNL     1      -4.349   1.217  -8.945  0.00  0.00    +0.134 C 
BRANCH  30  31
ATOM     31  C   UNL     1      -5.684   1.323  -9.637  0.00  0.00    -0.024 A 
ATOM     32  C   UNL     1      -6.806   1.697  -8.921  0.00  0.00    +0.008 A 
ATOM     33  C   UNL     1      -8.030   1.794  -9.556  0.00  0.00    +0.033 A 
ATOM     34  C   UNL     1      -8.132   1.518 -10.907  0.00  0.00    +0.126 A 
ATOM     35  C   UNL     1      -7.010   1.145 -11.623  0.00  0.00    +0.033 A 
ATOM     36  C   UNL     1      -5.785   1.052 -10.989  0.00  0.00    +0.008 A 
BRANCH  34  37
ATOM     37  N   UNL     1      -9.443   1.621 -11.586  0.00  0.00    +0.056 N 
ATOM     38  O   UNL     1     -10.424   1.946 -10.960  0.00  0.00    -0.126 OA
ATOM     39  O   UNL     1      -9.532   1.379 -12.768  0.00  0.00    -0.126 OA
ENDBRANCH  34  37
ENDBRANCH  30  31
ENDBRANCH  21  22
ENDBRANCH   4  21
TORSDOF 12
