REMARK  Name = ZINC49473170
REMARK  8 active torsions:
REMARK  status: ('A' for Active; 'I' for Inactive)
REMARK    1  A    between atoms: C_1  and  C_2
REMARK    2  A    between atoms: C_5  and  N_9
REMARK    3  A    between atoms: C_7  and  C_8
REMARK    4  A    between atoms: C_11  and  C_16
REMARK    5  A    between atoms: N_18  and  C_19
REMARK    6  A    between atoms: C_23  and  C_31
REMARK    7  A    between atoms: C_31  and  C_32
REMARK    8  A    between atoms: C_31  and  C_33
REMARK                            x       y       z     vdW  Elec       q    Type
REMARK                         _______ _______ _______ _____ _____    ______ ____
ROOT
ATOM      1  C   UNL     1      -0.401  -7.445  -1.510  0.00  0.00    +0.222 C 
ATOM      2  O   UNL     1      -1.287  -7.152  -2.284  0.00  0.00    -0.275 OA
ATOM      3  N   UNL     1      -0.113  -8.740  -1.273  0.00  0.00    -0.285 N 
ATOM      4  H   UNL     1       0.540  -8.975  -0.595  0.00  0.00    +0.155 HD
ENDROOT
BRANCH   3   5
ATOM      5  C   UNL     1      -0.752  -9.742  -2.004  0.00  0.00    +0.035 A 
ATOM      6  C   UNL     1      -1.074  -9.524  -3.345  0.00  0.00    +0.024 A 
ATOM      7  C   UNL     1      -1.699 -10.492  -4.073  0.00  0.00    +0.012 A 
ATOM      8  C   UNL     1      -2.022 -11.715  -3.473  0.00  0.00    +0.002 A 
ATOM      9  C   UNL     1      -2.693 -12.773  -4.229  0.00  0.00    -0.031 A 
ATOM     10  C   UNL     1      -2.981 -13.939  -3.596  0.00  0.00    +0.074 A 
ATOM     11  C   UNL     1      -2.638 -14.116  -2.240  0.00  0.00    +0.249 A 
ATOM     12  O   UNL     1      -2.908 -15.171  -1.692  0.00  0.00    -0.268 OA
ATOM     13  N   UNL     1      -2.022 -13.150  -1.537  0.00  0.00    -0.322 N 
ATOM     14  H   UNL     1      -1.800 -13.305  -0.605  0.00  0.00    +0.169 HD
ATOM     15  C   UNL     1      -1.700 -11.942  -2.120  0.00  0.00    +0.051 A 
ATOM     16  C   UNL     1      -1.059 -10.948  -1.394  0.00  0.00    +0.049 A 
BRANCH   9  17
ATOM     17  C   UNL     1      -3.055 -12.572  -5.677  0.00  0.00    +0.014 C 
ATOM     18  C   UNL     1      -1.782 -12.568  -6.526  0.00  0.00    +0.012 C 
ATOM     19  C   UNL     1      -3.970 -13.710  -6.136  0.00  0.00    +0.012 C 
ENDBRANCH   9  17
ENDBRANCH   3   5
BRANCH   1  22
ATOM     20  N   UNL     1      -0.031  -4.131  -0.029  0.00  0.00    -0.271 N 
ATOM     21  C   UNL     1      -0.122  -4.961  -1.236  0.00  0.00    +0.127 C 
ATOM     22  C   UNL     1       0.379  -6.359  -0.813  0.00  0.00    +0.102 C 
ATOM     23  C   UNL     1       0.086  -6.354   0.705  0.00  0.00    +0.110 C 
ATOM     24  C   UNL     1       0.087  -4.888   1.076  0.00  0.00    +0.221 C 
ATOM     25  O   UNL     1       0.178  -4.458   2.207  0.00  0.00    -0.275 OA
BRANCH  20  30
ATOM     26  C   UNL     1      -0.135   1.541  -0.026  0.00  0.00    +0.044 C 
ATOM     27  C   UNL     1      -0.107   0.034  -0.027  0.00  0.00    -0.047 A 
ATOM     28  C   UNL     1      -0.098  -0.656   1.171  0.00  0.00    +0.005 A 
ATOM     29  C   UNL     1      -0.073  -2.037   1.174  0.00  0.00    +0.024 A 
ATOM     30  C   UNL     1      -0.057  -2.732  -0.028  0.00  0.00    +0.037 A 
ATOM     31  C   UNL     1      -0.066  -2.036  -1.229  0.00  0.00    +0.027 A 
ATOM     32  C   UNL     1      -0.097  -0.655  -1.226  0.00  0.00    -0.046 A 
ATOM     33  C   UNL     1      -0.113   0.101  -2.529  0.00  0.00    +0.044 C 
ENDBRANCH  20  30
ENDBRANCH   1  22
TORSDOF 4
