REMARK  Name = ZINC05859523
REMARK  11 active torsions:
REMARK  status: ('A' for Active; 'I' for Inactive)
REMARK    1  A    between atoms: C_1  and  C_2
REMARK    2  A    between atoms: C_2  and  C_4
REMARK    3  A    between atoms: C_2  and  N_13
REMARK    4  A    between atoms: C_14  and  C_16
REMARK    5  A    between atoms: C_16  and  O_17
REMARK    6  A    between atoms: O_17  and  C_18
REMARK    7  A    between atoms: C_18  and  C_20
REMARK    8  A    between atoms: C_23  and  C_26
REMARK    9  A    between atoms: C_26  and  C_27
REMARK   10  A    between atoms: C_26  and  C_28
REMARK   11  A    between atoms: C_26  and  C_29
REMARK                            x       y       z     vdW  Elec       q    Type
REMARK                         _______ _______ _______ _____ _____    ______ ____
ROOT
ATOM      1  N   UNL     1       4.806   1.562  -0.035  0.00  0.00    -0.306 N 
ATOM      2  C   UNL     1       3.554   2.060  -0.021  0.00  0.00    +0.251 C 
ATOM      3  O   UNL     1       3.379   3.260  -0.013  0.00  0.00    -0.272 OA
ATOM      4  H   UNL     1       4.946   0.602  -0.042  0.00  0.00    +0.149 HD
ENDROOT
BRANCH   1   6
ATOM      5  C   UNL     1       6.264   2.892  -1.479  0.00  0.00    +0.033 C 
ATOM      6  C   UNL     1       5.956   2.470  -0.042  0.00  0.00    +0.100 C 
BRANCH   6   7
ATOM      7  C   UNL     1       7.154   1.768   0.544  0.00  0.00    -0.024 A 
ATOM      8  C   UNL     1       7.391   0.440   0.240  0.00  0.00    +0.009 A 
ATOM      9  C   UNL     1       8.489  -0.208   0.774  0.00  0.00    +0.050 A 
ATOM     10  C   UNL     1       9.354   0.472   1.616  0.00  0.00    +0.166 A 
ATOM     11  C   UNL     1       9.115   1.809   1.922  0.00  0.00    +0.167 A 
ATOM     12  C   UNL     1       8.016   2.454   1.378  0.00  0.00    +0.055 A 
ATOM     13  O   UNL     1      10.099   2.248   2.760  0.00  0.00    -0.453 OA
ATOM     14  C   UNL     1      11.164   1.287   2.639  0.00  0.00    +0.466 C 
ATOM     15  O   UNL     1      10.488   0.072   2.263  0.00  0.00    -0.453 OA
ENDBRANCH   6   7
ENDBRANCH   1   6
BRANCH   2  16
ATOM     16  C   UNL     1       2.371   1.126  -0.015  0.00  0.00    +0.328 C 
BRANCH  16  17
ATOM     17  O   UNL     1       1.143   1.900   0.001  0.00  0.00    -0.452 OA
BRANCH  17  18
ATOM     18  C   UNL     1      -0.014   1.210   0.009  0.00  0.00    +0.340 C 
ATOM     19  O   UNL     1       0.002  -0.004   0.002  0.00  0.00    -0.245 OA
BRANCH  18  20
ATOM     20  C   UNL     1      -1.304   1.932   0.019  0.00  0.00    +0.059 A 
ATOM     21  C   UNL     1      -1.326   3.328   0.032  0.00  0.00    +0.015 A 
ATOM     22  C   UNL     1      -2.534   3.995   0.036  0.00  0.00    +0.005 A 
ATOM     23  C   UNL     1      -3.720   3.284   0.037  0.00  0.00    -0.042 A 
ATOM     24  C   UNL     1      -3.705   1.900   0.030  0.00  0.00    +0.005 A 
ATOM     25  C   UNL     1      -2.505   1.220   0.021  0.00  0.00    +0.015 A 
BRANCH  23  26
ATOM     26  C   UNL     1      -5.036   4.019   0.047  0.00  0.00    -0.013 C 
ATOM     27  C   UNL     1      -5.827   3.632   1.298  0.00  0.00    +0.015 C 
ATOM     28  C   UNL     1      -4.777   5.527   0.054  0.00  0.00    +0.015 C 
ATOM     29  C   UNL     1      -5.838   3.646  -1.201  0.00  0.00    +0.015 C 
ENDBRANCH  23  26
ENDBRANCH  18  20
ENDBRANCH  17  18
ENDBRANCH  16  17
ENDBRANCH   2  16
TORSDOF 7
