REMARK  Name = ZINC32609551
REMARK  4 active torsions:
REMARK  status: ('A' for Active; 'I' for Inactive)
REMARK    1  A    between atoms: C_1  and  C_2
REMARK    2  A    between atoms: C_5  and  C_8
REMARK    3  A    between atoms: N_23  and  C_24
REMARK    4  A    between atoms: C_24  and  C_25
REMARK                            x       y       z     vdW  Elec       q    Type
REMARK                         _______ _______ _______ _____ _____    ______ ____
ROOT
ATOM      1  C   UNL     1       6.338   1.658  -0.052  0.00  0.00    +0.145 C 
ATOM      2  C   UNL     1       4.872   1.312  -0.039  0.00  0.00    +0.072 A 
ATOM      3  C   UNL     1       3.657   2.132  -0.022  0.00  0.00    +0.199 A 
ATOM      4  O   UNL     1       3.708   3.349  -0.016  0.00  0.00    -0.287 OA
ATOM      5  C   UNL     1       2.370   1.410  -0.013  0.00  0.00    +0.064 A 
ATOM      6  C   UNL     1       1.154   2.091   0.002  0.00  0.00    +0.015 A 
ATOM      7  C   UNL     1      -0.017   1.384   0.010  0.00  0.00    +0.001 A 
ATOM      8  C   UNL     1       0.002  -0.004   0.002  0.00  0.00    +0.004 A 
ATOM      9  C   UNL     1       1.195  -0.694  -0.013  0.00  0.00    +0.047 A 
ATOM     10  C   UNL     1       2.399   0.005  -0.021  0.00  0.00    +0.139 A 
ATOM     11  O   UNL     1       3.572  -0.653  -0.036  0.00  0.00    -0.450 OA
ATOM     12  C   UNL     1       4.773  -0.040  -0.045  0.00  0.00    +0.199 A 
ATOM     13  C   UNL     1       6.144  -0.609  -0.062  0.00  0.00    +0.283 C 
ATOM     14  O   UNL     1       6.404  -1.796  -0.071  0.00  0.00    -0.267 OA
ATOM     15  N   UNL     1       7.056   0.378  -0.066  0.00  0.00    -0.279 N 
ENDROOT
BRANCH   1  20
ATOM     16  C   UNL     1       7.714   4.666   4.686  0.00  0.00    +0.044 C 
ATOM     17  C   UNL     1       7.355   3.882   3.450  0.00  0.00    -0.050 A 
ATOM     18  C   UNL     1       7.174   4.535   2.245  0.00  0.00    +0.004 A 
ATOM     19  C   UNL     1       6.846   3.815   1.112  0.00  0.00    +0.006 A 
ATOM     20  C   UNL     1       6.697   2.443   1.184  0.00  0.00    -0.022 A 
ATOM     21  C   UNL     1       6.872   1.790   2.390  0.00  0.00    +0.006 A 
ATOM     22  C   UNL     1       7.206   2.509   3.522  0.00  0.00    +0.004 A 
ENDBRANCH   1  20
BRANCH  15  23
ATOM     23  C   UNL     1       8.511   0.206  -0.081  0.00  0.00    +0.144 C 
BRANCH  23  24
ATOM     24  C   UNL     1       9.023   0.139   1.334  0.00  0.00    -0.030 A 
ATOM     25  C   UNL     1       9.404   1.297   1.987  0.00  0.00    +0.005 A 
ATOM     26  C   UNL     1       9.870   1.236   3.287  0.00  0.00    +0.000 A 
ATOM     27  C   UNL     1       9.964   0.016   3.931  0.00  0.00    +0.000 A 
ATOM     28  C   UNL     1       9.588  -1.142   3.277  0.00  0.00    +0.000 A 
ATOM     29  C   UNL     1       9.118  -1.080   1.978  0.00  0.00    +0.005 A 
ENDBRANCH  23  24
ENDBRANCH  15  23
TORSDOF 3
