REMARK  Name = ZINC20240911
REMARK  11 active torsions:
REMARK  status: ('A' for Active; 'I' for Inactive)
REMARK    1  A    between atoms: C_1  and  C_2
REMARK    2  A    between atoms: C_7  and  C_8
REMARK    3  A    between atoms: C_10  and  C_14
REMARK    4  A    between atoms: C_11  and  C_13
REMARK    5  A    between atoms: C_14  and  N_15
REMARK    6  A    between atoms: C_19  and  C_22
REMARK    7  A    between atoms: N_24  and  C_25
REMARK    8  A    between atoms: C_25  and  C_26
REMARK    9  A    between atoms: C_26  and  C_27
REMARK   10  A    between atoms: C_27  and  S_28
REMARK   11  A    between atoms: S_28  and  C_29
REMARK                            x       y       z     vdW  Elec       q    Type
REMARK                         _______ _______ _______ _____ _____    ______ ____
ROOT
ATOM      1  N   UNL     1       2.015   0.697   6.281  0.00  0.00    +0.384 N 
ATOM      2  C   UNL     1       2.497   2.032   5.910  0.00  0.00    -0.078 C 
ATOM      3  C   UNL     1       4.004   2.122   6.154  0.00  0.00    -0.018 C 
ATOM      4  C   UNL     1       4.291   1.868   7.637  0.00  0.00    +0.009 C 
ATOM      5  C   UNL     1       3.719   0.504   8.032  0.00  0.00    +0.058 C 
ATOM      6  C   UNL     1       2.222   0.475   7.718  0.00  0.00    -0.066 C 
ATOM      7  H   UNL     1       2.524   0.000   5.758  0.00  0.00    -0.081 HD
ENDROOT
BRANCH   5   8
ATOM      8  C   UNL     1       3.929   0.278   9.507  0.00  0.00    +0.214 C 
ATOM      9  O   UNL     1       2.975   0.106  10.236  0.00  0.00    -0.276 OA
ATOM     10  N   UNL     1       5.177   0.266  10.016  0.00  0.00    -0.315 N 
ATOM     11  H   UNL     1       5.940   0.404   9.433  0.00  0.00    +0.149 HD
BRANCH  10  12
ATOM     12  C   UNL     1       5.381   0.046  11.450  0.00  0.00    +0.105 C 
BRANCH  12  13
ATOM     13  C   UNL     1       6.878   0.081  11.763  0.00  0.00    +0.029 C 
BRANCH  13  14
ATOM     14  C   UNL     1       7.092  -0.149  13.261  0.00  0.00    +0.071 C 
BRANCH  14  15
ATOM     15  S   UNL     1       8.867  -0.108  13.632  0.00  0.00    -0.157 S 
BRANCH  15  16
ATOM     16  C   UNL     1       8.947  -0.392  15.421  0.00  0.00    +0.046 C 
ATOM     17  C   UNL     1       8.289   0.779  16.154  0.00  0.00    +0.014 C 
ATOM     18  C   UNL     1       8.357   0.539  17.664  0.00  0.00    +0.001 C 
ATOM     19  C   UNL     1       9.820   0.424  18.096  0.00  0.00    +0.000 C 
ATOM     20  C   UNL     1      10.479  -0.746  17.364  0.00  0.00    +0.001 C 
ATOM     21  C   UNL     1      10.411  -0.506  15.854  0.00  0.00    +0.014 C 
ENDBRANCH  15  16
ENDBRANCH  14  15
ENDBRANCH  13  14
ENDBRANCH  12  13
ENDBRANCH  10  12
ENDBRANCH   5   8
BRANCH   1  22
ATOM     22  C   UNL     1       0.583   0.590   5.972  0.00  0.00    -0.019 C 
BRANCH  22  25
ATOM     23  C   UNL     1       0.172   0.153   2.407  0.00  0.00    +0.228 A 
ATOM     24  N   UNL     1       0.375  -0.325   3.612  0.00  0.00    -0.216 NA
ATOM     25  C   UNL     1       0.382   0.696   4.482  0.00  0.00    +0.066 A 
ATOM     26  C   UNL     1       0.177   1.830   3.789  0.00  0.00    +0.124 A 
ATOM     27  O   UNL     1       0.051   1.489   2.491  0.00  0.00    -0.440 OA
ATOM     28  C   UNL     1       0.106   3.224   4.357  0.00  0.00    +0.088 C 
BRANCH  23  35
ATOM     29  C   UNL     1      -1.974   0.637   0.528  0.00  0.00    +0.044 C 
ATOM     30  C   UNL     1      -0.936  -0.419   0.250  0.00  0.00    -0.038 A 
ATOM     31  C   UNL     1      -1.000  -1.163  -0.910  0.00  0.00    +0.004 A 
ATOM     32  C   UNL     1      -0.048  -2.134  -1.166  0.00  0.00    +0.000 A 
ATOM     33  C   UNL     1       0.973  -2.366  -0.262  0.00  0.00    +0.001 A 
ATOM     34  C   UNL     1       1.048  -1.629   0.902  0.00  0.00    +0.013 A 
ATOM     35  C   UNL     1       0.094  -0.644   1.164  0.00  0.00    +0.040 A 
ENDBRANCH  23  35
ENDBRANCH  22  25
ENDBRANCH   1  22
TORSDOF 9
