REMARK  Name = ZINC14482748
REMARK  8 active torsions:
REMARK  status: ('A' for Active; 'I' for Inactive)
REMARK    1  A    between atoms: C_1  and  C_2
REMARK    2  A    between atoms: C_2  and  C_3
REMARK    3  A    between atoms: C_3  and  C_26
REMARK    4  A    between atoms: N_6  and  C_10
REMARK    5  A    between atoms: C_10  and  C_11
REMARK    6  A    between atoms: N_13  and  C_14
REMARK    7  A    between atoms: C_14  and  C_16
REMARK    8  A    between atoms: C_14  and  C_17
REMARK                            x       y       z     vdW  Elec       q    Type
REMARK                         _______ _______ _______ _____ _____    ______ ____
ROOT
ATOM      1  C   UNL     1      -8.289  -0.710  -3.014  0.00  0.00    +0.138 C 
ATOM      2  C   UNL     1      -7.607   0.347  -2.168  0.00  0.00    +0.251 C 
ATOM      3  O   UNL     1      -8.015   0.834  -1.135  0.00  0.00    -0.272 OA
ATOM      4  N   UNL     1      -6.452   0.632  -2.801  0.00  0.00    -0.215 N 
ATOM      5  C   UNL     1      -6.313  -0.086  -3.921  0.00  0.00    +0.310 C 
ATOM      6  O   UNL     1      -5.355  -0.001  -4.664  0.00  0.00    -0.252 OA
ATOM      7  N   UNL     1      -7.351  -0.916  -4.131  0.00  0.00    -0.281 N 
ATOM      8  H   UNL     1      -7.461  -1.529  -4.875  0.00  0.00    +0.152 HD
ENDROOT
BRANCH   1   9
ATOM      9  C   UNL     1      -9.617  -0.208  -3.519  0.00  0.00    -0.015 A 
ATOM     10  C   UNL     1     -10.765  -0.433  -2.784  0.00  0.00    +0.006 A 
ATOM     11  C   UNL     1     -11.983   0.031  -3.245  0.00  0.00    +0.000 A 
ATOM     12  C   UNL     1     -12.054   0.711  -4.446  0.00  0.00    +0.000 A 
ATOM     13  C   UNL     1     -10.906   0.931  -5.184  0.00  0.00    +0.000 A 
ATOM     14  C   UNL     1      -9.688   0.471  -4.721  0.00  0.00    +0.006 A 
ENDBRANCH   1   9
BRANCH   1  16
ATOM     15  C   UNL     1      -7.104  -2.518  -1.763  0.00  0.00    +0.007 C 
ATOM     16  C   UNL     1      -8.471  -2.003  -2.218  0.00  0.00    +0.037 C 
ENDBRANCH   1  16
BRANCH   4  17
ATOM     17  C   UNL     1      -5.472   1.612  -2.325  0.00  0.00    +0.213 C 
BRANCH  17  18
ATOM     18  C   UNL     1      -4.479   0.930  -1.420  0.00  0.00    +0.231 C 
ATOM     19  O   UNL     1      -4.579  -0.258  -1.195  0.00  0.00    -0.274 OA
ATOM     20  N   UNL     1      -3.479   1.640  -0.861  0.00  0.00    -0.307 N 
ATOM     21  H   UNL     1      -3.399   2.590  -1.041  0.00  0.00    +0.149 HD
BRANCH  20  22
ATOM     22  C   UNL     1      -2.513   0.977   0.019  0.00  0.00    +0.100 C 
ATOM     23  C   UNL     1      -3.072   0.922   1.442  0.00  0.00    +0.033 C 
BRANCH  22  24
ATOM     24  C   UNL     1      -1.219   1.750   0.017  0.00  0.00    -0.024 A 
ATOM     25  C   UNL     1      -1.242   3.133   0.033  0.00  0.00    +0.009 A 
ATOM     26  C   UNL     1      -0.058   3.846   0.024  0.00  0.00    +0.050 A 
ATOM     27  C   UNL     1       1.155   3.177   0.008  0.00  0.00    +0.166 A 
ATOM     28  C   UNL     1       1.178   1.784   0.000  0.00  0.00    +0.167 A 
ATOM     29  C   UNL     1      -0.013   1.076   0.008  0.00  0.00    +0.055 A 
ATOM     30  O   UNL     1       2.478   1.369  -0.015  0.00  0.00    -0.453 OA
ATOM     31  C   UNL     1       3.243   2.517  -0.428  0.00  0.00    +0.466 C 
ATOM     32  O   UNL     1       2.441   3.634  -0.002  0.00  0.00    -0.453 OA
ENDBRANCH  22  24
ENDBRANCH  20  22
ENDBRANCH  17  18
ENDBRANCH   4  17
TORSDOF 6
