REMARK  Name = ZINC39993618
REMARK  12 active torsions:
REMARK  status: ('A' for Active; 'I' for Inactive)
REMARK    1  A    between atoms: C_1  and  C_2
REMARK    2  A    between atoms: C_2  and  C_3
REMARK    3  A    between atoms: C_3  and  C_4
REMARK    4  A    between atoms: C_4  and  C_5
REMARK    5  A    between atoms: C_5  and  C_6
REMARK    6  A    between atoms: C_6  and  N_7
REMARK    7  A    between atoms: C_8  and  N_9
REMARK    8  A    between atoms: C_10  and  C_24
REMARK    9  A    between atoms: C_16  and  C_23
REMARK   10  A    between atoms: N_26  and  C_27
REMARK   11  A    between atoms: C_29  and  C_34
REMARK   12  A    between atoms: C_32  and  C_33
REMARK                            x       y       z     vdW  Elec       q    Type
REMARK                         _______ _______ _______ _____ _____    ______ ____
ROOT
ATOM      1  N   UNL     1       2.211  -4.501  -3.459  0.00  0.00    -0.313 N 
ATOM      2  C   UNL     1       1.470  -4.697  -4.533  0.00  0.00    +0.110 A 
ATOM      3  C   UNL     1       2.042  -5.130  -5.751  0.00  0.00    +0.076 A 
ATOM      4  C   UNL     1       3.419  -5.353  -5.816  0.00  0.00    +0.033 A 
ATOM      5  C   UNL     1       4.171  -5.136  -4.665  0.00  0.00    +0.083 A 
ATOM      6  C   UNL     1       3.531  -4.696  -3.474  0.00  0.00    +0.150 A 
ATOM      7  N   UNL     1       4.272  -4.489  -2.381  0.00  0.00    -0.211 NA
ATOM      8  C   UNL     1       5.587  -4.677  -2.372  0.00  0.00    +0.145 A 
ATOM      9  C   UNL     1       6.293  -4.435  -1.174  0.00  0.00    -0.007 A 
ATOM     10  C   UNL     1       7.641  -4.620  -1.138  0.00  0.00    +0.008 A 
ATOM     11  C   UNL     1       8.314  -5.049  -2.292  0.00  0.00    +0.019 A 
ATOM     12  C   UNL     1       7.626  -5.277  -3.431  0.00  0.00    +0.096 A 
ATOM     13  N   UNL     1       6.274  -5.095  -3.480  0.00  0.00    -0.267 N 
ATOM     14  C   UNL     1       5.620  -5.344  -4.639  0.00  0.00    +0.268 A 
ATOM     15  O   UNL     1       6.219  -5.717  -5.631  0.00  0.00    -0.267 OA
ATOM     16  C   UNL     1       5.559  -3.974   0.059  0.00  0.00    +0.047 C 
ENDROOT
BRANCH   3  17
ATOM     17  C   UNL     1       1.196  -5.343  -6.936  0.00  0.00    +0.252 C 
ATOM     18  O   UNL     1       0.016  -5.048  -6.902  0.00  0.00    -0.270 OA
ATOM     19  N   UNL     1       1.728  -5.864  -8.059  0.00  0.00    -0.281 N 
ATOM     20  H   UNL     1       2.653  -6.157  -8.066  0.00  0.00    +0.155 HD
BRANCH  19  21
ATOM     21  C   UNL     1       0.947  -5.983  -9.213  0.00  0.00    +0.037 A 
ATOM     22  C   UNL     1      -0.408  -6.272  -9.110  0.00  0.00    +0.027 A 
ATOM     23  C   UNL     1      -1.176  -6.388 -10.252  0.00  0.00    -0.049 A 
ATOM     24  C   UNL     1      -0.598  -6.218 -11.496  0.00  0.00    +0.004 A 
ATOM     25  C   UNL     1       0.751  -5.930 -11.602  0.00  0.00    +0.005 A 
ATOM     26  C   UNL     1       1.524  -5.807 -10.464  0.00  0.00    -0.029 A 
ATOM     27  C   UNL     1       2.992  -5.487 -10.580  0.00  0.00    +0.045 C 
ATOM     28  C   UNL     1      -2.646  -6.702 -10.141  0.00  0.00    +0.044 C 
ENDBRANCH  19  21
ENDBRANCH   3  17
BRANCH   2  29
ATOM     29  N   UNL     1       0.111  -4.476  -4.466  0.00  0.00    -0.344 N 
ATOM     30  H   UNL     1      -0.303  -4.253  -3.617  0.00  0.00    +0.144 HD
ATOM     31  H   UNL     1      -0.432  -4.542  -5.267  0.00  0.00    +0.144 HD
ENDBRANCH   2  29
BRANCH   1  32
ATOM     32  C   UNL     1       1.570  -4.051  -2.221  0.00  0.00    +0.125 C 
BRANCH  32  33
ATOM     33  C   UNL     1       1.545  -2.522  -2.185  0.00  0.00    +0.022 C 
BRANCH  33  34
ATOM     34  C   UNL     1       0.875  -2.053  -0.892  0.00  0.00    +0.002 C 
BRANCH  34  35
ATOM     35  C   UNL     1       0.850  -0.523  -0.857  0.00  0.00    -0.000 C 
BRANCH  35  37
ATOM     36  C   UNL     1       0.155   1.475   0.472  0.00  0.00    +0.004 C 
ATOM     37  C   UNL     1       0.180  -0.054   0.436  0.00  0.00    -0.003 C 
ENDBRANCH  35  37
ENDBRANCH  34  35
ENDBRANCH  33  34
ENDBRANCH  32  33
ENDBRANCH   1  32
TORSDOF 8
