REMARK  Name = ZINC10063855
REMARK  6 active torsions:
REMARK  status: ('A' for Active; 'I' for Inactive)
REMARK    1  A    between atoms: C_1  and  C_2
REMARK    2  A    between atoms: C_4  and  N_12
REMARK    3  A    between atoms: C_13  and  C_15
REMARK    4  A    between atoms: N_17  and  C_31
REMARK    5  A    between atoms: N_22  and  C_25
REMARK    6  A    between atoms: C_31  and  C_32
REMARK                            x       y       z     vdW  Elec       q    Type
REMARK                         _______ _______ _______ _____ _____    ______ ____
ROOT
ATOM      1  C   UNL     1      -1.012  -5.008  -0.228  0.00  0.00    +0.081 A 
ATOM      2  C   UNL     1      -2.243  -4.419  -0.208  0.00  0.00    +0.101 A 
ATOM      3  N   UNL     1      -3.385  -5.143  -0.308  0.00  0.00    -0.349 N 
ATOM      4  C   UNL     1      -3.405  -6.485  -0.421  0.00  0.00    +0.101 A 
ATOM      5  C   UNL     1      -2.238  -7.204  -0.448  0.00  0.00    +0.085 A 
ATOM      6  C   UNL     1      -1.874  -8.613  -0.556  0.00  0.00    +0.283 A 
ATOM      7  O   UNL     1      -2.635  -9.561  -0.657  0.00  0.00    -0.265 OA
ATOM      8  N   UNL     1      -0.524  -8.656  -0.521  0.00  0.00    -0.196 N 
ATOM      9  N   UNL     1       0.000  -7.367  -0.397  0.00  0.00    -0.162 NA
ATOM     10  C   UNL     1      -0.951  -6.478  -0.349  0.00  0.00    +0.112 A 
ENDROOT
BRANCH   8  11
ATOM     11  C   UNL     1       0.241  -9.826  -0.598  0.00  0.00    +0.069 A 
ATOM     12  C   UNL     1      -0.220 -10.998  -0.013  0.00  0.00    +0.028 A 
ATOM     13  C   UNL     1       0.534 -12.152  -0.095  0.00  0.00    +0.002 A 
ATOM     14  C   UNL     1       1.753 -12.138  -0.749  0.00  0.00    +0.000 A 
ATOM     15  C   UNL     1       2.217 -10.971  -1.328  0.00  0.00    +0.002 A 
ATOM     16  C   UNL     1       1.465  -9.815  -1.254  0.00  0.00    +0.028 A 
ENDBRANCH   8  11
BRANCH   1  18
ATOM     17  N   UNL     1       0.134  -2.863  -0.015  0.00  0.00    -0.281 N 
ATOM     18  C   UNL     1       0.215  -4.204  -0.125  0.00  0.00    +0.252 C 
ATOM     19  O   UNL     1       1.302  -4.749  -0.139  0.00  0.00    -0.270 OA
ATOM     20  H   UNL     1      -0.733  -2.433   0.059  0.00  0.00    +0.155 HD
BRANCH  17  24
ATOM     21  C   UNL     1       4.862  -2.304   1.198  0.00  0.00    +0.065 C 
ATOM     22  C   UNL     1       3.601  -1.777   0.564  0.00  0.00    +0.041 A 
ATOM     23  C   UNL     1       2.459  -2.568   0.572  0.00  0.00    +0.047 A 
ATOM     24  C   UNL     1       1.293  -2.095  -0.007  0.00  0.00    +0.045 A 
ATOM     25  C   UNL     1       1.319  -0.807  -0.592  0.00  0.00    +0.022 A 
ATOM     26  C   UNL     1       0.180  -0.258  -1.199  0.00  0.00    +0.012 A 
ATOM     27  C   UNL     1       0.245   0.986  -1.751  0.00  0.00    +0.001 A 
ATOM     28  C   UNL     1       1.429   1.720  -1.720  0.00  0.00    +0.002 A 
ATOM     29  C   UNL     1       2.552   1.216  -1.138  0.00  0.00    +0.028 A 
ATOM     30  C   UNL     1       2.523  -0.064  -0.558  0.00  0.00    +0.073 A 
ATOM     31  N   UNL     1       3.612  -0.583   0.019  0.00  0.00    -0.252 NA
ENDBRANCH  17  24
ENDBRANCH   1  18
BRANCH   3  32
ATOM     32  C   UNL     1      -4.664  -4.429  -0.285  0.00  0.00    +0.152 C 
BRANCH  32  33
ATOM     33  C   UNL     1      -5.151  -4.301   1.160  0.00  0.00    +0.138 C 
ATOM     34  C   UNL     1      -6.552  -3.653   1.185  0.00  0.00    +0.035 C 
ATOM     35  C   UNL     1      -6.461  -2.721   2.424  0.00  0.00    +0.031 C 
ATOM     36  C   UNL     1      -4.975  -2.288   2.359  0.00  0.00    +0.160 C 
ATOM     37  O   UNL     1      -4.266  -3.449   1.897  0.00  0.00    -0.375 OA
ENDBRANCH  32  33
ENDBRANCH   3  32
TORSDOF 5
