REMARK  Name = ZINC35032406
REMARK  15 active torsions:
REMARK  status: ('A' for Active; 'I' for Inactive)
REMARK    1  A    between atoms: C_1  and  C_2
REMARK    2  A    between atoms: C_2  and  C_3
REMARK    3  A    between atoms: C_3  and  N_4
REMARK    4  A    between atoms: C_14  and  C_15
REMARK    5  A    between atoms: C_15  and  C_17
REMARK    6  A    between atoms: C_15  and  N_18
REMARK    7  A    between atoms: N_18  and  C_19
REMARK    8  A    between atoms: C_19  and  C_20
REMARK    9  A    between atoms: C_20  and  N_21
REMARK   10  A    between atoms: N_21  and  C_22
REMARK   11  A    between atoms: N_21  and  C_23
REMARK   12  A    between atoms: C_24  and  C_26
REMARK   13  A    between atoms: C_26  and  C_27
REMARK   14  A    between atoms: C_26  and  C_28
REMARK   15  A    between atoms: C_26  and  C_29
REMARK                            x       y       z     vdW  Elec       q    Type
REMARK                         _______ _______ _______ _____ _____    ______ ____
ROOT
ATOM      1  C   UNL     1      -2.045  -1.954   2.951  0.00  0.00    +0.139 C 
ATOM      2  C   UNL     1      -3.542  -2.194   3.154  0.00  0.00    +0.036 C 
ENDROOT
BRANCH   1  13
ATOM      3  N   UNL     1      -1.745  -0.426   1.044  0.00  0.00    -0.295 N 
ATOM      4  C   UNL     1      -1.496  -0.154  -0.258  0.00  0.00    +0.262 A 
ATOM      5  O   UNL     1      -1.466   0.991  -0.670  0.00  0.00    -0.267 OA
ATOM      6  C   UNL     1      -1.260  -1.295  -1.155  0.00  0.00    +0.065 A 
ATOM      7  C   UNL     1      -0.994  -1.123  -2.512  0.00  0.00    +0.015 A 
ATOM      8  C   UNL     1      -0.781  -2.227  -3.307  0.00  0.00    +0.001 A 
ATOM      9  C   UNL     1      -0.830  -3.506  -2.768  0.00  0.00    +0.002 A 
ATOM     10  C   UNL     1      -1.091  -3.697  -1.429  0.00  0.00    +0.028 A 
ATOM     11  C   UNL     1      -1.310  -2.594  -0.603  0.00  0.00    +0.078 A 
ATOM     12  N   UNL     1      -1.570  -2.736   0.721  0.00  0.00    -0.232 NA
ATOM     13  C   UNL     1      -1.768  -1.709   1.490  0.00  0.00    +0.133 A 
BRANCH   3  14
ATOM     14  C   UNL     1      -1.987   0.673   1.983  0.00  0.00    +0.126 C 
BRANCH  14  16
ATOM     15  C   UNL     1      -0.923   2.212   3.639  0.00  0.00    +0.005 C 
ATOM     16  C   UNL     1      -0.671   1.064   2.659  0.00  0.00    +0.018 C 
ENDBRANCH  14  16
ENDBRANCH   3  14
ENDBRANCH   1  13
BRANCH   1  17
ATOM     17  N   UNL     1      -1.296  -3.130   3.400  0.00  0.00    -0.293 N 
ATOM     18  C   UNL     1      -1.596  -4.348   2.908  0.00  0.00    +0.221 C 
ATOM     19  O   UNL     1      -2.457  -4.465   2.061  0.00  0.00    -0.275 OA
BRANCH  18  20
ATOM     20  C   UNL     1      -0.863  -5.566   3.410  0.00  0.00    +0.039 C 
ATOM     21  C   UNL     1      -1.298  -6.791   2.603  0.00  0.00    +0.020 C 
ATOM     22  C   UNL     1       0.643  -5.356   3.248  0.00  0.00    +0.020 C 
ATOM     23  C   UNL     1      -1.192  -5.785   4.888  0.00  0.00    +0.020 C 
ENDBRANCH  18  20
BRANCH  17  24
ATOM     24  C   UNL     1      -0.220  -2.982   4.384  0.00  0.00    +0.090 C 
BRANCH  24  25
ATOM     25  C   UNL     1      -0.640  -1.970   5.451  0.00  0.00    -0.060 C 
BRANCH  25  26
ATOM     26  N   UNL     1       0.453  -1.792   6.415  0.00  0.00    +0.377 N 
ATOM     27  C   UNL     1       0.098  -0.734   7.370  0.00  0.00    -0.097 C 
ATOM     28  C   UNL     1       0.676  -3.051   7.140  0.00  0.00    -0.097 C 
ATOM     29  H   UNL     1       1.296  -1.533   5.925  0.00  0.00    -0.083 HD
ENDBRANCH  25  26
ENDBRANCH  24  25
ENDBRANCH  17  24
ENDBRANCH   1  17
TORSDOF 8
