REMARK  Name = ZINC35191307
REMARK  16 active torsions:
REMARK  status: ('A' for Active; 'I' for Inactive)
REMARK    1  A    between atoms: C_1  and  C_2
REMARK    2  A    between atoms: C_2  and  N_3
REMARK    3  A    between atoms: N_3  and  C_4
REMARK    4  A    between atoms: N_3  and  C_6
REMARK    5  A    between atoms: C_4  and  C_5
REMARK    6  A    between atoms: C_6  and  C_7
REMARK    7  A    between atoms: C_7  and  C_8
REMARK    8  A    between atoms: C_8  and  C_9
REMARK    9  A    between atoms: C_9  and  C_11
REMARK   10  A    between atoms: C_9  and  N_12
REMARK   11  A    between atoms: C_13  and  C_15
REMARK   12  A    between atoms: C_15  and  S_16
REMARK   13  A    between atoms: S_16  and  C_17
REMARK   14  A    between atoms: C_17  and  S_18
REMARK   15  A    between atoms: S_18  and  C_19
REMARK   16  A    between atoms: N_29  and  C_30
REMARK                            x       y       z     vdW  Elec       q    Type
REMARK                         _______ _______ _______ _____ _____    ______ ____
ROOT
ATOM      1  S   UNL     1      -8.062  -1.425  -7.596  0.00  0.00    -0.076 S 
ENDROOT
BRANCH   1   2
ATOM      2  C   UNL     1      -9.105  -2.619  -6.826  0.00  0.00    +0.177 A 
ATOM      3  N   UNL     1      -9.839  -2.243  -5.808  0.00  0.00    -0.223 NA
ATOM      4  C   UNL     1     -10.659  -3.104  -5.172  0.00  0.00    +0.079 A 
ATOM      5  C   UNL     1     -11.443  -2.702  -4.087  0.00  0.00    +0.028 A 
ATOM      6  C   UNL     1     -12.261  -3.607  -3.472  0.00  0.00    +0.002 A 
ATOM      7  C   UNL     1     -12.326  -4.924  -3.908  0.00  0.00    +0.001 A 
ATOM      8  C   UNL     1     -11.572  -5.347  -4.967  0.00  0.00    +0.015 A 
ATOM      9  C   UNL     1     -10.729  -4.445  -5.614  0.00  0.00    +0.065 A 
ATOM     10  C   UNL     1      -9.896  -4.843  -6.757  0.00  0.00    +0.267 A 
ATOM     11  O   UNL     1      -9.913  -5.983  -7.183  0.00  0.00    -0.267 OA
ATOM     12  N   UNL     1      -9.114  -3.894  -7.322  0.00  0.00    -0.255 N 
BRANCH  12  13
ATOM     13  C   UNL     1      -8.304  -4.220  -8.418  0.00  0.00    +0.052 A 
ATOM     14  C   UNL     1      -7.032  -4.738  -8.213  0.00  0.00    +0.029 A 
ATOM     15  C   UNL     1      -6.236  -5.059  -9.295  0.00  0.00    +0.040 A 
ATOM     16  C   UNL     1      -6.706  -4.865 -10.583  0.00  0.00    +0.124 A 
ATOM     17  C   UNL     1      -7.974  -4.349 -10.790  0.00  0.00    +0.040 A 
ATOM     18  C   UNL     1      -8.775  -4.032  -9.710  0.00  0.00    +0.029 A 
ATOM     19  F   UNL     1      -5.925  -5.180 -11.640  0.00  0.00    -0.205 F 
ENDBRANCH  12  13
ENDBRANCH   1   2
BRANCH   1  20
ATOM     20  C   UNL     1      -8.354   0.091  -6.645  0.00  0.00    +0.146 C 
BRANCH  20  21
ATOM     21  S   UNL     1      -7.512  -0.029  -5.043  0.00  0.00    -0.140 S 
BRANCH  21  22
ATOM     22  C   UNL     1      -5.761   0.223  -5.447  0.00  0.00    +0.165 C 
BRANCH  22  24
ATOM     23  N   UNL     1      -3.601   0.305  -4.244  0.00  0.00    -0.312 N 
ATOM     24  C   UNL     1      -4.939   0.147  -4.187  0.00  0.00    +0.223 C 
ATOM     25  O   UNL     1      -5.480  -0.057  -3.120  0.00  0.00    -0.275 OA
ATOM     26  H   UNL     1      -3.169   0.468  -5.097  0.00  0.00    +0.149 HD
BRANCH  23  27
ATOM     27  C   UNL     1      -2.802   0.231  -3.019  0.00  0.00    +0.070 C 
ATOM     28  C   UNL     1      -2.468  -1.231  -2.715  0.00  0.00    +0.028 C 
BRANCH  27  29
ATOM     29  C   UNL     1      -1.505   1.022  -3.208  0.00  0.00    +0.020 C 
BRANCH  29  30
ATOM     30  C   UNL     1      -1.834   2.505  -3.387  0.00  0.00    -0.017 C 
BRANCH  30  31
ATOM     31  C   UNL     1      -0.538   3.295  -3.576  0.00  0.00    -0.079 C 
BRANCH  31  32
ATOM     32  N   UNL     1      -0.853   4.720  -3.748  0.00  0.00    +0.379 N 
ATOM     33  H   UNL     1      -1.506   4.830  -4.510  0.00  0.00    -0.082 HD
BRANCH  32  35
ATOM     34  C   UNL     1      -1.902   6.687  -2.735  0.00  0.00    -0.017 C 
ATOM     35  C   UNL     1      -1.450   5.242  -2.512  0.00  0.00    -0.082 C 
ENDBRANCH  32  35
BRANCH  32  36
ATOM     36  C   UNL     1       0.379   5.461  -4.048  0.00  0.00    -0.082 C 
ATOM     37  C   UNL     1       0.917   5.025  -5.413  0.00  0.00    -0.017 C 
ENDBRANCH  32  36
ENDBRANCH  31  32
ENDBRANCH  30  31
ENDBRANCH  29  30
ENDBRANCH  27  29
ENDBRANCH  23  27
ENDBRANCH  22  24
ENDBRANCH  21  22
ENDBRANCH  20  21
ENDBRANCH   1  20
TORSDOF 13
