REMARK  Name = ZINC39404359
REMARK  10 active torsions:
REMARK  status: ('A' for Active; 'I' for Inactive)
REMARK    1  A    between atoms: C_1  and  C_2
REMARK    2  A    between atoms: C_2  and  O_3
REMARK    3  A    between atoms: O_3  and  C_4
REMARK    4  A    between atoms: C_4  and  C_6
REMARK    5  A    between atoms: C_8  and  N_17
REMARK    6  A    between atoms: C_18  and  C_20
REMARK    7  A    between atoms: C_20  and  S_21
REMARK    8  A    between atoms: S_21  and  C_22
REMARK    9  A    between atoms: N_28  and  N_29
REMARK   10  A    between atoms: C_30  and  C_31
REMARK                            x       y       z     vdW  Elec       q    Type
REMARK                         _______ _______ _______ _____ _____    ______ ____
ROOT
ATOM      1  N   UNL     1      -0.619  -1.646   3.553  0.00  0.00    -0.301 N 
ATOM      2  C   UNL     1      -1.542  -2.097   4.425  0.00  0.00    +0.224 C 
ATOM      3  O   UNL     1      -1.195  -2.720   5.407  0.00  0.00    -0.275 OA
ATOM      4  H   UNL     1      -0.896  -1.149   2.768  0.00  0.00    +0.150 HD
ENDROOT
BRANCH   1   6
ATOM      5  C   UNL     1       1.516  -2.381   2.500  0.00  0.00    +0.155 C 
ATOM      6  C   UNL     1       0.803  -1.908   3.790  0.00  0.00    +0.153 C 
ATOM      7  S   UNL     1       1.052  -3.417   4.816  0.00  0.00    -0.106 S 
ATOM      8  C   UNL     1       1.318  -4.583   3.501  0.00  0.00    -0.013 C 
ATOM      9  C   UNL     1       1.528  -3.885   2.393  0.00  0.00    -0.044 C 
ATOM     10  C   UNL     1       1.774  -4.585   1.058  0.00  0.00    +0.032 C 
ATOM     11  C   UNL     1       2.196  -6.030   1.321  0.00  0.00    +0.005 C 
ATOM     12  C   UNL     1       1.175  -6.702   2.244  0.00  0.00    +0.005 C 
ATOM     13  C   UNL     1       1.302  -6.080   3.636  0.00  0.00    +0.042 C 
BRANCH   5  14
ATOM     14  C   UNL     1       0.801  -1.808   1.304  0.00  0.00    +0.317 C 
ATOM     15  O   UNL     1       0.324  -2.546   0.475  0.00  0.00    -0.250 OA
BRANCH  14  16
ATOM     16  O   UNL     1       0.693  -0.477   1.160  0.00  0.00    -0.464 OA
BRANCH  16  18
ATOM     17  C   UNL     1      -0.019   1.526   0.010  0.00  0.00    +0.048 C 
ATOM     18  C   UNL     1       0.002  -0.004   0.002  0.00  0.00    +0.229 C 
ENDBRANCH  16  18
ENDBRANCH  14  16
ENDBRANCH   5  14
ENDBRANCH   1   6
BRANCH   2  19
ATOM     19  C   UNL     1      -3.004  -1.828   4.181  0.00  0.00    +0.168 C 
BRANCH  19  20
ATOM     20  S   UNL     1      -3.985  -2.557   5.522  0.00  0.00    -0.100 S 
BRANCH  20  21
ATOM     21  C   UNL     1      -5.698  -2.149   5.085  0.00  0.00    +0.305 C 
ATOM     22  N   UNL     1      -6.034  -2.686   3.754  0.00  0.00    -0.211 NA
ATOM     23  C   UNL     1      -6.324  -1.641   3.029  0.00  0.00    +0.252 C 
ATOM     24  N   UNL     1      -6.208  -0.492   3.756  0.00  0.00    -0.114 NA
ATOM     25  N   UNL     1      -5.860  -0.694   4.928  0.00  0.00    -0.146 NA
ATOM     26  N   UNL     1      -6.697  -1.690   1.704  0.00  0.00    -0.204 N 
ATOM     27  H   UNL     1      -6.898  -0.871   1.226  0.00  0.00    +0.177 HD
BRANCH  26  28
ATOM     28  N   UNL     1      -6.786  -2.924   1.047  0.00  0.00    -0.187 NA
ATOM     29  C   UNL     1      -7.138  -2.971  -0.204  0.00  0.00    +0.145 C 
BRANCH  29  30
ATOM     30  C   UNL     1      -7.231  -4.263  -0.892  0.00  0.00    +0.032 A 
ATOM     31  C   UNL     1      -7.578  -4.529  -2.206  0.00  0.00    +0.017 A 
ATOM     32  C   UNL     1      -7.594  -5.839  -2.625  0.00  0.00    +0.008 A 
ATOM     33  C   UNL     1      -7.272  -6.823  -1.745  0.00  0.00    +0.046 A 
ATOM     34  S   UNL     1      -6.919  -5.902  -0.257  0.00  0.00    -0.096 S 
ENDBRANCH  29  30
ENDBRANCH  26  28
ENDBRANCH  20  21
ENDBRANCH  19  20
ENDBRANCH   2  19
TORSDOF 9
