REMARK  Name = ZINC44315705
REMARK  5 active torsions:
REMARK  status: ('A' for Active; 'I' for Inactive)
REMARK    1  A    between atoms: C_1  and  C_2
REMARK    2  A    between atoms: C_2  and  C_4
REMARK    3  A    between atoms: C_2  and  N_9
REMARK    4  A    between atoms: C_10  and  C_12
REMARK    5  A    between atoms: C_14  and  N_17
REMARK                            x       y       z     vdW  Elec       q    Type
REMARK                         _______ _______ _______ _____ _____    ______ ____
ROOT
ATOM      1  N   UNL     1      -1.372  -0.511   0.012  0.00  0.00    -0.304 N 
ATOM      2  C   UNL     1      -2.051  -0.643  -1.145  0.00  0.00    +0.245 C 
ATOM      3  O   UNL     1      -1.522  -0.340  -2.197  0.00  0.00    -0.270 OA
ATOM      4  H   UNL     1      -1.794  -0.752   0.852  0.00  0.00    +0.150 HD
ENDROOT
BRANCH   2   5
ATOM      5  C   UNL     1      -3.432  -1.152  -1.134  0.00  0.00    +0.046 A 
ATOM      6  C   UNL     1      -4.187  -1.312  -2.353  0.00  0.00    +0.053 A 
ATOM      7  C   UNL     1      -5.440  -1.787  -2.208  0.00  0.00    +0.164 A 
ATOM      8  S   UNL     1      -5.585  -2.012  -0.448  0.00  0.00    -0.072 S 
ATOM      9  C   UNL     1      -4.061  -1.504   0.039  0.00  0.00    +0.060 A 
BRANCH   7  10
ATOM     10  N   UNL     1      -6.450  -2.057  -3.256  0.00  0.00    +0.063 N 
ATOM     11  O   UNL     1      -6.187  -1.846  -4.417  0.00  0.00    -0.126 OA
ATOM     12  O   UNL     1      -7.538  -2.487  -2.951  0.00  0.00    -0.126 OA
ENDBRANCH   7  10
ENDBRANCH   2   5
BRANCH   1  14
ATOM     13  C   UNL     1      -0.019   1.526   0.010  0.00  0.00    +0.033 C 
ATOM     14  C   UNL     1       0.002  -0.004   0.002  0.00  0.00    +0.107 C 
BRANCH  14  15
ATOM     15  C   UNL     1       0.731  -0.503   1.223  0.00  0.00    +0.010 A 
ATOM     16  C   UNL     1       2.010  -0.938   1.335  0.00  0.00    +0.013 A 
ATOM     17  C   UNL     1       2.470  -1.354   2.570  0.00  0.00    +0.008 A 
ATOM     18  C   UNL     1       1.630  -1.314   3.633  0.00  0.00    +0.045 A 
ATOM     19  S   UNL     1       0.137  -0.668   2.898  0.00  0.00    -0.100 S 
ENDBRANCH  14  15
ENDBRANCH   1  14
TORSDOF 4
