REMARK  Name = ZINC33279540
REMARK  8 active torsions:
REMARK  status: ('A' for Active; 'I' for Inactive)
REMARK    1  A    between atoms: C_1  and  C_2
REMARK    2  A    between atoms: C_7  and  N_8
REMARK    3  A    between atoms: C_9  and  C_11
REMARK    4  A    between atoms: C_11  and  N_12
REMARK    5  A    between atoms: N_12  and  S_13
REMARK    6  A    between atoms: S_13  and  C_16
REMARK    7  A    between atoms: C_18  and  C_21
REMARK    8  A    between atoms: C_23  and  C_26
REMARK                            x       y       z     vdW  Elec       q    Type
REMARK                         _______ _______ _______ _____ _____    ______ ____
ROOT
ATOM      1  S   UNL     1       0.017  -0.025   0.013  0.00  0.00    +0.065 S 
ATOM      2  O   UNL     1       1.273  -0.426   0.544  0.00  0.00    -0.153 OA
ATOM      3  O   UNL     1      -1.218  -0.450   0.573  0.00  0.00    -0.153 OA
ENDROOT
BRANCH   1   4
ATOM      4  C   UNL     1       0.001   1.736   0.034  0.00  0.00    +0.143 A 
ATOM      5  C   UNL     1      -1.060   2.574   0.050  0.00  0.00    +0.048 A 
ATOM      6  C   UNL     1      -0.803   3.944   0.069  0.00  0.00    +0.031 A 
ATOM      7  C   UNL     1       0.497   4.360   0.058  0.00  0.00    +0.058 A 
ATOM      8  S   UNL     1       1.379   2.868   0.030  0.00  0.00    -0.076 S 
BRANCH   6   9
ATOM      9  C   UNL     1      -1.914   4.925   0.093  0.00  0.00    +0.203 A 
ATOM     10  N   UNL     1      -1.796   6.272   0.113  0.00  0.00    -0.191 NA
ATOM     11  C   UNL     1      -3.022   6.733   0.128  0.00  0.00    +0.231 A 
ATOM     12  O   UNL     1      -3.840   5.676   0.125  0.00  0.00    -0.337 OA
ATOM     13  N   UNL     1      -3.193   4.649   0.105  0.00  0.00    -0.056 NA
BRANCH  11  14
ATOM     14  C   UNL     1      -3.433   8.182   0.149  0.00  0.00    +0.078 C 
ATOM     15  C   UNL     1      -4.666   8.460   1.025  0.00  0.00    +0.013 C 
ATOM     16  C   UNL     1      -5.128   9.433  -0.072  0.00  0.00    +0.001 C 
ATOM     17  C   UNL     1      -4.293   8.597  -1.056  0.00  0.00    +0.013 C 
ENDBRANCH  11  14
ENDBRANCH   6   9
ENDBRANCH   1   4
BRANCH   1  18
ATOM     18  N   UNL     1       0.004  -0.496  -1.575  0.00  0.00    -0.181 NA
ATOM     19  H   UNL     1      -0.924  -0.897  -2.009  0.00  0.00    +0.149 HD
BRANCH  18  20
ATOM     20  C   UNL     1       1.141  -0.180  -2.443  0.00  0.00    +0.201 C 
BRANCH  20  22
ATOM     21  N   UNL     1       2.009  -0.887  -4.648  0.00  0.00    -0.284 N 
ATOM     22  C   UNL     1       1.062  -1.011  -3.697  0.00  0.00    +0.233 C 
ATOM     23  O   UNL     1       0.146  -1.791  -3.851  0.00  0.00    -0.274 OA
ATOM     24  H   UNL     1       2.788  -0.117  -4.551  0.00  0.00    +0.155 HD
BRANCH  21  31
ATOM     25  C   UNL     1       3.255   0.014  -7.042  0.00  0.00    +0.045 C 
ATOM     26  C   UNL     1       2.598  -1.339  -6.946  0.00  0.00    -0.029 A 
ATOM     27  C   UNL     1       2.589  -2.182  -8.041  0.00  0.00    +0.006 A 
ATOM     28  C   UNL     1       1.986  -3.423  -7.955  0.00  0.00    +0.020 A 
ATOM     29  C   UNL     1       1.390  -3.825  -6.772  0.00  0.00    +0.043 A 
ATOM     30  C   UNL     1       1.401  -2.989  -5.672  0.00  0.00    +0.043 A 
ATOM     31  C   UNL     1       2.001  -1.739  -5.758  0.00  0.00    +0.038 A 
ATOM     32 CL   UNL     1       0.634  -5.385  -6.669  0.00  0.00    -0.083 Cl
ENDBRANCH  21  31
ENDBRANCH  20  22
ENDBRANCH  18  20
ENDBRANCH   1  18
TORSDOF 7
