REMARK  Name = ZINC33732491
REMARK  10 active torsions:
REMARK  status: ('A' for Active; 'I' for Inactive)
REMARK    1  A    between atoms: C_1  and  C_2
REMARK    2  A    between atoms: C_2  and  C_3
REMARK    3  A    between atoms: C_2  and  C_4
REMARK    4  A    between atoms: C_2  and  C_5
REMARK    5  A    between atoms: C_8  and  S_11
REMARK    6  A    between atoms: S_11  and  C_12
REMARK    7  A    between atoms: C_12  and  C_13
REMARK    8  A    between atoms: N_15  and  C_16
REMARK    9  A    between atoms: C_21  and  N_22
REMARK   10  A    between atoms: N_25  and  C_28
REMARK                            x       y       z     vdW  Elec       q    Type
REMARK                         _______ _______ _______ _____ _____    ______ ____
ROOT
ATOM      1  C   UNL     1       7.431  -1.697  -7.166  0.00  0.00    +0.055 A 
ATOM      2  C   UNL     1       6.917  -2.485  -8.185  0.00  0.00    +0.025 A 
ATOM      3  C   UNL     1       7.739  -2.911  -9.211  0.00  0.00    +0.002 A 
ATOM      4  C   UNL     1       9.075  -2.553  -9.226  0.00  0.00    +0.002 A 
ATOM      5  C   UNL     1       9.595  -1.767  -8.215  0.00  0.00    +0.025 A 
ATOM      6  C   UNL     1       8.776  -1.331  -7.185  0.00  0.00    +0.051 A 
ENDROOT
BRANCH   6   7
ATOM      7  N   UNL     1       9.299  -0.530  -6.163  0.00  0.00    -0.332 N 
ATOM      8  C   UNL     1       9.878  -1.133  -4.952  0.00  0.00    +0.086 C 
ATOM      9  C   UNL     1      11.260  -0.514  -4.715  0.00  0.00    -0.059 C 
ATOM     10  N   UNL     1      11.138   0.949  -4.666  0.00  0.00    +0.384 N 
ATOM     11  C   UNL     1      10.696   1.458  -5.971  0.00  0.00    -0.059 C 
ATOM     12  C   UNL     1       9.292   0.936  -6.272  0.00  0.00    +0.086 C 
ATOM     13  H   UNL     1      10.465   1.205  -3.960  0.00  0.00    -0.081 HD
BRANCH  10  14
ATOM     14  C   UNL     1      12.442   1.535  -4.330  0.00  0.00    -0.068 C 
ATOM     15  C   UNL     1      12.900   1.015  -2.966  0.00  0.00    -0.015 C 
ATOM     16  C   UNL     1      14.258   1.626  -2.616  0.00  0.00    -0.002 C 
ATOM     17  C   UNL     1      14.133   3.150  -2.564  0.00  0.00    -0.000 C 
ATOM     18  C   UNL     1      13.676   3.671  -3.928  0.00  0.00    -0.002 C 
ATOM     19  C   UNL     1      12.318   3.059  -4.279  0.00  0.00    -0.015 C 
ENDBRANCH  10  14
ENDBRANCH   6   7
BRANCH   1  22
ATOM     20  C   UNL     1       5.607  -2.061  -5.679  0.00  0.00    +0.227 C 
ATOM     21  O   UNL     1       5.383  -3.118  -6.232  0.00  0.00    -0.275 OA
ATOM     22  N   UNL     1       6.598  -1.264  -6.125  0.00  0.00    -0.283 N 
ATOM     23  H   UNL     1       6.736  -0.392  -5.724  0.00  0.00    +0.155 HD
BRANCH  20  24
ATOM     24  C   UNL     1       4.777  -1.640  -4.494  0.00  0.00    +0.170 C 
BRANCH  24  25
ATOM     25  S   UNL     1       3.535  -2.915  -4.142  0.00  0.00    -0.116 S 
BRANCH  25  29
ATOM     26  C   UNL     1       1.282  -1.291  -0.564  0.00  0.00    -0.042 A 
ATOM     27  C   UNL     1       0.928  -2.514  -1.106  0.00  0.00    +0.005 A 
ATOM     28  C   UNL     1       1.613  -3.012  -2.197  0.00  0.00    +0.015 A 
ATOM     29  C   UNL     1       2.658  -2.283  -2.750  0.00  0.00    +0.008 A 
ATOM     30  C   UNL     1       3.011  -1.055  -2.204  0.00  0.00    +0.015 A 
ATOM     31  C   UNL     1       2.318  -0.561  -1.116  0.00  0.00    +0.005 A 
BRANCH  26  33
ATOM     32  C   UNL     1      -0.112   0.587   0.260  0.00  0.00    +0.015 C 
ATOM     33  C   UNL     1       0.532  -0.751   0.626  0.00  0.00    -0.013 C 
ATOM     34  C   UNL     1       1.504  -0.548   1.791  0.00  0.00    +0.015 C 
ATOM     35  C   UNL     1      -0.556  -1.745   1.038  0.00  0.00    +0.015 C 
ENDBRANCH  26  33
ENDBRANCH  25  29
ENDBRANCH  24  25
ENDBRANCH  20  24
ENDBRANCH   1  22
TORSDOF 7
