REMARK  Name = ZINC15188288
REMARK  5 active torsions:
REMARK  status: ('A' for Active; 'I' for Inactive)
REMARK    1  A    between atoms: C_1  and  C_2
REMARK    2  A    between atoms: C_2  and  C_4
REMARK    3  A    between atoms: C_10  and  C_28
REMARK    4  A    between atoms: C_20  and  C_27
REMARK    5  A    between atoms: C_23  and  O_26
REMARK                            x       y       z     vdW  Elec       q    Type
REMARK                         _______ _______ _______ _____ _____    ______ ____
ROOT
ATOM      1  C   UNL     1      -0.800   0.755   2.995  0.00  0.00    -0.015 C 
ATOM      2  C   UNL     1      -1.981   0.581   2.021  0.00  0.00    -0.074 C 
ATOM      3  C   UNL     1      -1.863   1.670   0.943  0.00  0.00    -0.012 C 
ATOM      4  C   UNL     1      -0.449   2.283   1.086  0.00  0.00    -0.004 C 
ATOM      5  C   UNL     1      -0.038   1.998   2.527  0.00  0.00    -0.034 C 
ATOM      6  C   UNL     1       1.445   1.924   2.787  0.00  0.00    +0.006 C 
ATOM      7  C   UNL     1       2.256   1.267   1.677  0.00  0.00    +0.005 C 
ATOM      8  C   UNL     1       1.926   1.955   0.352  0.00  0.00    +0.003 C 
ATOM      9  C   UNL     1       0.459   1.671   0.030  0.00  0.00    +0.000 C 
ATOM     10  C   UNL     1       0.271   0.160  -0.085  0.00  0.00    +0.031 C 
ATOM     11  C   UNL     1       1.214  -0.367  -1.134  0.00  0.00    -0.027 C 
ATOM     12  C   UNL     1       2.343   0.211  -1.420  0.00  0.00    -0.065 C 
ATOM     13  C   UNL     1       2.834   1.470  -0.766  0.00  0.00    -0.008 C 
ATOM     14  C   UNL     1       4.256   1.251  -0.250  0.00  0.00    +0.014 C 
ATOM     15  C   UNL     1       5.156   0.700  -1.355  0.00  0.00    +0.032 C 
ATOM     16  C   UNL     1       4.615  -0.636  -1.865  0.00  0.00    +0.119 C 
ATOM     17  C   UNL     1       3.227  -0.427  -2.478  0.00  0.00    +0.062 C 
ATOM     18  C   UNL     1       2.876   2.575  -1.829  0.00  0.00    +0.016 C 
ATOM     19  C   UNL     1      -0.565   3.178   3.384  0.00  0.00    +0.010 C 
ATOM     20  N   UNL     1      -1.018  -0.189   2.213  0.00  0.00    +0.388 N 
ATOM     21  H   UNL     1      -1.229  -1.102   2.633  0.00  0.00    -0.084 HD
ATOM     22  H   UNL     1      -0.359  -0.313   1.436  0.00  0.00    -0.084 HD
ENDROOT
BRANCH   1  24
ATOM     23  C   UNL     1      -1.000  -0.785   5.099  0.00  0.00    +0.084 C 
ATOM     24  C   UNL     1      -0.996   0.592   4.486  0.00  0.00    +0.119 C 
ATOM     25  O   UNL     1      -1.149   1.564   5.186  0.00  0.00    -0.299 OA
ENDBRANCH   1  24
BRANCH  16  26
ATOM     26  O   UNL     1       5.499  -1.163  -2.856  0.00  0.00    -0.391 OA
ATOM     27  H   UNL     1       5.218  -2.013  -3.223  0.00  0.00    +0.210 HD
ENDBRANCH  16  26
TORSDOF 2
