REMARK  Name = ZINC36307740
REMARK  5 active torsions:
REMARK  status: ('A' for Active; 'I' for Inactive)
REMARK    1  A    between atoms: C_1  and  C_2
REMARK    2  A    between atoms: C_9  and  C_28
REMARK    3  A    between atoms: C_11  and  C_19
REMARK    4  A    between atoms: C_23  and  N_25
REMARK    5  A    between atoms: C_28  and  C_30
REMARK                            x       y       z     vdW  Elec       q    Type
REMARK                         _______ _______ _______ _____ _____    ______ ____
ROOT
ATOM      1  C   UNL     1       0.270   1.444   0.066  0.00  0.00    +0.044 C 
ATOM      2  C   UNL     1       0.238  -0.063   0.079  0.00  0.00    -0.050 A 
ATOM      3  C   UNL     1       0.246  -0.767  -1.111  0.00  0.00    +0.005 A 
ATOM      4  C   UNL     1       0.217  -2.146  -1.106  0.00  0.00    +0.024 A 
ATOM      5  C   UNL     1       0.179  -2.841   0.101  0.00  0.00    +0.039 A 
ATOM      6  C   UNL     1       0.173  -2.122   1.291  0.00  0.00    +0.004 A 
ATOM      7  C   UNL     1       0.208  -0.746   1.282  0.00  0.00    +0.011 A 
ATOM      8  C   UNL     1       0.134  -3.146   2.395  0.00  0.00    +0.137 C 
ATOM      9  C   UNL     1      -1.119  -2.973   3.259  0.00  0.00    +0.104 C 
ATOM     10  C   UNL     1      -0.612  -3.136   4.711  0.00  0.00    +0.050 C 
ATOM     11  C   UNL     1       0.860  -2.707   4.617  0.00  0.00    +0.077 C 
ATOM     12  N   UNL     1       1.319  -3.029   3.261  0.00  0.00    -0.271 NA
ATOM     13  C   UNL     1       2.061  -4.327   3.199  0.00  0.00    +0.155 C 
ATOM     14  S   UNL     1       2.955  -4.279   4.813  0.00  0.00    -0.144 S 
ATOM     15  C   UNL     1       1.690  -3.335   5.746  0.00  0.00    +0.090 C 
ATOM     16  C   UNL     1       0.118  -4.475   1.684  0.00  0.00    +0.243 C 
ATOM     17  O   UNL     1       0.086  -5.572   2.201  0.00  0.00    -0.273 OA
ATOM     18  N   UNL     1       0.145  -4.212   0.364  0.00  0.00    -0.283 N 
ATOM     19  H   UNL     1       0.142  -4.895  -0.324  0.00  0.00    +0.155 HD
ENDROOT
BRANCH  10  20
ATOM     20  C   UNL     1      -0.724  -4.572   5.155  0.00  0.00    -0.040 A 
ATOM     21  C   UNL     1       0.364  -5.418   5.039  0.00  0.00    +0.004 A 
ATOM     22  C   UNL     1       0.261  -6.735   5.446  0.00  0.00    +0.002 A 
ATOM     23  C   UNL     1      -0.929  -7.206   5.970  0.00  0.00    +0.033 A 
ATOM     24  C   UNL     1      -2.015  -6.360   6.087  0.00  0.00    +0.126 A 
ATOM     25  C   UNL     1      -1.911  -5.041   5.683  0.00  0.00    +0.036 A 
BRANCH  24  26
ATOM     26  N   UNL     1      -3.289  -6.864   6.647  0.00  0.00    +0.056 N 
ATOM     27  O   UNL     1      -3.379  -8.016   7.003  0.00  0.00    -0.126 OA
ATOM     28  O   UNL     1      -4.240  -6.123   6.750  0.00  0.00    -0.126 OA
ENDBRANCH  24  26
ENDBRANCH  10  20
BRANCH   9  29
ATOM     29  C   UNL     1      -1.712  -1.602   3.057  0.00  0.00    +0.187 C 
ATOM     30  O   UNL     1      -1.424  -0.700   3.814  0.00  0.00    -0.290 OA
BRANCH  29  31
ATOM     31  C   UNL     1      -2.643  -1.358   1.938  0.00  0.00    +0.106 A 
ATOM     32  C   UNL     1      -3.184  -0.085   1.753  0.00  0.00    +0.031 A 
ATOM     33  C   UNL     1      -4.057   0.128   0.698  0.00  0.00    +0.004 A 
ATOM     34  C   UNL     1      -4.359  -0.938  -0.136  0.00  0.00    +0.020 A 
ATOM     35  C   UNL     1      -3.784  -2.176   0.107  0.00  0.00    +0.111 A 
ATOM     36  N   UNL     1      -2.955  -2.351   1.112  0.00  0.00    -0.252 NA
ENDBRANCH  29  31
ENDBRANCH   9  29
TORSDOF 4
