REMARK  Name = ZINC12157077
REMARK  5 active torsions:
REMARK  status: ('A' for Active; 'I' for Inactive)
REMARK    1  A    between atoms: C_1  and  C_2
REMARK    2  A    between atoms: C_11  and  C_12
REMARK    3  A    between atoms: C_21  and  C_23
REMARK    4  A    between atoms: N_25  and  C_26
REMARK    5  A    between atoms: C_26  and  C_27
REMARK                            x       y       z     vdW  Elec       q    Type
REMARK                         _______ _______ _______ _____ _____    ______ ____
ROOT
ATOM      1  C   UNL     1      -7.480  -5.611  -3.467  0.00  0.00    +0.263 C 
ATOM      2  O   UNL     1      -7.795  -6.359  -2.561  0.00  0.00    -0.268 OA
ATOM      3  N   UNL     1      -6.336  -4.903  -3.389  0.00  0.00    -0.296 N 
ATOM      4  C   UNL     1      -5.419  -5.095  -2.258  0.00  0.00    +0.108 C 
ATOM      5  C   UNL     1      -5.201  -3.745  -1.563  0.00  0.00    +0.026 C 
ATOM      6  C   UNL     1      -4.804  -2.707  -2.617  0.00  0.00    -0.015 C 
ATOM      7  C   UNL     1      -5.786  -2.557  -3.783  0.00  0.00    +0.026 C 
ATOM      8  C   UNL     1      -5.992  -3.930  -4.434  0.00  0.00    +0.108 C 
ATOM      9  C   UNL     1      -3.314  -2.532  -2.916  0.00  0.00    +0.021 C 
ATOM     10  C   UNL     1      -4.072  -1.454  -2.139  0.00  0.00    +0.082 C 
ENDROOT
BRANCH   1  21
ATOM     11  C   UNL     1     -10.533  -6.148  -3.504  0.00  0.00    +0.047 C 
ATOM     12  C   UNL     1      -9.685  -5.714  -4.672  0.00  0.00    -0.013 A 
ATOM     13  C   UNL     1     -10.141  -5.473  -5.991  0.00  0.00    +0.005 A 
ATOM     14  C   UNL     1     -11.399  -5.547  -6.602  0.00  0.00    +0.030 A 
ATOM     15  C   UNL     1     -11.528  -5.252  -7.929  0.00  0.00    +0.042 A 
ATOM     16  C   UNL     1     -10.420  -4.879  -8.681  0.00  0.00    +0.022 A 
ATOM     17  C   UNL     1      -9.173  -4.800  -8.103  0.00  0.00    +0.027 A 
ATOM     18  C   UNL     1      -9.017  -5.096  -6.751  0.00  0.00    +0.047 A 
ATOM     19  N   UNL     1      -7.929  -5.106  -5.910  0.00  0.00    -0.350 N 
ATOM     20  H   UNL     1      -7.018  -4.887  -6.162  0.00  0.00    +0.166 HD
ATOM     21  C   UNL     1      -8.347  -5.480  -4.647  0.00  0.00    +0.106 A 
ATOM     22 CL   UNL     1     -13.089  -5.343  -8.683  0.00  0.00    -0.084 Cl
ENDBRANCH   1  21
BRANCH  10  23
ATOM     23  C   UNL     1      -3.791  -1.332  -0.663  0.00  0.00    +0.217 C 
ATOM     24  O   UNL     1      -2.710  -1.663  -0.222  0.00  0.00    -0.275 OA
ATOM     25  N   UNL     1      -4.739  -0.856   0.167  0.00  0.00    -0.310 N 
ATOM     26  H   UNL     1      -5.604  -0.591  -0.185  0.00  0.00    +0.149 HD
BRANCH  25  27
ATOM     27  C   UNL     1      -4.466  -0.738   1.601  0.00  0.00    +0.146 C 
BRANCH  27  28
ATOM     28  C   UNL     1      -5.681  -0.183   2.300  0.00  0.00    +0.007 A 
ATOM     29  C   UNL     1      -6.729  -0.847   2.845  0.00  0.00    +0.013 A 
ATOM     30  C   UNL     1      -7.744  -0.123   3.443  0.00  0.00    +0.008 A 
ATOM     31  C   UNL     1      -7.660   1.230   3.466  0.00  0.00    +0.045 A 
ATOM     32  S   UNL     1      -6.112   1.518   2.626  0.00  0.00    -0.100 S 
ENDBRANCH  27  28
ENDBRANCH  25  27
ENDBRANCH  10  23
TORSDOF 4
