REMARK  Name = ZINC20905625
REMARK  9 active torsions:
REMARK  status: ('A' for Active; 'I' for Inactive)
REMARK    1  A    between atoms: C_1  and  O_2
REMARK    2  A    between atoms: O_2  and  C_3
REMARK    3  A    between atoms: C_3  and  C_5
REMARK    4  A    between atoms: C_8  and  C_11
REMARK    5  A    between atoms: N_12  and  N_13
REMARK    6  A    between atoms: C_16  and  S_19
REMARK    7  A    between atoms: S_19  and  C_20
REMARK    8  A    between atoms: C_20  and  C_21
REMARK    9  A    between atoms: N_23  and  C_24
REMARK                            x       y       z     vdW  Elec       q    Type
REMARK                         _______ _______ _______ _____ _____    ______ ____
ROOT
ATOM      1  N   UNL     1      -6.241   5.982   0.129  0.00  0.00    -0.205 N 
ATOM      2  C   UNL     1      -6.260   7.370   0.127  0.00  0.00    +0.232 A 
ATOM      3  N   UNL     1      -7.374   8.169   0.128  0.00  0.00    -0.186 NA
ATOM      4  C   UNL     1      -6.904   9.456   0.126  0.00  0.00    +0.211 A 
ATOM      5  N   UNL     1      -5.595   9.389   0.123  0.00  0.00    -0.144 NA
ATOM      6  N   UNL     1      -5.216   8.161   0.130  0.00  0.00    -0.245 N 
ATOM      7  H   UNL     1      -7.186   5.420   0.132  0.00  0.00    +0.177 HD
ATOM      8  H   UNL     1      -4.202   7.735   0.136  0.00  0.00    +0.192 HD
ENDROOT
BRANCH   1  10
ATOM      9  C   UNL     1      -5.002   3.998   0.130  0.00  0.00    +0.138 C 
ATOM     10  N   UNL     1      -5.019   5.298   0.128  0.00  0.00    -0.188 NA
BRANCH   9  14
ATOM     11  C   UNL     1      -1.305   1.929   0.124  0.00  0.00    +0.059 A 
ATOM     12  C   UNL     1      -1.324   3.327   0.127  0.00  0.00    +0.015 A 
ATOM     13  C   UNL     1      -2.515   3.995   0.124  0.00  0.00    +0.010 A 
ATOM     14  C   UNL     1      -3.718   3.279   0.128  0.00  0.00    -0.005 A 
ATOM     15  C   UNL     1      -3.699   1.879   0.130  0.00  0.00    +0.010 A 
ATOM     16  C   UNL     1      -2.508   1.213   0.128  0.00  0.00    +0.015 A 
BRANCH  11  17
ATOM     17  C   UNL     1      -0.019   1.208   0.123  0.00  0.00    +0.339 C 
ATOM     18  O   UNL     1      -0.003  -0.007   0.125  0.00  0.00    -0.245 OA
BRANCH  17  20
ATOM     19  C   UNL     1       2.367   1.123   0.106  0.00  0.00    +0.280 C 
ATOM     20  O   UNL     1       1.139   1.897   0.113  0.00  0.00    -0.464 OA
ENDBRANCH  17  20
ENDBRANCH  11  17
ENDBRANCH   9  14
ENDBRANCH   1  10
BRANCH   4  21
ATOM     21  S   UNL     1      -7.877  10.925   0.126  0.00  0.00    -0.075 S 
BRANCH  21  22
ATOM     22  C   UNL     1      -6.564  12.171   0.122  0.00  0.00    +0.173 C 
BRANCH  22  23
ATOM     23  C   UNL     1      -7.178  13.548   0.121  0.00  0.00    +0.228 C 
ATOM     24  O   UNL     1      -8.384  13.673   0.123  0.00  0.00    -0.275 OA
ATOM     25  N   UNL     1      -6.387  14.639   0.118  0.00  0.00    -0.284 N 
ATOM     26  H   UNL     1      -5.295  14.526   0.191  0.00  0.00    +0.155 HD
BRANCH  25  27
ATOM     27  C   UNL     1      -6.954  15.914   0.023  0.00  0.00    +0.047 A 
ATOM     28  C   UNL     1      -8.180  16.178   0.621  0.00  0.00    +0.024 A 
ATOM     29  C   UNL     1      -8.735  17.439   0.528  0.00  0.00    +0.002 A 
ATOM     30  C   UNL     1      -8.077  18.437  -0.167  0.00  0.00    +0.001 A 
ATOM     31  C   UNL     1      -6.859  18.177  -0.768  0.00  0.00    +0.017 A 
ATOM     32  C   UNL     1      -6.296  16.919  -0.675  0.00  0.00    +0.039 A 
ATOM     33 BR   UNL     1      -4.630  16.564  -1.499  0.00  0.00    -0.048 Br
ENDBRANCH  25  27
ENDBRANCH  22  23
ENDBRANCH  21  22
ENDBRANCH   4  21
TORSDOF 8
