REMARK  Name = ZINC09464492
REMARK  12 active torsions:
REMARK  status: ('A' for Active; 'I' for Inactive)
REMARK    1  A    between atoms: C_1  and  C_2
REMARK    2  A    between atoms: C_5  and  N_9
REMARK    3  A    between atoms: C_7  and  C_8
REMARK    4  A    between atoms: C_13  and  S_15
REMARK    5  A    between atoms: S_15  and  C_16
REMARK    6  A    between atoms: C_16  and  C_17
REMARK    7  A    between atoms: N_19  and  C_20
REMARK    8  A    between atoms: C_20  and  C_21
REMARK    9  A    between atoms: N_23  and  C_24
REMARK   10  A    between atoms: C_25  and  C_32
REMARK   11  A    between atoms: C_27  and  C_31
REMARK   12  A    between atoms: C_29  and  C_30
REMARK                            x       y       z     vdW  Elec       q    Type
REMARK                         _______ _______ _______ _____ _____    ______ ____
ROOT
ATOM      1  C   UNL     1      -0.238   0.387  -0.866  0.00  0.00    +0.224 C 
ATOM      2  O   UNL     1       0.697   0.158  -0.129  0.00  0.00    -0.275 OA
ATOM      3  N   UNL     1      -1.415  -0.242  -0.676  0.00  0.00    -0.306 N 
ATOM      4  H   UNL     1      -2.164  -0.059  -1.265  0.00  0.00    +0.149 HD
ENDROOT
BRANCH   1   5
ATOM      5  C   UNL     1      -0.085   1.374  -1.994  0.00  0.00    +0.172 C 
BRANCH   5   6
ATOM      6  S   UNL     1       1.600   2.045  -1.985  0.00  0.00    -0.088 S 
BRANCH   6  11
ATOM      7  N   UNL     1       2.516   5.893  -6.224  0.00  0.00    -0.292 N 
ATOM      8  C   UNL     1       2.071   4.955  -5.300  0.00  0.00    +0.187 A 
ATOM      9  N   UNL     1       0.885   4.388  -5.190  0.00  0.00    -0.125 NA
ATOM     10  N   UNL     1       0.655   3.469  -4.193  0.00  0.00    -0.133 NA
ATOM     11  C   UNL     1       1.619   3.167  -3.344  0.00  0.00    +0.160 A 
ATOM     12  S   UNL     1       2.951   4.195  -3.944  0.00  0.00    -0.024 S 
ATOM     13  H   UNL     1       3.449   6.159  -6.234  0.00  0.00    +0.154 HD
BRANCH   7  18
ATOM     14  C   UNL     1      -1.119   8.165  -9.937  0.00  0.00    +0.044 C 
ATOM     15  C   UNL     1      -0.153   7.561  -8.950  0.00  0.00    -0.047 A 
ATOM     16  C   UNL     1      -0.621   7.039  -7.758  0.00  0.00    +0.005 A 
ATOM     17  C   UNL     1       0.262   6.485  -6.852  0.00  0.00    +0.023 A 
ATOM     18  C   UNL     1       1.621   6.452  -7.139  0.00  0.00    +0.033 A 
ATOM     19  C   UNL     1       2.087   6.982  -8.335  0.00  0.00    +0.027 A 
ATOM     20  C   UNL     1       1.199   7.530  -9.239  0.00  0.00    -0.046 A 
ATOM     21  C   UNL     1       1.703   8.101 -10.540  0.00  0.00    +0.044 C 
ENDBRANCH   7  18
ENDBRANCH   6  11
ENDBRANCH   5   6
ENDBRANCH   1   5
BRANCH   3  22
ATOM     22  C   UNL     1      -1.564  -1.202   0.420  0.00  0.00    +0.200 C 
BRANCH  22  23
ATOM     23  C   UNL     1      -2.965  -1.759   0.414  0.00  0.00    +0.234 C 
ATOM     24  O   UNL     1      -3.760  -1.391  -0.425  0.00  0.00    -0.274 OA
ATOM     25  N   UNL     1      -3.333  -2.667   1.339  0.00  0.00    -0.284 N 
ATOM     26  H   UNL     1      -2.679  -3.014   1.966  0.00  0.00    +0.155 HD
BRANCH  25  27
ATOM     27  C   UNL     1      -4.659  -3.110   1.395  0.00  0.00    +0.039 A 
ATOM     28  C   UNL     1      -5.698  -2.191   1.450  0.00  0.00    -0.029 A 
ATOM     29  C   UNL     1      -7.006  -2.631   1.501  0.00  0.00    +0.008 A 
ATOM     30  C   UNL     1      -7.282  -3.986   1.507  0.00  0.00    -0.050 A 
ATOM     31  C   UNL     1      -6.249  -4.904   1.458  0.00  0.00    +0.008 A 
ATOM     32  C   UNL     1      -4.939  -4.471   1.402  0.00  0.00    -0.029 A 
ATOM     33  C   UNL     1      -3.814  -5.472   1.348  0.00  0.00    +0.045 C 
ATOM     34  C   UNL     1      -8.710  -4.463   1.568  0.00  0.00    +0.044 C 
ATOM     35  C   UNL     1      -5.399  -0.714   1.448  0.00  0.00    +0.045 C 
ENDBRANCH  25  27
ENDBRANCH  22  23
ENDBRANCH   3  22
TORSDOF 7
