REMARK  Name = ZINC39636079
REMARK  6 active torsions:
REMARK  status: ('A' for Active; 'I' for Inactive)
REMARK    1  A    between atoms: C_1  and  C_2
REMARK    2  A    between atoms: C_8  and  N_10
REMARK    3  A    between atoms: C_11  and  C_13
REMARK    4  A    between atoms: C_24  and  C_26
REMARK    5  A    between atoms: C_29  and  O_32
REMARK    6  A    between atoms: O_32  and  C_33
REMARK                            x       y       z     vdW  Elec       q    Type
REMARK                         _______ _______ _______ _____ _____    ______ ____
ROOT
ATOM      1  C   UNL     1       0.402   1.400   4.246  0.00  0.00    +0.100 C 
ATOM      2  C   UNL     1      -0.264   2.791   4.331  0.00  0.00    +0.121 C 
ATOM      3  N   UNL     1      -0.071   3.214   5.738  0.00  0.00    -0.296 N 
ATOM      4  C   UNL     1       1.300   2.758   6.074  0.00  0.00    +0.115 C 
ATOM      5  C   UNL     1       1.428   1.382   5.391  0.00  0.00    -0.004 C 
ATOM      6  C   UNL     1       1.096   0.269   6.381  0.00  0.00    -0.010 C 
ATOM      7  C   UNL     1       2.162   0.235   7.480  0.00  0.00    -0.082 C 
ATOM      8  N   UNL     1       3.481   0.005   6.878  0.00  0.00    +0.379 N 
ATOM      9  C   UNL     1       3.832   1.127   5.998  0.00  0.00    -0.082 C 
ATOM     10  C   UNL     1       2.837   1.198   4.837  0.00  0.00    -0.010 C 
ATOM     11  C   UNL     1      -0.943   3.865   6.532  0.00  0.00    +0.248 C 
ATOM     12  O   UNL     1      -2.082   4.058   6.154  0.00  0.00    -0.270 OA
ATOM     13  H   UNL     1       4.173  -0.077   7.607  0.00  0.00    -0.086 HD
ATOM     14  H   UNL     1       3.460  -0.848   6.340  0.00  0.00    -0.086 HD
ENDROOT
BRANCH  11  15
ATOM     15  C   UNL     1      -0.515   4.344   7.862  0.00  0.00    +0.055 A 
ATOM     16  C   UNL     1       0.847   4.507   8.155  0.00  0.00    +0.020 A 
ATOM     17  C   UNL     1       1.197   4.957   9.411  0.00  0.00    +0.068 A 
ATOM     18  C   UNL     1       0.197   5.232  10.339  0.00  0.00    +0.220 A 
ATOM     19  N   UNL     1      -1.081   5.068  10.031  0.00  0.00    -0.220 NA
ATOM     20  C   UNL     1      -1.460   4.646   8.843  0.00  0.00    +0.127 A 
BRANCH  18  21
ATOM     21  O   UNL     1       0.534   5.675  11.574  0.00  0.00    -0.438 OA
BRANCH  21  22
ATOM     22  C   UNL     1      -0.468   6.025  12.423  0.00  0.00    +0.130 A 
ATOM     23  C   UNL     1      -1.175   5.045  13.105  0.00  0.00    +0.046 A 
ATOM     24  C   UNL     1      -2.193   5.404  13.967  0.00  0.00    +0.004 A 
ATOM     25  C   UNL     1      -2.507   6.738  14.150  0.00  0.00    +0.000 A 
ATOM     26  C   UNL     1      -1.804   7.716  13.471  0.00  0.00    +0.004 A 
ATOM     27  C   UNL     1      -0.781   7.363  12.613  0.00  0.00    +0.046 A 
ENDBRANCH  21  22
ENDBRANCH  18  21
ENDBRANCH  11  15
BRANCH   1  29
ATOM     28  N   UNL     1       1.224   0.002   2.378  0.00  0.00    -0.312 N 
ATOM     29  C   UNL     1       1.094   1.230   2.918  0.00  0.00    +0.218 C 
ATOM     30  O   UNL     1       1.536   2.198   2.336  0.00  0.00    -0.275 OA
ATOM     31  H   UNL     1       0.871  -0.773   2.844  0.00  0.00    +0.149 HD
BRANCH  28  38
ATOM     32  C   UNL     1      -0.114  -1.342   0.189  0.00  0.00    +0.009 C 
ATOM     33  C   UNL     1       1.396  -1.441   0.411  0.00  0.00    +0.006 C 
ATOM     34  C   UNL     1       2.099  -1.614  -0.937  0.00  0.00    +0.005 C 
ATOM     35  C   UNL     1       3.610  -1.713  -0.715  0.00  0.00    +0.000 C 
ATOM     36  C   UNL     1       4.111  -0.435  -0.038  0.00  0.00    +0.002 C 
ATOM     37  C   UNL     1       3.408  -0.263   1.310  0.00  0.00    +0.022 C 
ATOM     38  C   UNL     1       1.897  -0.164   1.087  0.00  0.00    +0.076 C 
ENDBRANCH  28  38
ENDBRANCH   1  29
TORSDOF 5
