REMARK  Name = ZINC39665700
REMARK  10 active torsions:
REMARK  status: ('A' for Active; 'I' for Inactive)
REMARK    1  A    between atoms: C_1  and  C_2
REMARK    2  A    between atoms: C_6  and  C_9
REMARK    3  A    between atoms: C_13  and  C_22
REMARK    4  A    between atoms: N_24  and  C_25
REMARK    5  A    between atoms: C_25  and  C_26
REMARK    6  A    between atoms: C_26  and  C_28
REMARK    7  A    between atoms: C_26  and  O_29
REMARK    8  A    between atoms: O_29  and  C_30
REMARK    9  A    between atoms: C_33  and  O_36
REMARK   10  A    between atoms: O_36  and  C_37
REMARK                            x       y       z     vdW  Elec       q    Type
REMARK                         _______ _______ _______ _____ _____    ______ ____
ROOT
ATOM      1  C   UNL     1       0.050  -2.816   2.414  0.00  0.00    +0.251 C 
ATOM      2  O   UNL     1       1.113  -3.115   2.922  0.00  0.00    -0.270 OA
ATOM      3  N   UNL     1      -1.105  -3.183   3.003  0.00  0.00    -0.296 N 
ATOM      4  C   UNL     1      -2.487  -2.920   2.536  0.00  0.00    +0.121 C 
ATOM      5  C   UNL     1      -3.259  -4.222   2.848  0.00  0.00    +0.100 C 
ATOM      6  C   UNL     1      -2.464  -4.887   3.984  0.00  0.00    -0.004 C 
ATOM      7  C   UNL     1      -1.281  -3.948   4.261  0.00  0.00    +0.115 C 
ATOM      8  C   UNL     1      -3.335  -5.023   5.229  0.00  0.00    -0.010 C 
ATOM      9  C   UNL     1      -2.542  -5.739   6.326  0.00  0.00    -0.082 C 
ATOM     10  N   UNL     1      -2.127  -7.063   5.847  0.00  0.00    +0.379 N 
ATOM     11  C   UNL     1      -1.215  -6.920   4.706  0.00  0.00    -0.082 C 
ATOM     12  C   UNL     1      -1.953  -6.254   3.541  0.00  0.00    -0.010 C 
ATOM     13  H   UNL     1      -1.658  -7.556   6.592  0.00  0.00    -0.086 HD
ATOM     14  H   UNL     1      -2.942  -7.586   5.562  0.00  0.00    -0.086 HD
ENDROOT
BRANCH   1  20
ATOM     15  C   UNL     1      -0.048   1.562   0.014  0.00  0.00    +0.047 C 
ATOM     16  C   UNL     1      -0.023   0.056  -0.010  0.00  0.00    -0.014 A 
ATOM     17  C   UNL     1      -0.025  -0.615  -1.219  0.00  0.00    +0.007 A 
ATOM     18  C   UNL     1      -0.004  -1.998  -1.252  0.00  0.00    +0.021 A 
ATOM     19  C   UNL     1       0.021  -2.720  -0.075  0.00  0.00    +0.056 A 
ATOM     20  C   UNL     1       0.024  -2.051   1.152  0.00  0.00    +0.091 A 
ATOM     21  C   UNL     1       0.007  -0.652   1.177  0.00  0.00    +0.140 A 
ATOM     22  F   UNL     1       0.015   0.004   2.358  0.00  0.00    -0.204 F 
ATOM     23 CL   UNL     1       0.048  -4.455  -0.120  0.00  0.00    -0.083 Cl
ENDBRANCH   1  20
BRANCH   5  24
ATOM     24  C   UNL     1      -4.661  -3.905   3.301  0.00  0.00    +0.218 C 
ATOM     25  O   UNL     1      -4.875  -2.907   3.958  0.00  0.00    -0.275 OA
ATOM     26  N   UNL     1      -5.677  -4.729   2.977  0.00  0.00    -0.312 N 
ATOM     27  H   UNL     1      -5.506  -5.526   2.451  0.00  0.00    +0.149 HD
BRANCH  26  28
ATOM     28  C   UNL     1      -7.040  -4.420   3.417  0.00  0.00    +0.148 C 
BRANCH  28  29
ATOM     29  C   UNL     1      -7.995  -5.507   2.919  0.00  0.00    +0.187 C 
ATOM     30  C   UNL     1      -9.418  -5.184   3.379  0.00  0.00    +0.053 C 
BRANCH  29  31
ATOM     31  O   UNL     1      -7.956  -5.558   1.492  0.00  0.00    -0.488 OA
BRANCH  31  32
ATOM     32  C   UNL     1      -8.299  -6.736   0.906  0.00  0.00    +0.121 A 
ATOM     33  C   UNL     1      -8.168  -6.893  -0.465  0.00  0.00    +0.049 A 
ATOM     34  C   UNL     1      -8.516  -8.090  -1.060  0.00  0.00    +0.049 A 
ATOM     35  C   UNL     1      -8.997  -9.135  -0.285  0.00  0.00    +0.120 A 
ATOM     36  C   UNL     1      -9.128  -8.978   1.087  0.00  0.00    +0.049 A 
ATOM     37  C   UNL     1      -8.775  -7.783   1.682  0.00  0.00    +0.049 A 
BRANCH  35  38
ATOM     38  O   UNL     1      -9.341 -10.313  -0.871  0.00  0.00    -0.495 OA
ATOM     39  C   UNL     1      -9.829 -11.346  -0.012  0.00  0.00    +0.277 C 
ENDBRANCH  35  38
ENDBRANCH  31  32
ENDBRANCH  29  31
ENDBRANCH  28  29
ENDBRANCH  26  28
ENDBRANCH   5  24
TORSDOF 7
