REMARK  Name = ZINC00804104
REMARK  8 active torsions:
REMARK  status: ('A' for Active; 'I' for Inactive)
REMARK    1  A    between atoms: C_1  and  C_2
REMARK    2  A    between atoms: C_2  and  N_3
REMARK    3  A    between atoms: N_3  and  C_4
REMARK    4  A    between atoms: N_3  and  C_6
REMARK    5  A    between atoms: C_4  and  C_5
REMARK    6  A    between atoms: C_13  and  N_25
REMARK    7  A    between atoms: C_14  and  C_23
REMARK    8  A    between atoms: C_15  and  C_17
REMARK                            x       y       z     vdW  Elec       q    Type
REMARK                         _______ _______ _______ _____ _____    ______ ____
ROOT
ATOM      1  C   UNL     1       1.179   1.785   0.000  0.00  0.00    +0.033 A 
ATOM      2  C   UNL     1       1.157   3.175   0.008  0.00  0.00    +0.023 A 
ATOM      3  C   UNL     1      -0.049   3.845   0.022  0.00  0.00    +0.010 A 
ATOM      4  C   UNL     1      -1.240   3.139   0.029  0.00  0.00    +0.008 A 
ATOM      5  C   UNL     1      -1.225   1.753   0.017  0.00  0.00    +0.136 A 
ATOM      6  C   UNL     1      -0.013   1.076   0.008  0.00  0.00    +0.069 A 
ATOM      7  O   UNL     1      -2.381   1.045   0.031  0.00  0.00    -0.441 OA
ATOM      8  C   UNL     1      -3.523   1.631   0.429  0.00  0.00    +0.199 C 
ATOM      9  C   UNL     1      -3.665   2.978   0.457  0.00  0.00    +0.098 C 
ATOM     10  C   UNL     1      -2.545   3.890   0.044  0.00  0.00    +0.098 C 
ENDROOT
BRANCH  10  11
ATOM     11  C   UNL     1      -2.827   4.429  -1.335  0.00  0.00    -0.035 A 
ATOM     12  C   UNL     1      -2.945   3.561  -2.405  0.00  0.00    +0.004 A 
ATOM     13  C   UNL     1      -3.208   4.055  -3.669  0.00  0.00    +0.000 A 
ATOM     14  C   UNL     1      -3.344   5.416  -3.865  0.00  0.00    +0.000 A 
ATOM     15  C   UNL     1      -3.220   6.284  -2.796  0.00  0.00    +0.000 A 
ATOM     16  C   UNL     1      -2.961   5.790  -1.531  0.00  0.00    +0.004 A 
ENDBRANCH  10  11
BRANCH   8  17
ATOM     17  N   UNL     1      -4.576   0.842   0.817  0.00  0.00    -0.328 N 
ATOM     18  H   UNL     1      -5.407   1.250   1.106  0.00  0.00    +0.145 HD
ATOM     19  H   UNL     1      -4.490  -0.124   0.801  0.00  0.00    +0.145 HD
ENDBRANCH   8  17
BRANCH   9  20
ATOM     20  C   UNL     1      -4.907   3.543   0.891  0.00  0.00    +0.101 C 
ATOM     21  N   UNL     1      -5.893   3.991   1.234  0.00  0.00    -0.191 NA
ENDBRANCH   9  20
BRANCH   1  22
ATOM     22  N   UNL     1       2.399   1.105  -0.014  0.00  0.00    -0.330 N 
BRANCH  22  24
ATOM     23  C   UNL     1       4.108   2.110   1.418  0.00  0.00    +0.024 C 
ATOM     24  C   UNL     1       3.657   1.855  -0.022  0.00  0.00    +0.102 C 
ENDBRANCH  22  24
BRANCH  22  25
ATOM     25  C   UNL     1       2.420  -0.360  -0.021  0.00  0.00    +0.102 C 
ATOM     26  C   UNL     1       2.414  -0.863  -1.466  0.00  0.00    +0.024 C 
ENDBRANCH  22  25
ENDBRANCH   1  22
TORSDOF 6
