REMARK  Name = ZINC39296088
REMARK  7 active torsions:
REMARK  status: ('A' for Active; 'I' for Inactive)
REMARK    1  A    between atoms: C_1  and  C_2
REMARK    2  A    between atoms: C_2  and  C_3
REMARK    3  A    between atoms: C_2  and  C_4
REMARK    4  A    between atoms: C_2  and  N_5
REMARK    5  A    between atoms: N_5  and  S_6
REMARK    6  A    between atoms: S_6  and  C_9
REMARK    7  A    between atoms: C_13  and  C_14
REMARK                            x       y       z     vdW  Elec       q    Type
REMARK                         _______ _______ _______ _____ _____    ______ ____
ROOT
ATOM      1  S   UNL     1       2.120  -0.247  -1.877  0.00  0.00    +0.060 S 
ATOM      2  O   UNL     1       2.445  -0.913  -3.090  0.00  0.00    -0.153 OA
ATOM      3  O   UNL     1       2.188   1.166  -1.742  0.00  0.00    -0.153 OA
ENDROOT
BRANCH   1   4
ATOM      4  C   UNL     1       3.171  -0.923  -0.635  0.00  0.00    +0.128 A 
ATOM      5  C   UNL     1       3.914  -0.130   0.202  0.00  0.00    +0.057 A 
ATOM      6  C   UNL     1       4.705  -0.718   1.139  0.00  0.00    +0.081 A 
ATOM      7  S   UNL     1       4.462  -2.364   0.910  0.00  0.00    -0.068 S 
ATOM      8  C   UNL     1       3.296  -2.293  -0.437  0.00  0.00    +0.128 A 
ATOM      9 CL   UNL     1       5.731   0.057   2.305  0.00  0.00    -0.076 Cl
BRANCH   8  10
ATOM     10  C   UNL     1       2.663  -3.356  -1.127  0.00  0.00    +0.395 C 
ATOM     11  O   UNL     1       1.937  -3.118  -2.084  0.00  0.00    -0.240 OA
ATOM     12  O   UNL     1       2.843  -4.513  -0.766  0.00  0.00    -0.240 OA
ENDBRANCH   8  10
ENDBRANCH   1   4
BRANCH   1  13
ATOM     13  N   UNL     1       0.569  -0.685  -1.498  0.00  0.00    -0.185 NA
ATOM     14  H   UNL     1       0.084  -1.299  -2.071  0.00  0.00    +0.149 HD
BRANCH  13  16
ATOM     15  C   UNL     1      -0.258   1.365  -0.451  0.00  0.00    +0.029 C 
ATOM     16  C   UNL     1      -0.071  -0.145  -0.295  0.00  0.00    +0.032 C 
ATOM     17  C   UNL     1       0.811  -0.427   0.922  0.00  0.00    +0.029 C 
ATOM     18  C   UNL     1      -1.435  -0.810  -0.102  0.00  0.00    +0.029 C 
ENDBRANCH  13  16
ENDBRANCH   1  13
TORSDOF 4
