REMARK  Name = ZINC39666663
REMARK  9 active torsions:
REMARK  status: ('A' for Active; 'I' for Inactive)
REMARK    1  A    between atoms: C_1  and  C_2
REMARK    2  A    between atoms: C_4  and  C_8
REMARK    3  A    between atoms: N_6  and  C_7
REMARK    4  A    between atoms: C_12  and  C_21
REMARK    5  A    between atoms: N_23  and  C_24
REMARK    6  A    between atoms: C_24  and  C_25
REMARK    7  A    between atoms: C_25  and  C_27
REMARK    8  A    between atoms: C_25  and  O_28
REMARK    9  A    between atoms: O_28  and  C_29
REMARK                            x       y       z     vdW  Elec       q    Type
REMARK                         _______ _______ _______ _____ _____    ______ ____
ROOT
ATOM      1  C   UNL     1       1.161  -5.229  -2.652  0.00  0.00    +0.267 C 
ATOM      2  O   UNL     1       1.238  -5.519  -3.830  0.00  0.00    -0.268 OA
ATOM      3  N   UNL     1       0.979  -6.197  -1.731  0.00  0.00    -0.295 N 
ATOM      4  C   UNL     1       0.856  -6.041  -0.262  0.00  0.00    +0.121 C 
ATOM      5  C   UNL     1      -0.239  -7.051   0.147  0.00  0.00    +0.100 C 
ATOM      6  C   UNL     1      -0.234  -8.110  -0.969  0.00  0.00    -0.004 C 
ATOM      7  C   UNL     1       0.848  -7.656  -1.959  0.00  0.00    +0.115 C 
ATOM      8  C   UNL     1      -1.591  -8.152  -1.663  0.00  0.00    -0.010 C 
ATOM      9  C   UNL     1      -1.579  -9.251  -2.730  0.00  0.00    -0.082 C 
ATOM     10  N   UNL     1      -1.288 -10.544  -2.100  0.00  0.00    +0.379 N 
ATOM     11  C   UNL     1       0.057 -10.525  -1.514  0.00  0.00    -0.082 C 
ATOM     12  C   UNL     1       0.115  -9.480  -0.396  0.00  0.00    -0.010 C 
ATOM     13  H   UNL     1      -1.967 -10.724  -1.375  0.00  0.00    -0.086 HD
ATOM     14  H   UNL     1      -1.341 -11.275  -2.794  0.00  0.00    -0.086 HD
ENDROOT
BRANCH   1  18
ATOM     15  C   UNL     1       1.682  -0.188  -2.660  0.00  0.00    +0.065 C 
ATOM     16  C   UNL     1       1.496  -1.626  -2.248  0.00  0.00    +0.037 A 
ATOM     17  C   UNL     1       1.460  -2.699  -3.073  0.00  0.00    +0.057 A 
ATOM     18  C   UNL     1       1.269  -3.818  -2.229  0.00  0.00    +0.147 A 
ATOM     19  N   UNL     1       1.204  -3.362  -0.994  0.00  0.00    -0.167 NA
ATOM     20  N   UNL     1       1.340  -2.085  -0.988  0.00  0.00    -0.271 N 
ATOM     21  C   UNL     1       1.324  -1.246   0.213  0.00  0.00    +0.172 C 
ENDBRANCH   1  18
BRANCH   5  22
ATOM     22  C   UNL     1       0.098  -7.682   1.474  0.00  0.00    +0.218 C 
ATOM     23  O   UNL     1       1.258  -7.842   1.791  0.00  0.00    -0.275 OA
ATOM     24  N   UNL     1      -0.888  -8.069   2.307  0.00  0.00    -0.312 N 
ATOM     25  H   UNL     1      -1.815  -7.941   2.052  0.00  0.00    +0.149 HD
BRANCH  24  26
ATOM     26  C   UNL     1      -0.560  -8.682   3.596  0.00  0.00    +0.148 C 
BRANCH  26  27
ATOM     27  C   UNL     1      -1.851  -9.024   4.341  0.00  0.00    +0.187 C 
ATOM     28  C   UNL     1      -1.510  -9.549   5.737  0.00  0.00    +0.053 C 
BRANCH  27  29
ATOM     29  O   UNL     1      -2.568 -10.027   3.617  0.00  0.00    -0.486 OA
BRANCH  29  30
ATOM     30  C   UNL     1      -3.913 -10.080   3.804  0.00  0.00    +0.139 A 
ATOM     31  C   UNL     1      -4.516  -9.263   4.749  0.00  0.00    +0.047 A 
ATOM     32  C   UNL     1      -5.884  -9.318   4.937  0.00  0.00    +0.004 A 
ATOM     33  C   UNL     1      -6.652 -10.188   4.185  0.00  0.00    +0.002 A 
ATOM     34  C   UNL     1      -6.054 -11.004   3.243  0.00  0.00    +0.023 A 
ATOM     35  C   UNL     1      -4.686 -10.948   3.046  0.00  0.00    +0.083 A 
ATOM     36 CL   UNL     1      -3.937 -11.968   1.858  0.00  0.00    -0.080 Cl
ENDBRANCH  29  30
ENDBRANCH  27  29
ENDBRANCH  26  27
ENDBRANCH  24  26
ENDBRANCH   5  22
TORSDOF 6
