REMARK  Name = ZINC39851622
REMARK  16 active torsions:
REMARK  status: ('A' for Active; 'I' for Inactive)
REMARK    1  A    between atoms: C_1  and  C_2
REMARK    2  A    between atoms: C_2  and  C_3
REMARK    3  A    between atoms: C_3  and  C_4
REMARK    4  A    between atoms: C_4  and  C_5
REMARK    5  A    between atoms: C_5  and  C_6
REMARK    6  A    between atoms: C_6  and  N_7
REMARK    7  A    between atoms: C_11  and  C_12
REMARK    8  A    between atoms: C_13  and  C_33
REMARK    9  A    between atoms: C_14  and  C_31
REMARK   10  A    between atoms: N_17  and  C_28
REMARK   11  A    between atoms: C_18  and  N_19
REMARK   12  A    between atoms: N_19  and  C_20
REMARK   13  A    between atoms: C_20  and  C_21
REMARK   14  A    between atoms: C_21  and  C_22
REMARK   15  A    between atoms: C_28  and  C_29
REMARK   16  A    between atoms: C_29  and  C_30
REMARK                            x       y       z     vdW  Elec       q    Type
REMARK                         _______ _______ _______ _____ _____    ______ ____
ROOT
ATOM      1  C   UNL     1       6.480  -5.304   3.886  0.00  0.00    +0.019 A 
ATOM      2  C   UNL     1       6.230  -4.738   2.625  0.00  0.00    -0.017 A 
ATOM      3  C   UNL     1       7.303  -4.490   1.774  0.00  0.00    +0.120 A 
ATOM      4  C   UNL     1       8.618  -4.811   2.198  0.00  0.00    +0.270 A 
ATOM      5  O   UNL     1       9.561  -4.596   1.457  0.00  0.00    -0.266 OA
ATOM      6  N   UNL     1       8.831  -5.352   3.411  0.00  0.00    -0.295 N 
ATOM      7  C   UNL     1       7.801  -5.599   4.261  0.00  0.00    +0.109 A 
ATOM      8  C   UNL     1       4.823  -4.407   2.200  0.00  0.00    +0.046 C 
ENDROOT
BRANCH   1  13
ATOM      9  N   UNL     1       5.482  -9.159   5.560  0.00  0.00    -0.255 N 
ATOM     10  C   UNL     1       5.854  -8.050   4.944  0.00  0.00    +0.258 C 
ATOM     11  O   UNL     1       6.740  -8.063   4.109  0.00  0.00    -0.269 OA
ATOM     12  C   UNL     1       5.184  -6.836   5.286  0.00  0.00    +0.077 C 
ATOM     13  C   UNL     1       5.374  -5.577   4.805  0.00  0.00    +0.032 C 
ATOM     14  S   UNL     1       4.028  -7.420   6.518  0.00  0.00    -0.061 S 
ATOM     15  C   UNL     1       4.495  -9.145   6.482  0.00  0.00    +0.121 C 
ATOM     16  S   UNL     1       3.854 -10.448   7.389  0.00  0.00    -0.027 S 
BRANCH   9  17
ATOM     17  C   UNL     1       6.147 -10.423   5.234  0.00  0.00    +0.115 C 
BRANCH  17  18
ATOM     18  C   UNL     1       5.406 -11.107   4.083  0.00  0.00    +0.019 C 
BRANCH  18  19
ATOM     19  C   UNL     1       6.100 -12.427   3.743  0.00  0.00    +0.002 C 
BRANCH  19  20
ATOM     20  C   UNL     1       5.359 -13.111   2.592  0.00  0.00    -0.000 C 
BRANCH  20  22
ATOM     21  C   UNL     1       5.312 -15.116   1.101  0.00  0.00    +0.004 C 
ATOM     22  C   UNL     1       6.053 -14.432   2.252  0.00  0.00    -0.003 C 
ENDBRANCH  20  22
ENDBRANCH  19  20
ENDBRANCH  18  19
ENDBRANCH  17  18
ENDBRANCH   9  17
ENDBRANCH   1  13
BRANCH   7  23
ATOM     23  N   UNL     1       8.052  -6.143   5.487  0.00  0.00    -0.330 N 
ATOM     24  H   UNL     1       8.149  -7.104   5.580  0.00  0.00    +0.147 HD
BRANCH  23  25
ATOM     25  C   UNL     1       8.173  -5.277   6.662  0.00  0.00    +0.107 C 
BRANCH  25  26
ATOM     26  C   UNL     1       8.577  -6.116   7.875  0.00  0.00    +0.054 C 
BRANCH  26  27
ATOM     27  C   UNL     1       8.702  -5.225   9.084  0.00  0.00    -0.046 A 
ATOM     28  C   UNL     1       9.913  -4.626   9.379  0.00  0.00    +0.004 A 
ATOM     29  C   UNL     1      10.028  -3.809  10.488  0.00  0.00    +0.000 A 
ATOM     30  C   UNL     1       8.932  -3.589  11.301  0.00  0.00    +0.000 A 
ATOM     31  C   UNL     1       7.721  -4.187  11.005  0.00  0.00    +0.000 A 
ATOM     32  C   UNL     1       7.605  -5.002   9.894  0.00  0.00    +0.004 A 
ENDBRANCH  26  27
ENDBRANCH  25  26
ENDBRANCH  23  25
ENDBRANCH   7  23
BRANCH   3  33
ATOM     33  C   UNL     1       7.082  -3.915   0.481  0.00  0.00    +0.105 C 
ATOM     34  N   UNL     1       6.906  -3.458  -0.544  0.00  0.00    -0.191 NA
ENDBRANCH   3  33
BRANCH   6  35
ATOM     35  C   UNL     1      10.199  -5.676   3.824  0.00  0.00    +0.126 C 
BRANCH  35  36
ATOM     36  C   UNL     1      10.865  -4.426   4.404  0.00  0.00    +0.018 C 
ATOM     37  C   UNL     1      12.331  -4.731   4.721  0.00  0.00    +0.005 C 
ENDBRANCH  35  36
ENDBRANCH   6  35
TORSDOF 13
