REMARK  Name = ZINC65132968
REMARK  8 active torsions:
REMARK  status: ('A' for Active; 'I' for Inactive)
REMARK    1  A    between atoms: C_1  and  C_2
REMARK    2  A    between atoms: C_2  and  C_3
REMARK    3  A    between atoms: C_2  and  C_4
REMARK    4  A    between atoms: C_4  and  C_5
REMARK    5  A    between atoms: C_5  and  N_6
REMARK    6  A    between atoms: N_9  and  N_10
REMARK    7  A    between atoms: C_11  and  C_13
REMARK    8  A    between atoms: C_13  and  C_19
REMARK                            x       y       z     vdW  Elec       q    Type
REMARK                         _______ _______ _______ _____ _____    ______ ____
ROOT
ATOM      1  N   UNL     1      -6.046  -1.626  -1.230  0.00  0.00    -0.232 N 
ATOM      2  C   UNL     1      -7.319  -2.066  -1.205  0.00  0.00    +0.240 C 
ATOM      3  O   UNL     1      -8.086  -1.755  -2.091  0.00  0.00    -0.273 OA
ATOM      4  H   UNL     1      -5.454  -1.812  -0.484  0.00  0.00    +0.173 HD
ENDROOT
BRANCH   1   8
ATOM      5  N   UNL     1      -3.481  -0.718  -1.322  0.00  0.00    -0.298 N 
ATOM      6  C   UNL     1      -4.304  -0.459  -2.357  0.00  0.00    +0.316 C 
ATOM      7  O   UNL     1      -3.897   0.172  -3.314  0.00  0.00    -0.251 OA
ATOM      8  N   UNL     1      -5.577  -0.899  -2.332  0.00  0.00    -0.218 N 
ATOM      9  H   UNL     1      -3.805  -1.221  -0.558  0.00  0.00    +0.150 HD
ATOM     10  H   UNL     1      -6.170  -0.713  -3.077  0.00  0.00    +0.174 HD
BRANCH   5  11
ATOM     11  C   UNL     1      -2.096  -0.240  -1.349  0.00  0.00    +0.106 C 
BRANCH  11  12
ATOM     12  C   UNL     1      -1.384  -0.665  -0.064  0.00  0.00    +0.022 C 
BRANCH  12  14
ATOM     13  C   UNL     1       0.073   1.364  -0.073  0.00  0.00    +0.007 C 
ATOM     14  C   UNL     1       0.062  -0.166  -0.092  0.00  0.00    -0.016 C 
ATOM     15  C   UNL     1       0.809  -0.696   1.133  0.00  0.00    +0.007 C 
ENDBRANCH  12  14
ENDBRANCH  11  12
ENDBRANCH   5  11
ENDBRANCH   1   8
BRANCH   2  16
ATOM     16  C   UNL     1      -7.791  -2.945  -0.075  0.00  0.00    +0.077 C 
ATOM     17  C   UNL     1      -9.209  -3.444  -0.371  0.00  0.00    +0.049 C 
ATOM     18  C   UNL     1      -9.184  -4.306  -1.635  0.00  0.00    +0.161 C 
ATOM     19  O   UNL     1      -8.271  -5.391  -1.453  0.00  0.00    -0.380 OA
ATOM     20  C   UNL     1      -6.921  -4.985  -1.219  0.00  0.00    +0.161 C 
ATOM     21  C   UNL     1      -6.855  -4.150   0.062  0.00  0.00    +0.049 C 
BRANCH  16  22
ATOM     22  C   UNL     1      -7.790  -2.157   1.210  0.00  0.00    -0.032 A 
ATOM     23  C   UNL     1      -6.929  -2.507   2.234  0.00  0.00    +0.006 A 
ATOM     24  C   UNL     1      -6.928  -1.785   3.413  0.00  0.00    +0.020 A 
ATOM     25  C   UNL     1      -7.788  -0.713   3.568  0.00  0.00    +0.041 A 
ATOM     26  C   UNL     1      -8.649  -0.363   2.543  0.00  0.00    +0.020 A 
ATOM     27  C   UNL     1      -8.646  -1.082   1.363  0.00  0.00    +0.006 A 
ATOM     28 CL   UNL     1      -7.787   0.194   5.049  0.00  0.00    -0.084 Cl
ENDBRANCH  16  22
ENDBRANCH   2  16
TORSDOF 6
