REMARK  Name = ZINC35276838
REMARK  3 active torsions:
REMARK  status: ('A' for Active; 'I' for Inactive)
REMARK    1  A    between atoms: C_6  and  C_7
REMARK    2  A    between atoms: C_9  and  N_20
REMARK    3  A    between atoms: N_10  and  C_12
REMARK                            x       y       z     vdW  Elec       q    Type
REMARK                         _______ _______ _______ _____ _____    ______ ____
ROOT
ATOM      1  C   UNL     1      -1.290  -0.757  -0.147  0.00  0.00    +0.095 A 
ATOM      2  C   UNL     1      -1.407  -2.160  -0.169  0.00  0.00    +0.073 A 
ATOM      3  C   UNL     1      -2.709  -2.473   0.068  0.00  0.00    +0.120 A 
ATOM      4  N   UNL     1      -3.390  -1.306   0.235  0.00  0.00    -0.216 N 
ATOM      5  N   UNL     1      -2.480  -0.250   0.101  0.00  0.00    -0.165 NA
ENDROOT
BRANCH   4   6
ATOM      6  C   UNL     1      -4.762  -1.183   0.499  0.00  0.00    +0.103 A 
ATOM      7  C   UNL     1      -5.351  -1.954   1.492  0.00  0.00    +0.033 A 
ATOM      8  C   UNL     1      -6.702  -1.832   1.752  0.00  0.00    +0.040 A 
ATOM      9  C   UNL     1      -7.470  -0.940   1.023  0.00  0.00    +0.126 A 
ATOM     10  C   UNL     1      -6.887  -0.168   0.032  0.00  0.00    +0.078 A 
ATOM     11  C   UNL     1      -5.534  -0.283  -0.228  0.00  0.00    +0.151 A 
ATOM     12  F   UNL     1      -4.963   0.473  -1.191  0.00  0.00    -0.203 F 
ATOM     13  F   UNL     1      -8.792  -0.822   1.279  0.00  0.00    -0.205 F 
ENDBRANCH   4   6
BRANCH   1  19
ATOM     14  C   UNL     1      -0.063   1.407  -0.304  0.00  0.00    +0.011 A 
ATOM     15  C   UNL     1       1.101   2.121  -0.502  0.00  0.00    +0.016 A 
ATOM     16  C   UNL     1       2.289   1.457  -0.754  0.00  0.00    +0.018 A 
ATOM     17  C   UNL     1       2.316   0.074  -0.810  0.00  0.00    +0.016 A 
ATOM     18  C   UNL     1       1.157  -0.649  -0.613  0.00  0.00    +0.011 A 
ATOM     19  C   UNL     1      -0.042   0.015  -0.359  0.00  0.00    +0.002 A 
ATOM     20 BR   UNL     1       3.880   2.442  -1.026  0.00  0.00    -0.050 Br
ENDBRANCH   1  19
BRANCH   3  21
ATOM     21  N   UNL     1      -3.248  -3.755   0.129  0.00  0.00    -0.343 N 
ATOM     22  H   UNL     1      -2.665  -4.529   0.083  0.00  0.00    +0.144 HD
ATOM     23  H   UNL     1      -4.207  -3.874   0.218  0.00  0.00    +0.144 HD
ENDBRANCH   3  21
TORSDOF 3
