REMARK  Name = ZINC06073297
REMARK  7 active torsions:
REMARK  status: ('A' for Active; 'I' for Inactive)
REMARK    1  A    between atoms: C_1  and  C_2
REMARK    2  A    between atoms: C_2  and  C_3
REMARK    3  A    between atoms: C_3  and  O_4
REMARK    4  A    between atoms: O_4  and  C_5
REMARK    5  A    between atoms: C_8  and  C_11
REMARK    6  A    between atoms: C_14  and  O_29
REMARK    7  A    between atoms: N_16  and  C_23
REMARK                            x       y       z     vdW  Elec       q    Type
REMARK                         _______ _______ _______ _____ _____    ______ ____
ROOT
ATOM      1  C   UNL     1       3.240  -4.426  -5.648  0.00  0.00    +0.115 C 
ATOM      2  C   UNL     1       4.396  -5.232  -5.145  0.00  0.00    +0.072 A 
ATOM      3  C   UNL     1       5.054  -4.924  -3.932  0.00  0.00    +0.238 A 
ATOM      4  N   UNL     1       6.013  -5.789  -3.745  0.00  0.00    -0.131 NA
ATOM      5  N   UNL     1       6.011  -6.679  -4.819  0.00  0.00    -0.244 N 
ATOM      6  C   UNL     1       5.002  -6.316  -5.679  0.00  0.00    +0.132 A 
ATOM      7  N   UNL     1       4.770  -7.018  -6.837  0.00  0.00    -0.270 N 
ATOM      8  C   UNL     1       3.892  -6.950  -7.792  0.00  0.00    +0.228 C 
ATOM      9  O   UNL     1       3.961  -7.840  -8.613  0.00  0.00    -0.275 OA
ATOM     10  C   UNL     1       2.822  -5.959  -8.037  0.00  0.00    +0.166 C 
ATOM     11  S   UNL     1       2.020  -5.408  -6.525  0.00  0.00    -0.138 S 
ATOM     12  H   UNL     1       5.413  -7.731  -6.974  0.00  0.00    +0.156 HD
ENDROOT
BRANCH   1  16
ATOM     13  C   UNL     1       1.341  -2.529  -2.322  0.00  0.00    +0.121 A 
ATOM     14  C   UNL     1       1.909  -1.762  -3.329  0.00  0.00    +0.046 A 
ATOM     15  C   UNL     1       2.522  -2.377  -4.403  0.00  0.00    +0.008 A 
ATOM     16  C   UNL     1       2.571  -3.757  -4.475  0.00  0.00    -0.030 A 
ATOM     17  C   UNL     1       2.006  -4.524  -3.473  0.00  0.00    +0.008 A 
ATOM     18  C   UNL     1       1.397  -3.914  -2.394  0.00  0.00    +0.046 A 
BRANCH  13  19
ATOM     19  O   UNL     1       0.738  -1.926  -1.265  0.00  0.00    -0.492 OA
BRANCH  19  20
ATOM     20  C   UNL     1       0.718  -0.497  -1.257  0.00  0.00    +0.229 C 
BRANCH  20  22
ATOM     21  C   UNL     1      -0.019   1.526   0.010  0.00  0.00    +0.007 C 
ATOM     22  C   UNL     1       0.002  -0.004   0.002  0.00  0.00    +0.038 C 
ENDBRANCH  20  22
ENDBRANCH  19  20
ENDBRANCH  13  19
ENDBRANCH   1  16
BRANCH   5  23
ATOM     23  C   UNL     1       6.926  -7.808  -4.999  0.00  0.00    +0.109 C 
ATOM     24  C   UNL     1       6.779  -8.777  -3.824  0.00  0.00    +0.027 C 
ATOM     25  C   UNL     1       7.736  -9.956  -4.012  0.00  0.00    +0.002 C 
ATOM     26  C   UNL     1       9.175  -9.441  -4.071  0.00  0.00    +0.000 C 
ATOM     27  C   UNL     1       9.322  -8.472  -5.246  0.00  0.00    +0.002 C 
ATOM     28  C   UNL     1       8.366  -7.293  -5.057  0.00  0.00    +0.027 C 
ENDBRANCH   5  23
BRANCH   3  29
ATOM     29  O   UNL     1       4.740  -3.896  -3.099  0.00  0.00    -0.491 OA
ATOM     30  H   UNL     1       4.090  -4.124  -2.421  0.00  0.00    +0.294 HD
ENDBRANCH   3  29
TORSDOF 6
