REMARK  Name = ZINC58444297
REMARK  4 active torsions:
REMARK  status: ('A' for Active; 'I' for Inactive)
REMARK    1  A    between atoms: C_8  and  C_10
REMARK    2  A    between atoms: C_10  and  N_11
REMARK    3  A    between atoms: N_14  and  S_17
REMARK    4  A    between atoms: S_17  and  C_20
REMARK                            x       y       z     vdW  Elec       q    Type
REMARK                         _______ _______ _______ _____ _____    ______ ____
ROOT
ATOM      1  N   UNL     1       3.301  -4.514  -1.439  0.00  0.00    -0.295 NA
ATOM      2  C   UNL     1       1.995  -4.552  -2.111  0.00  0.00    +0.102 C 
ATOM      3  C   UNL     1       2.198  -4.858  -3.598  0.00  0.00    +0.125 C 
ATOM      4  N   UNL     1       2.994  -6.090  -3.717  0.00  0.00    -0.174 NA
ATOM      5  C   UNL     1       4.253  -6.180  -2.961  0.00  0.00    +0.125 C 
ATOM      6  C   UNL     1       3.969  -5.821  -1.498  0.00  0.00    +0.102 C 
ENDROOT
BRANCH   4   7
ATOM      7  S   UNL     1       2.487  -7.340  -4.677  0.00  0.00    +0.061 S 
ATOM      8  O   UNL     1       3.104  -8.516  -4.171  0.00  0.00    -0.153 OA
ATOM      9  O   UNL     1       1.078  -7.212  -4.800  0.00  0.00    -0.153 OA
BRANCH   7  10
ATOM     10  C   UNL     1       3.160  -7.070  -6.283  0.00  0.00    +0.108 A 
ATOM     11  C   UNL     1       2.449  -6.331  -7.213  0.00  0.00    +0.030 A 
ATOM     12  C   UNL     1       2.968  -6.113  -8.474  0.00  0.00    +0.030 A 
ATOM     13  C   UNL     1       4.207  -6.638  -8.810  0.00  0.00    +0.067 A 
ATOM     14  C   UNL     1       4.924  -7.383  -7.873  0.00  0.00    +0.069 A 
ATOM     15  C   UNL     1       4.397  -7.591  -6.607  0.00  0.00    +0.056 A 
ATOM     16  N   UNL     1       6.111  -7.771  -8.489  0.00  0.00    -0.306 N 
ATOM     17  H   UNL     1       6.815  -8.301  -8.084  0.00  0.00    +0.170 HD
ATOM     18  C   UNL     1       6.116  -7.283  -9.744  0.00  0.00    +0.325 A 
ATOM     19  O   UNL     1       7.011  -7.440 -10.554  0.00  0.00    -0.247 OA
ATOM     20  N   UNL     1       4.980  -6.595  -9.968  0.00  0.00    -0.306 N 
ATOM     21  H   UNL     1       4.742  -6.146 -10.794  0.00  0.00    +0.170 HD
ENDBRANCH   7  10
ENDBRANCH   4   7
BRANCH   1  22
ATOM     22  C   UNL     1       3.166  -4.055  -0.050  0.00  0.00    +0.128 C 
BRANCH  22  30
ATOM     23  C   UNL     1      -0.016   1.355   0.009  0.00  0.00    +0.001 A 
ATOM     24  C   UNL     1       1.157   2.097   0.002  0.00  0.00    +0.001 A 
ATOM     25  C   UNL     1       2.374   1.445  -0.013  0.00  0.00    +0.016 A 
ATOM     26  C   UNL     1       2.406   0.067  -0.020  0.00  0.00    +0.021 A 
ATOM     27  C   UNL     1       1.228  -0.711  -0.013  0.00  0.00    +0.008 A 
ATOM     28  C   UNL     1       0.002  -0.004   0.002  0.00  0.00    +0.010 A 
ATOM     29  C   UNL     1       1.451  -2.150  -0.024  0.00  0.00    +0.060 A 
ATOM     30  C   UNL     1       2.707  -2.619  -0.038  0.00  0.00    +0.023 A 
ATOM     31  S   UNL     1       3.704  -1.142  -0.040  0.00  0.00    -0.090 S 
ATOM     32 CL   UNL     1       0.104  -3.245  -0.016  0.00  0.00    -0.082 Cl
ENDBRANCH  22  30
ENDBRANCH   1  22
TORSDOF 4
