REMARK  Name = ZINC34793641
REMARK  9 active torsions:
REMARK  status: ('A' for Active; 'I' for Inactive)
REMARK    1  A    between atoms: C_1  and  C_2
REMARK    2  A    between atoms: C_2  and  C_3
REMARK    3  A    between atoms: C_4  and  N_20
REMARK    4  A    between atoms: C_5  and  C_15
REMARK    5  A    between atoms: C_8  and  O_10
REMARK    6  A    between atoms: O_10  and  C_11
REMARK    7  A    between atoms: C_11  and  C_12
REMARK    8  A    between atoms: C_11  and  C_13
REMARK    9  A    between atoms: C_11  and  C_14
REMARK                            x       y       z     vdW  Elec       q    Type
REMARK                         _______ _______ _______ _____ _____    ______ ____
ROOT
ATOM      1  C   UNL     1      -1.412  -0.526   0.013  0.00  0.00    +0.072 A 
ATOM      2  C   UNL     1      -2.152  -0.803   1.110  0.00  0.00    +0.074 A 
ATOM      3  C   UNL     1      -3.416  -1.267   0.674  0.00  0.00    +0.115 A 
ATOM      4  N   UNL     1      -3.423  -1.264  -0.640  0.00  0.00    -0.159 NA
ATOM      5  N   UNL     1      -2.180  -0.799  -1.086  0.00  0.00    -0.167 N 
ATOM      6  C   UNL     1      -1.805  -0.648  -2.372  0.00  0.00    +0.437 C 
ATOM      7  O   UNL     1      -0.693  -0.236  -2.636  0.00  0.00    -0.221 OA
ENDROOT
BRANCH   3   8
ATOM      8  C   UNL     1      -4.538  -1.684   1.550  0.00  0.00    +0.011 A 
ATOM      9  C   UNL     1      -5.858  -1.442   1.179  0.00  0.00    +0.018 A 
ATOM     10  C   UNL     1      -6.854  -1.839   2.003  0.00  0.00    +0.046 A 
ATOM     11  S   UNL     1      -5.955  -2.579   3.355  0.00  0.00    -0.104 S 
ATOM     12  C   UNL     1      -4.301  -2.321   2.736  0.00  0.00    +0.055 A 
ENDBRANCH   3   8
BRANCH   2  13
ATOM     13  N   UNL     1      -1.739  -0.656   2.446  0.00  0.00    -0.355 N 
ATOM     14  H   UNL     1      -0.848  -0.329   2.645  0.00  0.00    +0.142 HD
ATOM     15  H   UNL     1      -2.345  -0.882   3.169  0.00  0.00    +0.142 HD
ENDBRANCH   2  13
BRANCH   1  17
ATOM     16  C   UNL     1      -0.019   1.526   0.010  0.00  0.00    +0.010 C 
ATOM     17  C   UNL     1       0.002  -0.004   0.002  0.00  0.00    +0.054 C 
ENDBRANCH   1  17
BRANCH   6  18
ATOM     18  O   UNL     1      -2.662  -0.955  -3.363  0.00  0.00    -0.441 OA
BRANCH  18  19
ATOM     19  C   UNL     1      -2.197  -0.771  -4.702  0.00  0.00    +0.107 C 
ATOM     20  C   UNL     1      -0.965  -1.646  -4.939  0.00  0.00    +0.055 C 
ATOM     21  C   UNL     1      -3.302  -1.169  -5.684  0.00  0.00    +0.055 C 
ATOM     22  C   UNL     1      -1.829   0.698  -4.917  0.00  0.00    +0.055 C 
ENDBRANCH  18  19
ENDBRANCH   6  18
TORSDOF 5
