REMARK  Name = ZINC33468328
REMARK  7 active torsions:
REMARK  status: ('A' for Active; 'I' for Inactive)
REMARK    1  A    between atoms: C_3  and  S_23
REMARK    2  A    between atoms: C_6  and  C_7
REMARK    3  A    between atoms: C_7  and  C_8
REMARK    4  A    between atoms: C_8  and  N_9
REMARK    5  A    between atoms: C_10  and  C_12
REMARK    6  A    between atoms: C_15  and  C_17
REMARK    7  A    between atoms: S_23  and  N_26
REMARK                            x       y       z     vdW  Elec       q    Type
REMARK                         _______ _______ _______ _____ _____    ______ ____
ROOT
ATOM      1  N   UNL     1      -3.118   3.063   7.351  0.00  0.00    -0.310 N 
ATOM      2  C   UNL     1      -2.631   2.802   8.580  0.00  0.00    +0.263 C 
ATOM      3  O   UNL     1      -1.562   2.233   8.703  0.00  0.00    -0.269 OA
ATOM      4  H   UNL     1      -4.084   3.578   7.241  0.00  0.00    +0.149 HD
ENDROOT
BRANCH   2   5
ATOM      5  C   UNL     1      -3.391   3.206   9.775  0.00  0.00    +0.133 A 
ATOM      6  C   UNL     1      -2.918   2.954  11.038  0.00  0.00    +0.079 A 
ATOM      7  S   UNL     1      -4.180   3.626  12.021  0.00  0.00    -0.081 S 
ATOM      8  C   UNL     1      -5.218   4.180  10.747  0.00  0.00    +0.065 A 
ATOM      9  N   UNL     1      -4.562   3.836   9.669  0.00  0.00    -0.241 NA
BRANCH   8  10
ATOM     10  C   UNL     1      -6.545   4.886  10.855  0.00  0.00    -0.015 C 
ATOM     11  C   UNL     1      -6.338   6.360  11.267  0.00  0.00    -0.011 C 
ATOM     12  C   UNL     1      -7.510   6.678  12.218  0.00  0.00    -0.020 C 
ATOM     13  C   UNL     1      -8.326   5.371  12.301  0.00  0.00    -0.082 C 
ATOM     14  N   UNL     1      -7.356   4.301  11.953  0.00  0.00    +0.385 N 
ATOM     15  H   UNL     1      -7.857   3.390  11.594  0.00  0.00    -0.085 HD
ATOM     16  H   UNL     1      -6.700   4.049  12.799  0.00  0.00    -0.085 HD
ENDBRANCH   8  10
ENDBRANCH   2   5
BRANCH   1  17
ATOM     17  C   UNL     1      -2.362   2.661   6.163  0.00  0.00    +0.109 C 
BRANCH  17  18
ATOM     18  C   UNL     1      -3.131   3.072   4.906  0.00  0.00    +0.054 C 
BRANCH  18  24
ATOM     19  C   UNL     1      -2.559   1.412   3.121  0.00  0.00    +0.005 A 
ATOM     20  C   UNL     1      -1.846   1.033   2.000  0.00  0.00    +0.029 A 
ATOM     21  C   UNL     1      -0.927   1.900   1.439  0.00  0.00    +0.105 A 
ATOM     22  C   UNL     1      -0.717   3.145   2.004  0.00  0.00    +0.029 A 
ATOM     23  C   UNL     1      -1.434   3.526   3.123  0.00  0.00    +0.005 A 
ATOM     24  C   UNL     1      -2.353   2.659   3.683  0.00  0.00    -0.046 A 
BRANCH  21  25
ATOM     25  S   UNL     1      -0.017   1.417   0.010  0.00  0.00    +0.056 S 
ATOM     26  O   UNL     1       0.002  -0.004   0.002  0.00  0.00    -0.153 OA
ATOM     27  O   UNL     1       1.172   2.195   0.003  0.00  0.00    -0.153 OA
BRANCH  25  28
ATOM     28  N   UNL     1      -0.897   1.885  -1.312  0.00  0.00    -0.204 NA
ATOM     29  H   UNL     1      -0.361   1.601  -2.229  0.00  0.00    +0.144 HD
ATOM     30  H   UNL     1      -1.036   2.977  -1.292  0.00  0.00    +0.144 HD
ENDBRANCH  25  28
ENDBRANCH  21  25
ENDBRANCH  18  24
ENDBRANCH  17  18
ENDBRANCH   1  17
TORSDOF 7
