REMARK  Name = ZINC13499085
REMARK  14 active torsions:
REMARK  status: ('A' for Active; 'I' for Inactive)
REMARK    1  A    between atoms: C_1  and  C_2
REMARK    2  A    between atoms: C_4  and  C_35
REMARK    3  A    between atoms: C_7  and  C_14
REMARK    4  A    between atoms: C_14  and  N_72
REMARK    5  A    between atoms: C_15  and  C_16
REMARK    6  A    between atoms: C_15  and  N_72
REMARK    7  A    between atoms: C_16  and  C_17
REMARK    8  A    between atoms: C_17  and  O_18
REMARK    9  A    between atoms: C_19  and  C_21
REMARK   10  A    between atoms: C_19  and  C_32
REMARK   11  A    between atoms: C_19  and  N_72
REMARK   12  A    between atoms: N_25  and  C_26
REMARK   13  A    between atoms: C_32  and  C_33
REMARK   14  A    between atoms: C_32  and  C_34
REMARK                            x       y       z     vdW  Elec       q    Type
REMARK                         _______ _______ _______ _____ _____    ______ ____
ROOT
ATOM      1  N   UNL     1      -0.724   1.505   1.836  0.00  0.00    +0.389 N 
ATOM      2  H   UNL     1      -0.812   2.319   1.216  0.00  0.00    -0.080 HD
ENDROOT
BRANCH   1   3
ATOM      3  C   UNL     1      -2.067   1.122   2.318  0.00  0.00    -0.037 C 
BRANCH   3  10
ATOM      4  C   UNL     1      -6.858  -0.173  -3.926  0.00  0.00    +0.044 C 
ATOM      5  C   UNL     1      -5.913  -0.158  -2.752  0.00  0.00    -0.048 A 
ATOM      6  C   UNL     1      -5.336  -1.345  -2.320  0.00  0.00    +0.007 A 
ATOM      7  C   UNL     1      -4.477  -1.354  -1.258  0.00  0.00    -0.041 A 
ATOM      8  C   UNL     1      -4.176  -0.157  -0.600  0.00  0.00    +0.002 A 
ATOM      9  C   UNL     1      -3.260  -0.130   0.542  0.00  0.00    +0.017 A 
ATOM     10  C   UNL     1      -3.006   1.060   1.141  0.00  0.00    +0.001 A 
ATOM     11  C   UNL     1      -3.621   2.239   0.669  0.00  0.00    +0.251 A 
ATOM     12  O   UNL     1      -3.382   3.297   1.225  0.00  0.00    -0.268 OA
ATOM     13  N   UNL     1      -4.459   2.225  -0.382  0.00  0.00    -0.322 N 
ATOM     14  H   UNL     1      -4.862   3.055  -0.683  0.00  0.00    +0.169 HD
ATOM     15  C   UNL     1      -4.759   1.048  -1.035  0.00  0.00    +0.050 A 
ATOM     16  C   UNL     1      -5.631   1.033  -2.119  0.00  0.00    +0.029 A 
ATOM     17  C   UNL     1      -3.856  -2.647  -0.798  0.00  0.00    +0.044 C 
ENDBRANCH   3  10
ENDBRANCH   1   3
BRANCH   1  18
ATOM     18  C   UNL     1      -0.121   0.388   1.079  0.00  0.00    -0.075 C 
BRANCH  18  19
ATOM     19  C   UNL     1       1.065   0.924   0.274  0.00  0.00    +0.009 C 
BRANCH  19  20
ATOM     20  C   UNL     1       1.732  -0.229  -0.478  0.00  0.00    +0.154 C 
BRANCH  20  21
ATOM     21  O   UNL     1       2.840   0.271  -1.230  0.00  0.00    -0.395 OA
ATOM     22  H   UNL     1       3.312  -0.407  -1.734  0.00  0.00    +0.209 HD
ENDBRANCH  20  21
ENDBRANCH  19  20
ENDBRANCH  18  19
ENDBRANCH   1  18
BRANCH   1  23
ATOM     23  C   UNL     1       0.140   1.864   2.981  0.00  0.00    +0.006 C 
BRANCH  23  24
ATOM     24  C   UNL     1      -0.188   1.008   4.176  0.00  0.00    +0.139 A 
ATOM     25  N   UNL     1      -1.385   0.708   4.619  0.00  0.00    -0.115 NA
ATOM     26  N   UNL     1      -1.249  -0.043   5.657  0.00  0.00    -0.023 NA
ATOM     27  N   UNL     1       0.004  -0.229   5.889  0.00  0.00    -0.044 NA
ATOM     28  N   UNL     1       0.690   0.398   4.994  0.00  0.00    -0.228 N 
BRANCH  28  29
ATOM     29  C   UNL     1       2.151   0.442   4.890  0.00  0.00    +0.111 C 
ATOM     30  C   UNL     1       2.691  -0.977   4.705  0.00  0.00    +0.027 C 
ATOM     31  C   UNL     1       4.217  -0.932   4.596  0.00  0.00    +0.002 C 
ATOM     32  C   UNL     1       4.801  -0.326   5.873  0.00  0.00    +0.000 C 
ATOM     33  C   UNL     1       4.261   1.093   6.059  0.00  0.00    +0.002 C 
ATOM     34  C   UNL     1       2.735   1.048   6.168  0.00  0.00    +0.027 C 
ENDBRANCH  28  29
ENDBRANCH  23  24
BRANCH  23  35
ATOM     35  C   UNL     1      -0.095   3.336   3.327  0.00  0.00    -0.024 C 
ATOM     36  C   UNL     1       0.221   4.204   2.107  0.00  0.00    +0.006 C 
ATOM     37  C   UNL     1      -1.557   3.537   3.731  0.00  0.00    +0.006 C 
ENDBRANCH  23  35
ENDBRANCH   1  23
TORSDOF 10
