REMARK  Name = ZINC08324344
REMARK  2 active torsions:
REMARK  status: ('A' for Active; 'I' for Inactive)
REMARK    1  A    between atoms: N_11  and  C_12
REMARK    2  A    between atoms: N_15  and  C_18
REMARK                            x       y       z     vdW  Elec       q    Type
REMARK                         _______ _______ _______ _____ _____    ______ ____
ROOT
ATOM      1  C   UNL     1       3.532   7.966  -0.034  0.00  0.00    +0.095 C 
ATOM      2  C   UNL     1       2.933   7.363   1.240  0.00  0.00    +0.044 C 
ATOM      3  C   UNL     1       3.071   5.839   1.190  0.00  0.00    +0.107 C 
ATOM      4  N   UNL     1       2.371   5.322   0.007  0.00  0.00    -0.329 N 
ATOM      5  C   UNL     1       2.959   5.851  -1.231  0.00  0.00    +0.107 C 
ATOM      6  C   UNL     1       2.819   7.375  -1.253  0.00  0.00    +0.044 C 
ENDROOT
BRANCH   4   7
ATOM      7  C   UNL     1       2.364   3.936   0.000  0.00  0.00    +0.040 A 
ATOM      8  C   UNL     1       3.548   3.215  -0.015  0.00  0.00    +0.041 A 
ATOM      9  C   UNL     1       3.508   1.827  -0.021  0.00  0.00    +0.085 A 
ATOM     10  C   UNL     1       1.193   1.798   0.000  0.00  0.00    +0.050 A 
ATOM     11  C   UNL     1       1.148   3.212   0.008  0.00  0.00    +0.019 A 
ATOM     12  C   UNL     1      -0.091   3.868   0.022  0.00  0.00    +0.013 A 
ATOM     13  C   UNL     1      -1.240   3.137   0.029  0.00  0.00    +0.021 A 
ATOM     14  C   UNL     1      -1.200   1.744   0.017  0.00  0.00    +0.043 A 
ATOM     15  C   UNL     1      -0.013   1.076   0.008  0.00  0.00    +0.046 A 
ATOM     16 CL   UNL     1      -2.686   0.845   0.020  0.00  0.00    -0.083 Cl
ATOM     17  N   UNL     1       2.375   1.087  -0.015  0.00  0.00    -0.361 N 
ATOM     18  H   UNL     1       2.394   0.061  -0.021  0.00  0.00    +0.165 HD
ENDBRANCH   4   7
BRANCH   1  29
ATOM     19  C   UNL     1       5.913  12.669  -0.111  0.00  0.00    +0.002 A 
ATOM     20  C   UNL     1       6.520  11.425  -0.143  0.00  0.00    +0.002 A 
ATOM     21  C   UNL     1       5.755  10.276  -0.117  0.00  0.00    +0.028 A 
ATOM     22  C   UNL     1       4.373  10.368  -0.057  0.00  0.00    +0.070 A 
ATOM     23  C   UNL     1       3.760  11.622  -0.024  0.00  0.00    +0.067 A 
ATOM     24  C   UNL     1       4.537  12.770  -0.051  0.00  0.00    +0.028 A 
ATOM     25  N   UNL     1       2.387  11.398   0.034  0.00  0.00    -0.306 N 
ATOM     26  H   UNL     1       1.701  12.082   0.068  0.00  0.00    +0.170 HD
ATOM     27  C   UNL     1       2.174  10.068   0.032  0.00  0.00    +0.328 A 
ATOM     28  O   UNL     1       1.081   9.534   0.071  0.00  0.00    -0.247 OA
ATOM     29  N   UNL     1       3.353   9.420  -0.018  0.00  0.00    -0.289 N 
ENDBRANCH   1  29
TORSDOF 2
