REMARK  Name = ZINC15397507
REMARK  7 active torsions:
REMARK  status: ('A' for Active; 'I' for Inactive)
REMARK    1  A    between atoms: C_1  and  C_2
REMARK    2  A    between atoms: C_2  and  C_4
REMARK    3  A    between atoms: C_2  and  N_14
REMARK    4  A    between atoms: C_15  and  C_17
REMARK    5  A    between atoms: C_17  and  N_18
REMARK    6  A    between atoms: C_21  and  C_25
REMARK    7  A    between atoms: C_21  and  C_26
REMARK                            x       y       z     vdW  Elec       q    Type
REMARK                         _______ _______ _______ _____ _____    ______ ____
ROOT
ATOM      1  N   UNL     1      -0.150  -1.201   4.706  0.00  0.00    -0.215 N 
ATOM      2  C   UNL     1      -0.377  -0.185   5.562  0.00  0.00    +0.254 C 
ATOM      3  O   UNL     1       0.131   0.916   5.543  0.00  0.00    -0.272 OA
ATOM      4  C   UNL     1      -1.399  -0.705   6.553  0.00  0.00    +0.168 C 
ATOM      5  N   UNL     1      -1.654  -2.082   6.098  0.00  0.00    -0.279 N 
ATOM      6  C   UNL     1      -0.883  -2.277   5.013  0.00  0.00    +0.310 C 
ATOM      7  O   UNL     1      -0.854  -3.316   4.383  0.00  0.00    -0.252 OA
ATOM      8  C   UNL     1      -0.824  -0.704   7.971  0.00  0.00    +0.050 C 
ATOM      9  H   UNL     1      -2.261  -2.723   6.500  0.00  0.00    +0.152 HD
ENDROOT
BRANCH   4  10
ATOM     10  C   UNL     1      -2.662   0.116   6.492  0.00  0.00    +0.138 A 
ATOM     11  C   UNL     1      -3.890  -0.346   6.761  0.00  0.00    +0.056 A 
ATOM     12  C   UNL     1      -4.803   0.788   6.576  0.00  0.00    +0.020 A 
ATOM     13  C   UNL     1      -6.181   0.960   6.697  0.00  0.00    +0.011 A 
ATOM     14  C   UNL     1      -6.737   2.184   6.445  0.00  0.00    +0.001 A 
ATOM     15  C   UNL     1      -5.937   3.254   6.070  0.00  0.00    +0.004 A 
ATOM     16  C   UNL     1      -4.573   3.103   5.944  0.00  0.00    +0.047 A 
ATOM     17  C   UNL     1      -3.989   1.868   6.196  0.00  0.00    +0.135 A 
ATOM     18  O   UNL     1      -2.718   1.419   6.165  0.00  0.00    -0.457 OA
ENDBRANCH   4  10
BRANCH   1  19
ATOM     19  C   UNL     1       0.780  -1.133   3.576  0.00  0.00    +0.213 C 
BRANCH  19  21
ATOM     20  N   UNL     1       0.711  -0.489   1.189  0.00  0.00    -0.307 N 
ATOM     21  C   UNL     1       0.051  -0.633   2.355  0.00  0.00    +0.231 C 
ATOM     22  O   UNL     1      -1.129  -0.361   2.423  0.00  0.00    -0.274 OA
ATOM     23  H   UNL     1       1.654  -0.707   1.135  0.00  0.00    +0.149 HD
BRANCH  20  25
ATOM     24  C   UNL     1      -0.019   1.526   0.010  0.00  0.00    +0.033 C 
ATOM     25  C   UNL     1       0.002  -0.004   0.002  0.00  0.00    +0.100 C 
BRANCH  25  26
ATOM     26  C   UNL     1       0.707  -0.490  -1.238  0.00  0.00    -0.027 A 
ATOM     27  C   UNL     1       2.101  -0.506  -1.273  0.00  0.00    +0.006 A 
ATOM     28  C   UNL     1       2.769  -0.939  -2.377  0.00  0.00    +0.009 A 
ATOM     29  C   UNL     1       2.046  -1.377  -3.500  0.00  0.00    -0.018 A 
ATOM     30  C   UNL     1       2.700  -1.831  -4.658  0.00  0.00    +0.008 A 
ATOM     31  C   UNL     1       1.967  -2.247  -5.726  0.00  0.00    +0.001 A 
ATOM     32  C   UNL     1       0.574  -2.231  -5.691  0.00  0.00    +0.001 A 
ATOM     33  C   UNL     1      -0.094  -1.798  -4.587  0.00  0.00    +0.008 A 
ATOM     34  C   UNL     1       0.629  -1.360  -3.464  0.00  0.00    -0.018 A 
ATOM     35  C   UNL     1      -0.025  -0.911  -2.304  0.00  0.00    +0.014 A 
ENDBRANCH  25  26
ENDBRANCH  20  25
ENDBRANCH  19  21
ENDBRANCH   1  19
TORSDOF 5
