REMARK  Name = ZINC04142281
REMARK  16 active torsions:
REMARK  status: ('A' for Active; 'I' for Inactive)
REMARK    1  A    between atoms: C_1  and  C_2
REMARK    2  A    between atoms: C_5  and  N_9
REMARK    3  A    between atoms: C_7  and  C_8
REMARK    4  A    between atoms: N_9  and  C_10
REMARK    5  A    between atoms: N_9  and  N_23
REMARK    6  A    between atoms: C_10  and  C_11
REMARK    7  A    between atoms: C_11  and  C_13
REMARK    8  A    between atoms: C_11  and  O_22
REMARK    9  A    between atoms: C_13  and  C_15
REMARK   10  A    between atoms: C_13  and  O_21
REMARK   11  A    between atoms: C_15  and  C_17
REMARK   12  A    between atoms: C_15  and  O_20
REMARK   13  A    between atoms: C_17  and  O_18
REMARK   14  A    between atoms: C_17  and  O_19
REMARK   15  A    between atoms: N_24  and  C_25
REMARK   16  A    between atoms: C_28  and  N_31
REMARK                            x       y       z     vdW  Elec       q    Type
REMARK                         _______ _______ _______ _____ _____    ______ ____
ROOT
ATOM      1  N   UNL     1      -2.454   3.823   0.047  0.00  0.00    -0.204 N 
ENDROOT
BRANCH   1   6
ATOM      2  C   UNL     1       2.438   1.115  -0.901  0.00  0.00    +0.044 C 
ATOM      3  C   UNL     1       1.138   1.835  -0.649  0.00  0.00    -0.047 A 
ATOM      4  C   UNL     1       0.804   2.941  -1.409  0.00  0.00    +0.005 A 
ATOM      5  C   UNL     1      -0.384   3.606  -1.177  0.00  0.00    +0.025 A 
ATOM      6  C   UNL     1      -1.248   3.156  -0.186  0.00  0.00    +0.053 A 
ATOM      7  C   UNL     1      -0.909   2.045   0.575  0.00  0.00    +0.028 A 
ATOM      8  C   UNL     1       0.283   1.388   0.342  0.00  0.00    -0.046 A 
ATOM      9  C   UNL     1       0.653   0.183   1.167  0.00  0.00    +0.044 C 
ENDBRANCH   1   6
BRANCH   1  10
ATOM     10  N   UNL     1      -2.471   5.219   0.160  0.00  0.00    -0.074 NA
ATOM     11  N   UNL     1      -1.363   5.881   0.153  0.00  0.00    -0.134 NA
BRANCH  11  12
ATOM     12  C   UNL     1      -1.380   7.247   0.264  0.00  0.00    +0.088 A 
ATOM     13  C   UNL     1      -2.595   7.926   0.379  0.00  0.00    +0.032 A 
ATOM     14  C   UNL     1      -2.604   9.301   0.495  0.00  0.00    +0.035 A 
ATOM     15  C   UNL     1      -1.415  10.007   0.487  0.00  0.00    +0.126 A 
ATOM     16  C   UNL     1      -0.208   9.341   0.368  0.00  0.00    +0.035 A 
ATOM     17  C   UNL     1      -0.184   7.966   0.257  0.00  0.00    +0.032 A 
BRANCH  15  18
ATOM     18  N   UNL     1      -1.433  11.483   0.606  0.00  0.00    +0.056 N 
ATOM     19  O   UNL     1      -0.388  12.107   0.599  0.00  0.00    -0.126 OA
ATOM     20  O   UNL     1      -2.494  12.072   0.711  0.00  0.00    -0.126 OA
ENDBRANCH  15  18
ENDBRANCH  11  12
ENDBRANCH   1  10
BRANCH   1  21
ATOM     21  C   UNL     1      -3.699   3.062   0.173  0.00  0.00    +0.167 C 
BRANCH  21  22
ATOM     22  C   UNL     1      -4.282   2.803  -1.218  0.00  0.00    +0.165 C 
BRANCH  22  23
ATOM     23  O   UNL     1      -4.548   4.050  -1.863  0.00  0.00    -0.388 OA
ATOM     24  H   UNL     1      -5.178   4.611  -1.389  0.00  0.00    +0.210 HD
ENDBRANCH  22  23
BRANCH  22  25
ATOM     25  C   UNL     1      -5.582   2.008  -1.086  0.00  0.00    +0.178 C 
BRANCH  25  26
ATOM     26  O   UNL     1      -6.477   2.701  -0.214  0.00  0.00    -0.386 OA
ATOM     27  H   UNL     1      -6.714   3.588  -0.517  0.00  0.00    +0.210 HD
ENDBRANCH  25  26
BRANCH  25  28
ATOM     28  C   UNL     1      -6.229   1.856  -2.464  0.00  0.00    +0.201 C 
BRANCH  28  29
ATOM     29  O   UNL     1      -6.407   3.147  -3.052  0.00  0.00    -0.384 OA
ATOM     30  H   UNL     1      -6.970   3.740  -2.536  0.00  0.00    +0.210 HD
ENDBRANCH  28  29
BRANCH  28  31
ATOM     31  C   UNL     1      -7.589   1.172  -2.317  0.00  0.00    +0.276 C 
BRANCH  31  32
ATOM     32  O   UNL     1      -8.471   2.019  -1.577  0.00  0.00    -0.365 OA
ATOM     33  H   UNL     1      -8.628   2.879  -1.989  0.00  0.00    +0.213 HD
ENDBRANCH  31  32
BRANCH  31  34
ATOM     34  O   UNL     1      -8.141   0.925  -3.611  0.00  0.00    -0.365 OA
ATOM     35  H   UNL     1      -9.006   0.491  -3.594  0.00  0.00    +0.213 HD
ENDBRANCH  31  34
ENDBRANCH  28  31
ENDBRANCH  25  28
ENDBRANCH  22  25
ENDBRANCH  21  22
ENDBRANCH   1  21
TORSDOF 14
