REMARK  Name = ZINC37640030
REMARK  9 active torsions:
REMARK  status: ('A' for Active; 'I' for Inactive)
REMARK    1  A    between atoms: C_1  and  C_2
REMARK    2  A    between atoms: C_2  and  C_3
REMARK    3  A    between atoms: C_3  and  C_4
REMARK    4  A    between atoms: C_4  and  N_5
REMARK    5  A    between atoms: N_16  and  C_19
REMARK    6  A    between atoms: C_19  and  C_20
REMARK    7  A    between atoms: C_20  and  C_21
REMARK    8  A    between atoms: C_21  and  C_22
REMARK    9  A    between atoms: C_21  and  C_23
REMARK                            x       y       z     vdW  Elec       q    Type
REMARK                         _______ _______ _______ _____ _____    ______ ____
ROOT
ATOM      1  N   UNL     1      -2.787  -2.571   0.015  0.00  0.00    -0.287 N 
ATOM      2  C   UNL     1      -3.416  -2.807   1.211  0.00  0.00    +0.097 A 
ATOM      3  C   UNL     1      -4.720  -3.288   1.253  0.00  0.00    +0.074 A 
ATOM      4  C   UNL     1      -5.278  -3.500   2.597  0.00  0.00    -0.023 A 
ATOM      5  C   UNL     1      -4.446  -3.195   3.606  0.00  0.00    -0.004 A 
ATOM      6  S   UNL     1      -2.959  -2.645   2.808  0.00  0.00    -0.075 S 
ATOM      7  C   UNL     1      -5.082  -3.430   4.949  0.00  0.00    +0.043 C 
ATOM      8  C   UNL     1      -6.595  -3.526   4.653  0.00  0.00    +0.010 C 
ATOM      9  C   UNL     1      -6.599  -3.994   3.184  0.00  0.00    +0.037 C 
ATOM     10  C   UNL     1      -5.370  -3.522  -0.054  0.00  0.00    +0.265 A 
ATOM     11  O   UNL     1      -6.511  -3.942  -0.109  0.00  0.00    -0.267 OA
ATOM     12  N   UNL     1      -4.683  -3.264  -1.182  0.00  0.00    -0.260 N 
ATOM     13  C   UNL     1      -3.424  -2.795  -1.150  0.00  0.00    +0.333 A 
ATOM     14  O   UNL     1      -2.846  -2.573  -2.196  0.00  0.00    -0.246 OA
ENDROOT
BRANCH   1  15
ATOM     15  C   UNL     1      -1.413  -2.063   0.004  0.00  0.00    +0.127 C 
BRANCH  15  16
ATOM     16  C   UNL     1      -1.433  -0.534   0.013  0.00  0.00    +0.021 C 
BRANCH  16  18
ATOM     17  C   UNL     1      -0.019   1.526   0.010  0.00  0.00    +0.004 C 
ATOM     18  C   UNL     1       0.002  -0.004   0.002  0.00  0.00    -0.002 C 
ENDBRANCH  16  18
ENDBRANCH  15  16
ENDBRANCH   1  15
BRANCH  12  19
ATOM     19  C   UNL     1      -5.325  -3.495  -2.478  0.00  0.00    +0.130 C 
BRANCH  19  20
ATOM     20  C   UNL     1      -6.048  -2.222  -2.923  0.00  0.00    +0.025 C 
BRANCH  20  21
ATOM     21  C   UNL     1      -6.719  -2.464  -4.277  0.00  0.00    -0.016 C 
ATOM     22  C   UNL     1      -7.545  -1.235  -4.663  0.00  0.00    +0.007 C 
ATOM     23  C   UNL     1      -5.648  -2.714  -5.340  0.00  0.00    +0.007 C 
ENDBRANCH  20  21
ENDBRANCH  19  20
ENDBRANCH  12  19
TORSDOF 6
