REMARK  Name = ZINC09293065
REMARK  10 active torsions:
REMARK  status: ('A' for Active; 'I' for Inactive)
REMARK    1  A    between atoms: C_1  and  C_2
REMARK    2  A    between atoms: C_2  and  O_3
REMARK    3  A    between atoms: O_3  and  C_4
REMARK    4  A    between atoms: C_8  and  C_10
REMARK    5  A    between atoms: C_13  and  C_24
REMARK    6  A    between atoms: N_20  and  C_21
REMARK    7  A    between atoms: C_21  and  C_22
REMARK    8  A    between atoms: C_22  and  O_23
REMARK    9  A    between atoms: C_27  and  C_31
REMARK   10  A    between atoms: C_29  and  O_30
REMARK                            x       y       z     vdW  Elec       q    Type
REMARK                         _______ _______ _______ _____ _____    ______ ____
ROOT
ATOM      1  C   UNL     1      -3.845  -4.455  -0.166  0.00  0.00    +0.141 C 
ATOM      2  C   UNL     1      -4.538  -4.737  -1.471  0.00  0.00    +0.035 A 
ATOM      3  C   UNL     1      -5.011  -4.235  -2.688  0.00  0.00    +0.102 A 
ATOM      4  N   UNL     1      -5.555  -5.240  -3.344  0.00  0.00    -0.173 NA
ATOM      5  N   UNL     1      -5.473  -6.327  -2.663  0.00  0.00    -0.272 N 
ATOM      6  H   UNL     1      -5.806  -7.192  -2.950  0.00  0.00    +0.189 HD
ATOM      7  C   UNL     1      -4.844  -6.085  -1.474  0.00  0.00    +0.126 A 
ATOM      8  C   UNL     1      -4.372  -6.674  -0.217  0.00  0.00    +0.266 C 
ATOM      9  O   UNL     1      -4.490  -7.846   0.088  0.00  0.00    -0.268 OA
ATOM     10  N   UNL     1      -3.789  -5.735   0.552  0.00  0.00    -0.283 N 
ENDROOT
BRANCH   3  11
ATOM     11  C   UNL     1      -4.918  -2.829  -3.153  0.00  0.00    +0.045 A 
ATOM     12  C   UNL     1      -4.425  -1.842  -2.303  0.00  0.00    +0.034 A 
ATOM     13  C   UNL     1      -4.341  -0.535  -2.741  0.00  0.00    +0.045 A 
ATOM     14  C   UNL     1      -4.746  -0.202  -4.023  0.00  0.00    -0.029 A 
ATOM     15  C   UNL     1      -5.237  -1.175  -4.873  0.00  0.00    +0.050 A 
ATOM     16  C   UNL     1      -5.320  -2.491  -4.448  0.00  0.00    +0.126 A 
ATOM     17  C   UNL     1      -4.650   1.227  -4.493  0.00  0.00    +0.045 C 
ATOM     18 CL   UNL     1      -3.727   0.695  -1.681  0.00  0.00    -0.083 Cl
BRANCH  16  19
ATOM     19  O   UNL     1      -5.797  -3.449  -5.286  0.00  0.00    -0.506 OA
ATOM     20  H   UNL     1      -6.755  -3.575  -5.234  0.00  0.00    +0.292 HD
ENDBRANCH  16  19
ENDBRANCH   3  11
BRANCH   1  25
ATOM     21  C   UNL     1      -0.853  -2.156  -0.362  0.00  0.00    +0.121 A 
ATOM     22  C   UNL     1       0.112  -3.004  -0.887  0.00  0.00    +0.045 A 
ATOM     23  C   UNL     1      -0.209  -4.317  -1.176  0.00  0.00    +0.004 A 
ATOM     24  C   UNL     1      -1.488  -4.785  -0.942  0.00  0.00    +0.006 A 
ATOM     25  C   UNL     1      -2.451  -3.941  -0.419  0.00  0.00    -0.019 A 
ATOM     26  C   UNL     1      -2.134  -2.629  -0.123  0.00  0.00    +0.051 A 
BRANCH  21  27
ATOM     27  O   UNL     1      -0.540  -0.864  -0.077  0.00  0.00    -0.492 OA
BRANCH  27  29
ATOM     28  C   UNL     1       0.961   1.027   0.034  0.00  0.00    +0.048 C 
ATOM     29  C   UNL     1       0.799  -0.446  -0.349  0.00  0.00    +0.225 C 
ENDBRANCH  27  29
ENDBRANCH  21  27
ENDBRANCH   1  25
BRANCH  10  30
ATOM     30  C   UNL     1      -3.200  -5.952   1.876  0.00  0.00    +0.137 C 
BRANCH  30  31
ATOM     31  C   UNL     1      -4.269  -5.738   2.950  0.00  0.00    +0.175 C 
BRANCH  31  32
ATOM     32  O   UNL     1      -5.282  -6.737   2.820  0.00  0.00    -0.393 OA
ATOM     33  H   UNL     1      -5.994  -6.663   3.470  0.00  0.00    +0.209 HD
ENDBRANCH  31  32
ENDBRANCH  30  31
ENDBRANCH  10  30
TORSDOF 8
