REMARK  Name = ZINC22828329
REMARK  11 active torsions:
REMARK  status: ('A' for Active; 'I' for Inactive)
REMARK    1  A    between atoms: C_4  and  C_7
REMARK    2  A    between atoms: C_7  and  C_33
REMARK    3  A    between atoms: N_8  and  N_9
REMARK    4  A    between atoms: C_10  and  C_12
REMARK    5  A    between atoms: C_12  and  C_13
REMARK    6  A    between atoms: C_13  and  C_14
REMARK    7  A    between atoms: C_14  and  C_15
REMARK    8  A    between atoms: C_15  and  C_16
REMARK    9  A    between atoms: N_18  and  N_19
REMARK   10  A    between atoms: C_20  and  C_21
REMARK   11  A    between atoms: C_20  and  C_27
REMARK                            x       y       z     vdW  Elec       q    Type
REMARK                         _______ _______ _______ _____ _____    ______ ____
ROOT
ATOM      1  C   UNL     1       7.060   4.678  -3.219  0.00  0.00    +0.010 C 
ENDROOT
BRANCH   1   2
ATOM      2  C   UNL     1       5.640   4.350  -3.684  0.00  0.00    +0.097 C 
BRANCH   2   4
ATOM      3  N   UNL     1       4.428   2.411  -4.627  0.00  0.00    -0.206 N 
ATOM      4  C   UNL     1       5.586   2.923  -4.166  0.00  0.00    +0.232 C 
ATOM      5  O   UNL     1       6.586   2.236  -4.140  0.00  0.00    -0.274 OA
ATOM      6  H   UNL     1       3.629   2.960  -4.647  0.00  0.00    +0.177 HD
BRANCH   3   8
ATOM      7  C   UNL     1       3.248   0.577  -5.489  0.00  0.00    +0.114 C 
ATOM      8  N   UNL     1       4.378   1.084  -5.074  0.00  0.00    -0.178 NA
BRANCH   7  12
ATOM      9  C   UNL     1      -0.127   3.094  -6.066  0.00  0.00    +0.000 A 
ATOM     10  C   UNL     1       1.138   3.555  -6.384  0.00  0.00    +0.001 A 
ATOM     11  C   UNL     1       2.238   2.742  -6.200  0.00  0.00    +0.010 A 
ATOM     12  C   UNL     1       2.072   1.454  -5.690  0.00  0.00    +0.004 A 
ATOM     13  C   UNL     1       0.794   0.996  -5.370  0.00  0.00    +0.010 A 
ATOM     14  C   UNL     1      -0.298   1.818  -5.559  0.00  0.00    +0.001 A 
ENDBRANCH   7  12
BRANCH   7  15
ATOM     15  C   UNL     1       3.143  -0.875  -5.759  0.00  0.00    +0.091 A 
ATOM     16  N   UNL     1       2.037  -1.364  -6.308  0.00  0.00    -0.253 NA
ATOM     17  C   UNL     1       1.905  -2.649  -6.564  0.00  0.00    +0.111 A 
ATOM     18  C   UNL     1       2.919  -3.541  -6.267  0.00  0.00    +0.020 A 
ATOM     19  C   UNL     1       4.092  -3.072  -5.693  0.00  0.00    +0.004 A 
ATOM     20  C   UNL     1       4.208  -1.716  -5.440  0.00  0.00    +0.030 A 
ENDBRANCH   7  15
ENDBRANCH   3   8
ENDBRANCH   2   4
ENDBRANCH   1   2
BRANCH   1  21
ATOM     21  C   UNL     1       7.115   6.127  -2.730  0.00  0.00    +0.010 C 
BRANCH  21  22
ATOM     22  C   UNL     1       8.535   6.455  -2.264  0.00  0.00    +0.097 C 
BRANCH  22  23
ATOM     23  C   UNL     1       8.589   7.882  -1.782  0.00  0.00    +0.232 C 
ATOM     24  O   UNL     1       7.589   8.569  -1.808  0.00  0.00    -0.274 OA
ATOM     25  N   UNL     1       9.747   8.394  -1.322  0.00  0.00    -0.206 N 
ATOM     26  H   UNL     1      10.546   7.845  -1.301  0.00  0.00    +0.177 HD
BRANCH  25  27
ATOM     27  N   UNL     1       9.797   9.721  -0.874  0.00  0.00    -0.178 NA
ATOM     28  C   UNL     1      10.942  10.255  -0.542  0.00  0.00    +0.114 C 
BRANCH  28  29
ATOM     29  C   UNL     1      10.979  11.599   0.077  0.00  0.00    +0.091 A 
ATOM     30  N   UNL     1      12.148  12.191   0.297  0.00  0.00    -0.253 NA
ATOM     31  C   UNL     1      12.224  13.386   0.845  0.00  0.00    +0.111 A 
ATOM     32  C   UNL     1      11.081  14.073   1.214  0.00  0.00    +0.020 A 
ATOM     33  C   UNL     1       9.839  13.491   1.002  0.00  0.00    +0.004 A 
ATOM     34  C   UNL     1       9.787  12.237   0.419  0.00  0.00    +0.030 A 
ENDBRANCH  28  29
BRANCH  28  35
ATOM     35  C   UNL     1      12.202   9.517  -0.784  0.00  0.00    +0.004 A 
ATOM     36  C   UNL     1      12.384   8.814  -1.975  0.00  0.00    +0.010 A 
ATOM     37  C   UNL     1      13.560   8.127  -2.195  0.00  0.00    +0.001 A 
ATOM     38  C   UNL     1      14.558   8.135  -1.237  0.00  0.00    +0.000 A 
ATOM     39  C   UNL     1      14.384   8.829  -0.053  0.00  0.00    +0.001 A 
ATOM     40  C   UNL     1      13.214   9.525   0.176  0.00  0.00    +0.010 A 
ENDBRANCH  28  35
ENDBRANCH  25  27
ENDBRANCH  22  23
ENDBRANCH  21  22
ENDBRANCH   1  21
TORSDOF 11
