REMARK  Name = ZINC06935835
REMARK  5 active torsions:
REMARK  status: ('A' for Active; 'I' for Inactive)
REMARK    1  A    between atoms: C_1  and  C_2
REMARK    2  A    between atoms: C_2  and  O_3
REMARK    3  A    between atoms: O_3  and  C_4
REMARK    4  A    between atoms: C_11  and  C_20
REMARK    5  A    between atoms: C_24  and  N_26
REMARK                            x       y       z     vdW  Elec       q    Type
REMARK                         _______ _______ _______ _____ _____    ______ ____
ROOT
ATOM      1  C   UNL     1       5.510   1.269   1.984  0.00  0.00    +0.142 A 
ATOM      2  C   UNL     1       6.764   0.688   2.024  0.00  0.00    +0.047 A 
ATOM      3  C   UNL     1       7.215  -0.045   0.941  0.00  0.00    +0.004 A 
ATOM      4  C   UNL     1       6.414  -0.196  -0.172  0.00  0.00    +0.006 A 
ATOM      5  C   UNL     1       5.152   0.382  -0.224  0.00  0.00    -0.016 A 
ATOM      6  C   UNL     1       4.698   1.117   0.855  0.00  0.00    +0.074 A 
ATOM      7  N   UNL     1       3.440   1.726   0.866  0.00  0.00    -0.334 N 
ATOM      8  C   UNL     1       2.490   1.047  -0.016  0.00  0.00    +0.105 C 
ATOM      9  C   UNL     1       3.045   1.025  -1.442  0.00  0.00    +0.029 C 
ATOM     10  C   UNL     1       4.333   0.174  -1.463  0.00  0.00    +0.049 C 
ATOM     11  C   UNL     1       3.832  -1.250  -1.540  0.00  0.00    -0.023 C 
ATOM     12  C   UNL     1       2.606  -1.281  -1.998  0.00  0.00    -0.030 C 
ATOM     13  C   UNL     1       2.115   0.121  -2.300  0.00  0.00    +0.033 C 
ATOM     14  H   UNL     1       3.511   2.706   0.635  0.00  0.00    +0.147 HD
ENDROOT
BRANCH   8  15
ATOM     15  C   UNL     1       1.175   1.783   0.000  0.00  0.00    -0.025 A 
ATOM     16  C   UNL     1       1.157   3.166   0.008  0.00  0.00    +0.007 A 
ATOM     17  C   UNL     1      -0.048   3.841   0.023  0.00  0.00    +0.022 A 
ATOM     18  C   UNL     1      -1.238   3.134   0.030  0.00  0.00    +0.071 A 
ATOM     19  C   UNL     1      -1.219   1.750   0.017  0.00  0.00    +0.145 A 
ATOM     20  C   UNL     1      -0.013   1.076   0.008  0.00  0.00    +0.039 A 
ATOM     21 CL   UNL     1      -2.752   3.982   0.048  0.00  0.00    -0.081 Cl
BRANCH  19  22
ATOM     22  N   UNL     1      -2.491   0.993   0.019  0.00  0.00    +0.058 N 
ATOM     23  O   UNL     1      -2.474  -0.225   0.013  0.00  0.00    -0.126 OA
ATOM     24  O   UNL     1      -3.554   1.588   0.028  0.00  0.00    -0.126 OA
ENDBRANCH  19  22
ENDBRANCH   8  15
BRANCH   1  25
ATOM     25  O   UNL     1       5.064   1.992   3.046  0.00  0.00    -0.490 OA
BRANCH  25  27
ATOM     26  C   UNL     1       5.274   2.951   5.255  0.00  0.00    +0.048 C 
ATOM     27  C   UNL     1       5.944   2.109   4.166  0.00  0.00    +0.226 C 
ENDBRANCH  25  27
ENDBRANCH   1  25
TORSDOF 4
