REMARK  Name = ZINC36024474
REMARK  8 active torsions:
REMARK  status: ('A' for Active; 'I' for Inactive)
REMARK    1  A    between atoms: C_1  and  C_2
REMARK    2  A    between atoms: C_2  and  C_3
REMARK    3  A    between atoms: C_3  and  C_5
REMARK    4  A    between atoms: C_3  and  C_6
REMARK    5  A    between atoms: N_10  and  C_28
REMARK    6  A    between atoms: N_15  and  S_18
REMARK    7  A    between atoms: S_18  and  C_21
REMARK    8  A    between atoms: C_28  and  C_29
REMARK                            x       y       z     vdW  Elec       q    Type
REMARK                         _______ _______ _______ _____ _____    ______ ____
ROOT
ATOM      1  C   UNL     1       1.160  -2.352   2.093  0.00  0.00    +0.022 C 
ATOM      2  C   UNL     1      -0.293  -2.675   1.820  0.00  0.00    +0.201 C 
ATOM      3  O   UNL     1      -0.967  -2.208   0.926  0.00  0.00    -0.277 OA
ATOM      4  N   UNL     1      -0.712  -3.570   2.738  0.00  0.00    -0.309 N 
ATOM      5  C   UNL     1       0.393  -3.896   3.644  0.00  0.00    +0.006 C 
ATOM      6  N   UNL     1       1.402  -2.826   3.477  0.00  0.00    +0.401 N 
ATOM      7  C   UNL     1      -0.100  -3.921   5.090  0.00  0.00    +0.023 C 
ATOM      8  C   UNL     1      -1.170  -5.007   5.244  0.00  0.00    +0.109 C 
ATOM      9  N   UNL     1      -0.622  -6.282   4.760  0.00  0.00    -0.177 NA
ATOM     10  C   UNL     1      -0.056  -6.340   3.406  0.00  0.00    +0.109 C 
ATOM     11  C   UNL     1       1.005  -5.243   3.268  0.00  0.00    +0.023 C 
ATOM     12  H   UNL     1       2.335  -3.198   3.569  0.00  0.00    -0.082 HD
ATOM     13  H   UNL     1       1.246  -2.083   4.141  0.00  0.00    -0.082 HD
ENDROOT
BRANCH   9  14
ATOM     14  S   UNL     1      -0.643  -7.628   5.725  0.00  0.00    +0.061 S 
ATOM     15  O   UNL     1       0.395  -8.478   5.257  0.00  0.00    -0.153 OA
ATOM     16  O   UNL     1      -0.702  -7.165   7.067  0.00  0.00    -0.153 OA
BRANCH  14  17
ATOM     17  C   UNL     1      -2.160  -8.468   5.415  0.00  0.00    +0.107 A 
ATOM     18  C   UNL     1      -3.284  -8.162   6.160  0.00  0.00    +0.028 A 
ATOM     19  C   UNL     1      -4.475  -8.820   5.917  0.00  0.00    +0.003 A 
ATOM     20  C   UNL     1      -4.543  -9.786   4.930  0.00  0.00    +0.020 A 
ATOM     21  C   UNL     1      -3.419 -10.092   4.184  0.00  0.00    +0.043 A 
ATOM     22  C   UNL     1      -2.228  -9.428   4.423  0.00  0.00    +0.048 A 
ATOM     23 CL   UNL     1      -3.503 -11.304   2.944  0.00  0.00    -0.083 Cl
ENDBRANCH  14  17
ENDBRANCH   9  14
BRANCH   1  24
ATOM     24  C   UNL     1       1.398  -0.844   1.998  0.00  0.00    -0.020 C 
ATOM     25  C   UNL     1       2.854  -0.533   2.350  0.00  0.00    +0.006 C 
BRANCH  24  27
ATOM     26  C   UNL     1       1.222   1.154   0.508  0.00  0.00    +0.004 C 
ATOM     27  C   UNL     1       1.105  -0.370   0.573  0.00  0.00    -0.001 C 
ENDBRANCH  24  27
ENDBRANCH   1  24
BRANCH   4  28
ATOM     28  C   UNL     1      -2.064  -4.131   2.817  0.00  0.00    +0.141 C 
BRANCH  28  29
ATOM     29  C   UNL     1      -2.978  -3.143   3.494  0.00  0.00    -0.030 A 
ATOM     30  C   UNL     1      -2.813  -2.855   4.835  0.00  0.00    +0.008 A 
ATOM     31  C   UNL     1      -3.651  -1.949   5.457  0.00  0.00    +0.038 A 
ATOM     32  C   UNL     1      -4.657  -1.329   4.735  0.00  0.00    +0.123 A 
ATOM     33  C   UNL     1      -4.822  -1.618   3.391  0.00  0.00    +0.038 A 
ATOM     34  C   UNL     1      -3.979  -2.521   2.770  0.00  0.00    +0.008 A 
ATOM     35  F   UNL     1      -5.477  -0.443   5.341  0.00  0.00    -0.205 F 
ENDBRANCH  28  29
ENDBRANCH   4  28
TORSDOF 6
