REMARK  Name = ZINC36591099
REMARK  20 active torsions:
REMARK  status: ('A' for Active; 'I' for Inactive)
REMARK    1  A    between atoms: C_1  and  C_2
REMARK    2  A    between atoms: C_5  and  C_9
REMARK    3  A    between atoms: C_6  and  C_8
REMARK    4  A    between atoms: C_9  and  C_11
REMARK    5  A    between atoms: C_9  and  N_22
REMARK    6  A    between atoms: N_13  and  C_14
REMARK    7  A    between atoms: C_14  and  C_15
REMARK    8  A    between atoms: C_14  and  C_16
REMARK    9  A    between atoms: C_14  and  C_17
REMARK   10  A    between atoms: C_17  and  C_18
REMARK   11  A    between atoms: C_18  and  C_19
REMARK   12  A    between atoms: C_18  and  C_20
REMARK   13  A    between atoms: C_18  and  C_21
REMARK   14  A    between atoms: N_22  and  C_35
REMARK   15  A    between atoms: C_23  and  C_25
REMARK   16  A    between atoms: C_25  and  N_26
REMARK   17  A    between atoms: C_27  and  C_29
REMARK   18  A    between atoms: C_35  and  C_36
REMARK   19  A    between atoms: C_35  and  C_37
REMARK   20  A    between atoms: C_35  and  C_38
REMARK                            x       y       z     vdW  Elec       q    Type
REMARK                         _______ _______ _______ _____ _____    ______ ____
ROOT
ATOM      1  C   UNL     1      -2.035  -5.850   0.651  0.00  0.00    +0.193 C 
ENDROOT
BRANCH   1   6
ATOM      2  C   UNL     1      -0.410  -0.325   1.128  0.00  0.00    +0.044 C 
ATOM      3  C   UNL     1      -0.834  -1.766   1.003  0.00  0.00    -0.050 A 
ATOM      4  C   UNL     1      -2.176  -2.088   0.936  0.00  0.00    +0.004 A 
ATOM      5  C   UNL     1      -2.565  -3.409   0.822  0.00  0.00    +0.006 A 
ATOM      6  C   UNL     1      -1.611  -4.409   0.774  0.00  0.00    -0.015 A 
ATOM      7  C   UNL     1      -0.269  -4.087   0.841  0.00  0.00    -0.045 A 
ATOM      8  C   UNL     1       0.120  -2.765   0.951  0.00  0.00    +0.007 A 
ATOM      9  C   UNL     1       0.771  -5.177   0.790  0.00  0.00    +0.044 C 
ENDBRANCH   1   6
BRANCH   1  10
ATOM     10  C   UNL     1      -3.475  -5.988   1.073  0.00  0.00    +0.239 C 
ATOM     11  O   UNL     1      -4.290  -6.456   0.306  0.00  0.00    -0.273 OA
ATOM     12  N   UNL     1      -3.858  -5.591   2.303  0.00  0.00    -0.308 N 
ATOM     13  H   UNL     1      -3.225  -5.145   2.888  0.00  0.00    +0.149 HD
BRANCH  12  14
ATOM     14  C   UNL     1      -5.229  -5.833   2.757  0.00  0.00    +0.030 C 
ATOM     15  C   UNL     1      -6.194  -4.954   1.959  0.00  0.00    +0.031 C 
ATOM     16  C   UNL     1      -5.585  -7.306   2.542  0.00  0.00    +0.031 C 
BRANCH  14  17
ATOM     17  C   UNL     1      -5.342  -5.494   4.245  0.00  0.00    +0.031 C 
BRANCH  17  18
ATOM     18  C   UNL     1      -4.051  -5.899   4.960  0.00  0.00    -0.036 C 
ATOM     19  C   UNL     1      -3.048  -4.745   4.896  0.00  0.00    +0.010 C 
ATOM     20  C   UNL     1      -4.359  -6.227   6.422  0.00  0.00    +0.010 C 
ATOM     21  C   UNL     1      -3.455  -7.131   4.275  0.00  0.00    +0.010 C 
ENDBRANCH  17  18
ENDBRANCH  14  17
ENDBRANCH  12  14
ENDBRANCH   1  10
BRANCH   1  22
ATOM     22  N   UNL     1      -1.891  -6.284  -0.741  0.00  0.00    -0.280 N 
ATOM     23  C   UNL     1      -1.678  -5.374  -1.712  0.00  0.00    +0.234 C 
ATOM     24  O   UNL     1      -1.377  -4.236  -1.421  0.00  0.00    -0.274 OA
BRANCH  22  25
ATOM     25  C   UNL     1      -1.977  -7.707  -1.077  0.00  0.00    +0.030 C 
ATOM     26  C   UNL     1      -2.241  -8.516   0.195  0.00  0.00    +0.031 C 
ATOM     27  C   UNL     1      -3.121  -7.929  -2.069  0.00  0.00    +0.031 C 
ATOM     28  C   UNL     1      -0.660  -8.163  -1.707  0.00  0.00    +0.031 C 
ENDBRANCH  22  25
BRANCH  23  29
ATOM     29  C   UNL     1      -1.816  -5.771  -3.159  0.00  0.00    +0.200 C 
BRANCH  29  30
ATOM     30  N   UNL     1      -1.532  -4.613  -4.011  0.00  0.00    -0.303 N 
ATOM     31  C   UNL     1      -1.594  -4.733  -5.353  0.00  0.00    +0.244 C 
ATOM     32  O   UNL     1      -1.885  -5.801  -5.855  0.00  0.00    -0.270 OA
ATOM     33  H   UNL     1      -1.299  -3.761  -3.611  0.00  0.00    +0.150 HD
BRANCH  31  34
ATOM     34  C   UNL     1      -1.307  -3.565  -6.213  0.00  0.00    +0.037 A 
ATOM     35  C   UNL     1      -0.967  -2.339  -5.639  0.00  0.00    +0.013 A 
ATOM     36  C   UNL     1      -0.700  -1.253  -6.448  0.00  0.00    +0.001 A 
ATOM     37  C   UNL     1      -0.770  -1.378  -7.824  0.00  0.00    +0.000 A 
ATOM     38  C   UNL     1      -1.108  -2.590  -8.399  0.00  0.00    +0.001 A 
ATOM     39  C   UNL     1      -1.371  -3.685  -7.602  0.00  0.00    +0.013 A 
ENDBRANCH  31  34
ENDBRANCH  29  30
ENDBRANCH  23  29
ENDBRANCH   1  22
TORSDOF 10
