REMARK  Name = ZINC09971130
REMARK  4 active torsions:
REMARK  status: ('A' for Active; 'I' for Inactive)
REMARK    1  A    between atoms: C_1  and  C_2
REMARK    2  A    between atoms: C_3  and  C_25
REMARK    3  A    between atoms: C_4  and  C_18
REMARK    4  A    between atoms: N_27  and  C_28
REMARK                            x       y       z     vdW  Elec       q    Type
REMARK                         _______ _______ _______ _____ _____    ______ ____
ROOT
ATOM      1  C   UNL     1       3.879   0.317  -2.216  0.00  0.00    +0.061 C 
ATOM      2  C   UNL     1       3.104   1.083  -1.176  0.00  0.00    +0.018 C 
ATOM      3  C   UNL     1       3.581   2.248  -0.698  0.00  0.00    +0.058 C 
ATOM      4  C   UNL     1       2.829   3.021   0.347  0.00  0.00    +0.149 C 
ATOM      5  C   UNL     1       1.044   1.441  -0.046  0.00  0.00    +0.166 C 
ATOM      6  N   UNL     1       1.908   0.598  -0.710  0.00  0.00    -0.292 N 
ATOM      7  N   UNL     1      -0.279   1.077   0.095  0.00  0.00    -0.243 N 
ATOM      8  C   UNL     1      -1.158   1.913   0.752  0.00  0.00    +0.295 A 
ATOM      9  N   UNL     1      -0.841   3.064   1.287  0.00  0.00    -0.195 NA
ATOM     10  C   UNL     1      -1.956   3.610   1.844  0.00  0.00    +0.111 A 
ATOM     11  C   UNL     1      -2.208   4.797   2.532  0.00  0.00    +0.031 A 
ATOM     12  C   UNL     1      -3.479   5.066   2.988  0.00  0.00    +0.002 A 
ATOM     13  C   UNL     1      -4.509   4.165   2.767  0.00  0.00    +0.004 A 
ATOM     14  C   UNL     1      -4.274   2.987   2.088  0.00  0.00    +0.048 A 
ATOM     15  C   UNL     1      -3.001   2.700   1.622  0.00  0.00    +0.157 A 
ATOM     16  O   UNL     1      -2.465   1.661   0.942  0.00  0.00    -0.424 OA
ATOM     17  H   UNL     1       1.673  -0.333  -0.848  0.00  0.00    +0.154 HD
ATOM     18  H   UNL     1      -0.592   0.235  -0.271  0.00  0.00    +0.159 HD
ATOM     19  N   UNL     1       1.385   2.620   0.483  0.00  0.00    -0.350 N 
ATOM     20  H   UNL     1       0.699   3.220   0.957  0.00  0.00    +0.163 HD
ENDROOT
BRANCH   4  21
ATOM     21  C   UNL     1       2.843   4.483  -0.015  0.00  0.00    -0.020 A 
ATOM     22  C   UNL     1       2.009   4.956  -1.011  0.00  0.00    +0.009 A 
ATOM     23  C   UNL     1       2.016   6.298  -1.340  0.00  0.00    +0.039 A 
ATOM     24  C   UNL     1       2.868   7.168  -0.680  0.00  0.00    +0.123 A 
ATOM     25  C   UNL     1       3.706   6.692   0.314  0.00  0.00    +0.039 A 
ATOM     26  C   UNL     1       3.693   5.351   0.646  0.00  0.00    +0.009 A 
ATOM     27  F   UNL     1       2.880   8.479  -1.005  0.00  0.00    -0.205 F 
ENDBRANCH   4  21
BRANCH   3  28
ATOM     28  C   UNL     1       4.811   2.751  -1.188  0.00  0.00    +0.248 C 
ATOM     29  O   UNL     1       5.814   2.681  -0.502  0.00  0.00    -0.270 OA
ATOM     30  N   UNL     1       4.870   3.308  -2.414  0.00  0.00    -0.282 N 
ATOM     31  H   UNL     1       4.058   3.432  -2.930  0.00  0.00    +0.155 HD
BRANCH  30  32
ATOM     32  C   UNL     1       6.102   3.705  -2.943  0.00  0.00    +0.034 A 
ATOM     33  C   UNL     1       7.079   4.234  -2.109  0.00  0.00    +0.023 A 
ATOM     34  C   UNL     1       8.296   4.621  -2.633  0.00  0.00    +0.002 A 
ATOM     35  C   UNL     1       8.540   4.492  -3.989  0.00  0.00    +0.000 A 
ATOM     36  C   UNL     1       7.567   3.971  -4.822  0.00  0.00    +0.002 A 
ATOM     37  C   UNL     1       6.350   3.577  -4.304  0.00  0.00    +0.023 A 
ENDBRANCH  30  32
ENDBRANCH   3  28
TORSDOF 3
