REMARK  Name = ZINC39628440
REMARK  8 active torsions:
REMARK  status: ('A' for Active; 'I' for Inactive)
REMARK    1  A    between atoms: C_1  and  C_2
REMARK    2  A    between atoms: N_8  and  C_9
REMARK    3  A    between atoms: C_9  and  C_10
REMARK    4  A    between atoms: C_10  and  C_11
REMARK    5  A    between atoms: C_11  and  N_12
REMARK    6  A    between atoms: C_13  and  C_15
REMARK    7  A    between atoms: C_26  and  C_28
REMARK    8  A    between atoms: C_28  and  C_34
REMARK                            x       y       z     vdW  Elec       q    Type
REMARK                         _______ _______ _______ _____ _____    ______ ____
ROOT
ATOM      1  C   UNL     1       1.394  -0.172   8.524  0.00  0.00    +0.100 C 
ATOM      2  C   UNL     1       1.304  -1.699   8.742  0.00  0.00    +0.121 C 
ATOM      3  N   UNL     1       1.234  -1.864  10.213  0.00  0.00    -0.300 N 
ATOM      4  C   UNL     1       0.363  -0.754  10.667  0.00  0.00    +0.115 C 
ATOM      5  C   UNL     1       0.774   0.445   9.789  0.00  0.00    -0.004 C 
ATOM      6  C   UNL     1      -0.451   1.277   9.426  0.00  0.00    -0.010 C 
ATOM      7  C   UNL     1      -1.015   1.927  10.693  0.00  0.00    -0.082 C 
ATOM      8  N   UNL     1       0.013   2.776  11.309  0.00  0.00    +0.379 N 
ATOM      9  C   UNL     1       1.149   1.952  11.739  0.00  0.00    -0.082 C 
ATOM     10  C   UNL     1       1.804   1.303  10.517  0.00  0.00    -0.010 C 
ATOM     11  C   UNL     1       1.829  -2.809  10.967  0.00  0.00    +0.222 C 
ATOM     12  O   UNL     1       1.609  -2.862  12.158  0.00  0.00    -0.275 OA
ATOM     13  H   UNL     1       0.329   3.459  10.637  0.00  0.00    -0.086 HD
ATOM     14  H   UNL     1      -0.380   3.250  12.108  0.00  0.00    -0.086 HD
ENDROOT
BRANCH  11  15
ATOM     15  C   UNL     1       2.769  -3.801  10.330  0.00  0.00    +0.044 C 
ATOM     16  C   UNL     1       2.053  -4.517   9.183  0.00  0.00    +0.016 C 
ATOM     17  C   UNL     1       0.827  -5.253   9.727  0.00  0.00    +0.001 C 
ATOM     18  C   UNL     1       1.270  -6.279  10.771  0.00  0.00    +0.000 C 
ATOM     19  C   UNL     1       1.986  -5.563  11.918  0.00  0.00    +0.001 C 
ATOM     20  C   UNL     1       3.212  -4.827  11.374  0.00  0.00    +0.016 C 
ATOM     21  C   UNL     1       3.995  -3.065   9.786  0.00  0.00    +0.021 C 
ENDBRANCH  11  15
BRANCH   1  23
ATOM     22  N   UNL     1       0.867   1.402   6.690  0.00  0.00    -0.315 N 
ATOM     23  C   UNL     1       0.606   0.231   7.304  0.00  0.00    +0.218 C 
ATOM     24  O   UNL     1      -0.264  -0.497   6.875  0.00  0.00    -0.275 OA
ATOM     25  H   UNL     1       1.563   1.985   7.033  0.00  0.00    +0.149 HD
BRANCH  22  26
ATOM     26  C   UNL     1       0.101   1.794   5.504  0.00  0.00    +0.102 C 
BRANCH  26  27
ATOM     27  C   UNL     1       0.593   3.155   5.006  0.00  0.00    +0.000 C 
BRANCH  27  28
ATOM     28  C   UNL     1      -0.207   3.564   3.768  0.00  0.00    -0.077 C 
BRANCH  28  35
ATOM     29  C   UNL     1      -2.040   5.362   2.631  0.00  0.00    -0.013 C 
ATOM     30  C   UNL     1      -0.580   5.317   2.176  0.00  0.00    -0.072 C 
ATOM     31  C   UNL     1      -0.143   6.713   1.728  0.00  0.00    -0.016 C 
ATOM     32  C   UNL     1       1.318   6.664   1.273  0.00  0.00    -0.003 C 
ATOM     33  C   UNL     1       2.181   6.125   2.418  0.00  0.00    -0.019 C 
ATOM     34  C   UNL     1       1.658   4.751   2.841  0.00  0.00    -0.078 C 
ATOM     35  N   UNL     1       0.266   4.870   3.290  0.00  0.00    +0.381 N 
ATOM     36  H   UNL     1       0.212   5.541   4.042  0.00  0.00    -0.081 HD
ENDBRANCH  28  35
ENDBRANCH  27  28
ENDBRANCH  26  27
ENDBRANCH  22  26
ENDBRANCH   1  23
TORSDOF 6
