REMARK  Name = ZINC06144651
REMARK  9 active torsions:
REMARK  status: ('A' for Active; 'I' for Inactive)
REMARK    1  A    between atoms: C_1  and  C_2
REMARK    2  A    between atoms: C_3  and  C_35
REMARK    3  A    between atoms: C_5  and  N_27
REMARK    4  A    between atoms: C_6  and  C_7
REMARK    5  A    between atoms: C_7  and  C_9
REMARK    6  A    between atoms: C_7  and  N_66
REMARK    7  A    between atoms: C_17  and  C_20
REMARK    8  A    between atoms: C_20  and  C_21
REMARK    9  A    between atoms: C_28  and  C_30
REMARK                            x       y       z     vdW  Elec       q    Type
REMARK                         _______ _______ _______ _____ _____    ______ ____
ROOT
ATOM      1  C   UNL     1       2.491   1.514  -3.961  0.00  0.00    -0.003 C 
ENDROOT
BRANCH   1   7
ATOM      2  C   UNL     1       2.057  -0.238  -6.248  0.00  0.00    +0.045 C 
ATOM      3  C   UNL     1       1.246   1.022  -6.085  0.00  0.00    -0.037 A 
ATOM      4  C   UNL     1       0.305   1.355  -7.000  0.00  0.00    -0.008 A 
ATOM      5  S   UNL     1      -0.330   2.888  -6.340  0.00  0.00    -0.078 S 
ATOM      6  C   UNL     1       0.698   2.981  -4.883  0.00  0.00    +0.074 A 
ATOM      7  C   UNL     1       1.453   1.853  -5.000  0.00  0.00    -0.025 A 
ATOM      8  C   UNL     1      -0.101   0.623  -8.253  0.00  0.00    +0.052 C 
BRANCH   6   9
ATOM      9  N   UNL     1       0.722   3.956  -3.885  0.00  0.00    -0.273 N 
ATOM     10  C   UNL     1      -0.026   5.070  -4.013  0.00  0.00    +0.284 C 
ATOM     11  O   UNL     1      -0.722   5.226  -4.999  0.00  0.00    -0.266 OA
ATOM     12  H   UNL     1       1.277   3.833  -3.099  0.00  0.00    +0.156 HD
BRANCH  10  13
ATOM     13  C   UNL     1      -0.000   6.095  -2.965  0.00  0.00    +0.189 A 
ATOM     14  C   UNL     1      -0.705   7.265  -2.968  0.00  0.00    +0.054 A 
ATOM     15  C   UNL     1      -0.381   7.935  -1.778  0.00  0.00    +0.042 A 
ATOM     16  C   UNL     1       0.497   7.155  -1.109  0.00  0.00    +0.196 A 
ATOM     17  O   UNL     1       0.719   6.045  -1.824  0.00  0.00    -0.458 OA
ENDBRANCH  10  13
ENDBRANCH   6   9
ENDBRANCH   1   7
BRANCH   1  23
ATOM     18  C   UNL     1       2.882   1.327  -1.579  0.00  0.00    -0.077 C 
ATOM     19  C   UNL     1       2.341   1.728  -0.205  0.00  0.00    -0.015 C 
ATOM     20  C   UNL     1       0.975   1.071   0.012  0.00  0.00    -0.010 C 
ATOM     21  C   UNL     1       0.028   1.498  -1.113  0.00  0.00    -0.015 C 
ATOM     22  C   UNL     1       0.636   1.104  -2.461  0.00  0.00    -0.077 C 
ATOM     23  N   UNL     1       1.937   1.788  -2.619  0.00  0.00    +0.387 N 
ATOM     24  H   UNL     1       1.796   2.800  -2.517  0.00  0.00    -0.080 HD
BRANCH  20  25
ATOM     25  C   UNL     1       0.403   1.515   1.360  0.00  0.00    +0.038 C 
BRANCH  25  26
ATOM     26  C   UNL     1      -0.884   0.777   1.627  0.00  0.00    -0.047 A 
ATOM     27  C   UNL     1      -2.087   1.313   1.207  0.00  0.00    +0.003 A 
ATOM     28  C   UNL     1      -3.267   0.634   1.448  0.00  0.00    +0.000 A 
ATOM     29  C   UNL     1      -3.244  -0.576   2.117  0.00  0.00    +0.000 A 
ATOM     30  C   UNL     1      -2.042  -1.109   2.541  0.00  0.00    +0.000 A 
ATOM     31  C   UNL     1      -0.861  -0.432   2.296  0.00  0.00    +0.003 A 
ENDBRANCH  25  26
ENDBRANCH  20  25
ENDBRANCH   1  23
BRANCH   1  32
ATOM     32  C   UNL     1       3.709   2.377  -4.168  0.00  0.00    -0.038 A 
ATOM     33  C   UNL     1       4.774   1.917  -4.929  0.00  0.00    +0.005 A 
ATOM     34  C   UNL     1       5.872   2.746  -5.096  0.00  0.00    +0.020 A 
ATOM     35  C   UNL     1       5.873   3.991  -4.496  0.00  0.00    +0.111 A 
ATOM     36  N   UNL     1       4.845   4.394  -3.776  0.00  0.00    -0.263 NA
ATOM     37  C   UNL     1       3.782   3.633  -3.599  0.00  0.00    +0.113 A 
ENDBRANCH   1  32
TORSDOF 7
