REMARK  Name = ZINC51171191
REMARK  2 active torsions:
REMARK  status: ('A' for Active; 'I' for Inactive)
REMARK    1  A    between atoms: C_6  and  C_7
REMARK    2  A    between atoms: C_7  and  C_9
REMARK                            x       y       z     vdW  Elec       q    Type
REMARK                         _______ _______ _______ _____ _____    ______ ____
ROOT
ATOM      1  C   UNL     1      -0.003   1.376   0.210  0.00  0.00    +0.013 A 
ATOM      2  C   UNL     1       1.179   2.075   0.178  0.00  0.00    +0.026 A 
ATOM      3  C   UNL     1       2.392   1.427  -0.083  0.00  0.00    +0.055 A 
ATOM      4  C   UNL     1       2.402   0.058  -0.314  0.00  0.00    +0.056 A 
ATOM      5  C   UNL     1       1.205  -0.653  -0.283  0.00  0.00    +0.037 A 
ATOM      6  C   UNL     1       0.001  -0.002  -0.021  0.00  0.00    +0.025 A 
ATOM      7  N   UNL     1       3.557  -0.672  -0.582  0.00  0.00    -0.284 N 
ATOM      8  C   UNL     1       4.556  -0.282  -1.370  0.00  0.00    +0.226 C 
ATOM      9  O   UNL     1       5.494  -1.028  -1.555  0.00  0.00    -0.275 OA
ATOM     10  C   UNL     1       4.542   1.069  -2.037  0.00  0.00    +0.192 C 
ATOM     11  C   UNL     1       4.534   2.125  -0.962  0.00  0.00    +0.226 C 
ATOM     12  O   UNL     1       5.459   2.905  -0.888  0.00  0.00    -0.275 OA
ATOM     13  N   UNL     1       3.531   2.218  -0.093  0.00  0.00    -0.284 N 
ATOM     14  H   UNL     1       3.641  -1.540  -0.157  0.00  0.00    +0.155 HD
ATOM     15  H   UNL     1       3.604   2.898   0.595  0.00  0.00    +0.155 HD
ENDROOT
BRANCH   6  16
ATOM     16  C   UNL     1      -1.264  -0.765   0.010  0.00  0.00    +0.200 C 
ATOM     17  O   UNL     1      -1.245  -1.980  -0.069  0.00  0.00    -0.286 OA
BRANCH  16  18
ATOM     18  C   UNL     1      -2.540  -0.060   0.137  0.00  0.00    +0.061 A 
ATOM     19  C   UNL     1      -3.821  -0.584   0.265  0.00  0.00    +0.021 A 
ATOM     20  C   UNL     1      -4.833   0.337   0.366  0.00  0.00    +0.028 A 
ATOM     21  C   UNL     1      -4.528   1.661   0.335  0.00  0.00    +0.079 A 
ATOM     22  S   UNL     1      -2.856   1.694   0.174  0.00  0.00    -0.074 S 
ATOM     23 CL   UNL     1      -5.616   3.010   0.443  0.00  0.00    -0.076 Cl
ENDBRANCH  16  18
ENDBRANCH   6  16
TORSDOF 2
