REMARK  Name = ZINC01087524
REMARK  7 active torsions:
REMARK  status: ('A' for Active; 'I' for Inactive)
REMARK    1  A    between atoms: C_1  and  C_2
REMARK    2  A    between atoms: C_10  and  C_13
REMARK    3  A    between atoms: C_18  and  C_23
REMARK    4  A    between atoms: C_26  and  O_31
REMARK    5  A    between atoms: C_27  and  O_29
REMARK    6  A    between atoms: O_29  and  C_30
REMARK    7  A    between atoms: O_31  and  C_32
REMARK                            x       y       z     vdW  Elec       q    Type
REMARK                         _______ _______ _______ _____ _____    ______ ____
ROOT
ATOM      1  C   UNL     1      -5.715  -1.885  -0.074  0.00  0.00    +0.143 C 
ATOM      2  C   UNL     1      -4.452  -1.084   0.137  0.00  0.00    +0.037 C 
ATOM      3  C   UNL     1      -3.915  -0.757   1.324  0.00  0.00    +0.017 C 
ATOM      4  C   UNL     1      -2.635   0.059   1.393  0.00  0.00    +0.059 C 
ATOM      5  C   UNL     1      -2.566   1.021   0.208  0.00  0.00    +0.032 C 
ATOM      6  C   UNL     1      -2.596   0.183  -1.075  0.00  0.00    +0.088 C 
ATOM      7  C   UNL     1      -3.835  -0.661  -1.065  0.00  0.00    +0.163 C 
ATOM      8  O   UNL     1      -4.327  -0.994  -2.125  0.00  0.00    -0.292 OA
ATOM      9  N   UNL     1      -4.428  -1.113   2.530  0.00  0.00    -0.316 N 
ATOM     10  C   UNL     1      -5.766  -1.001   2.888  0.00  0.00    +0.052 A 
ATOM     11  C   UNL     1      -6.196  -0.150   3.892  0.00  0.00    +0.025 A 
ATOM     12  C   UNL     1      -7.538  -0.124   4.231  0.00  0.00    +0.002 A 
ATOM     13  C   UNL     1      -8.439  -0.943   3.575  0.00  0.00    +0.002 A 
ATOM     14  C   UNL     1      -8.014  -1.781   2.559  0.00  0.00    +0.025 A 
ATOM     15  C   UNL     1      -6.675  -1.794   2.203  0.00  0.00    +0.049 A 
ATOM     16  N   UNL     1      -6.218  -2.537   1.115  0.00  0.00    -0.331 N 
ATOM     17  H   UNL     1      -3.814  -1.472   3.190  0.00  0.00    +0.152 HD
ATOM     18  H   UNL     1      -6.239  -3.505   1.157  0.00  0.00    +0.147 HD
ENDROOT
BRANCH   1  28
ATOM     19  C   UNL     1     -12.288  -0.474  -3.480  0.00  0.00    +0.044 C 
ATOM     20  C   UNL     1     -11.021  -0.023  -2.799  0.00  0.00    -0.050 A 
ATOM     21  C   UNL     1     -10.777   1.332  -2.623  0.00  0.00    +0.007 A 
ATOM     22  C   UNL     1      -9.625   1.764  -2.001  0.00  0.00    +0.047 A 
ATOM     23  C   UNL     1      -8.695   0.838  -1.544  0.00  0.00    +0.138 A 
ATOM     24  C   UNL     1      -8.944  -0.532  -1.724  0.00  0.00    +0.065 A 
ATOM     25  C   UNL     1     -10.112  -0.957  -2.353  0.00  0.00    +0.018 A 
ATOM     26  C   UNL     1      -7.938  -1.495  -1.235  0.00  0.00    +0.198 A 
ATOM     27  O   UNL     1      -8.093  -2.698  -1.365  0.00  0.00    -0.287 OA
ATOM     28  C   UNL     1      -6.783  -0.963  -0.603  0.00  0.00    +0.059 A 
ATOM     29  C   UNL     1      -6.646   0.370  -0.483  0.00  0.00    +0.205 A 
ATOM     30  O   UNL     1      -7.560   1.236  -0.933  0.00  0.00    -0.462 OA
ENDBRANCH   1  28
BRANCH   5  31
ATOM     31  C   UNL     1      -1.287   1.816   0.270  0.00  0.00    -0.040 A 
ATOM     32  C   UNL     1      -0.069   1.163   0.273  0.00  0.00    +0.008 A 
ATOM     33  C   UNL     1       1.107   1.888   0.324  0.00  0.00    +0.049 A 
ATOM     34  C   UNL     1       1.067   3.272   0.376  0.00  0.00    +0.161 A 
ATOM     35  C   UNL     1      -0.160   3.929   0.378  0.00  0.00    +0.162 A 
ATOM     36  C   UNL     1      -1.335   3.196   0.327  0.00  0.00    +0.053 A 
BRANCH  35  37
ATOM     37  O   UNL     1      -0.205   5.287   0.430  0.00  0.00    -0.491 OA
ATOM     38  C   UNL     1      -1.499   5.894   0.429  0.00  0.00    +0.277 C 
ENDBRANCH  35  37
BRANCH  34  39
ATOM     39  O   UNL     1       2.223   3.986   0.426  0.00  0.00    -0.491 OA
ATOM     40  C   UNL     1       3.444   3.245   0.420  0.00  0.00    +0.277 C 
ENDBRANCH  34  39
ENDBRANCH   5  31
TORSDOF 4
