REMARK  Name = ZINC63137128
REMARK  10 active torsions:
REMARK  status: ('A' for Active; 'I' for Inactive)
REMARK    1  A    between atoms: C_1  and  O_2
REMARK    2  A    between atoms: O_2  and  C_3
REMARK    3  A    between atoms: C_6  and  C_9
REMARK    4  A    between atoms: C_9  and  C_10
REMARK    5  A    between atoms: C_10  and  N_11
REMARK    6  A    between atoms: C_31  and  C_33
REMARK    7  A    between atoms: C_37  and  O_41
REMARK    8  A    between atoms: C_38  and  O_39
REMARK    9  A    between atoms: O_39  and  C_40
REMARK   10  A    between atoms: O_41  and  C_42
REMARK                            x       y       z     vdW  Elec       q    Type
REMARK                         _______ _______ _______ _____ _____    ______ ____
ROOT
ATOM      1  N   UNL     1       5.151  -3.545  -5.141  0.00  0.00    -0.291 N 
ATOM      2  C   UNL     1       5.225  -5.005  -5.333  0.00  0.00    +0.203 C 
ATOM      3  C   UNL     1       4.658  -5.340  -6.696  0.00  0.00    +0.234 C 
ATOM      4  O   UNL     1       3.900  -6.273  -6.856  0.00  0.00    -0.274 OA
ATOM      5  N   UNL     1       5.041  -4.537  -7.743  0.00  0.00    -0.279 N 
ATOM      6  C   UNL     1       6.011  -3.513  -7.418  0.00  0.00    +0.167 C 
ATOM      7  C   UNL     1       5.561  -2.767  -6.187  0.00  0.00    +0.237 C 
ATOM      8  O   UNL     1       5.567  -1.556  -6.127  0.00  0.00    -0.274 OA
ATOM      9  C   UNL     1       6.466  -2.585  -8.515  0.00  0.00    +0.065 C 
ATOM     10  C   UNL     1       5.614  -2.783  -9.739  0.00  0.00    -0.034 C 
ATOM     11  C   UNL     1       5.093  -1.928 -10.608  0.00  0.00    -0.001 A 
ATOM     12  C   UNL     1       5.194  -0.464 -10.723  0.00  0.00    +0.010 A 
ATOM     13  C   UNL     1       4.510   0.106 -11.751  0.00  0.00    +0.001 A 
ATOM     14  C   UNL     1       3.746  -0.626 -12.665  0.00  0.00    +0.002 A 
ATOM     15  C   UNL     1       3.602  -1.975 -12.638  0.00  0.00    +0.026 A 
ATOM     16  C   UNL     1       4.277  -2.687 -11.604  0.00  0.00    +0.043 A 
ATOM     17  N   UNL     1       4.321  -3.960 -11.351  0.00  0.00    -0.375 N 
ATOM     18  C   UNL     1       5.186  -4.179 -10.185  0.00  0.00    +0.131 C 
ATOM     19  C   UNL     1       4.399  -4.775  -9.028  0.00  0.00    +0.137 C 
ATOM     20  H   UNL     1       3.858  -4.651 -11.850  0.00  0.00    +0.160 HD
ENDROOT
BRANCH  19  21
ATOM     21  C   UNL     1       4.232  -6.260  -9.225  0.00  0.00    +0.021 A 
ATOM     22  C   UNL     1       5.331  -7.096  -9.152  0.00  0.00    +0.009 A 
ATOM     23  C   UNL     1       5.181  -8.458  -9.333  0.00  0.00    +0.004 A 
ATOM     24  C   UNL     1       3.931  -8.991  -9.587  0.00  0.00    +0.049 A 
ATOM     25  C   UNL     1       2.825  -8.159  -9.661  0.00  0.00    +0.162 A 
ATOM     26  C   UNL     1       2.975  -6.788  -9.473  0.00  0.00    +0.166 A 
BRANCH  26  27
ATOM     27  O   UNL     1       1.892  -5.969  -9.539  0.00  0.00    -0.491 OA
ATOM     28  C   UNL     1       1.471  -5.553 -10.840  0.00  0.00    +0.277 C 
ENDBRANCH  26  27
BRANCH  25  29
ATOM     29  O   UNL     1       1.595  -8.682  -9.911  0.00  0.00    -0.491 OA
ATOM     30  C   UNL     1       1.515 -10.098 -10.087  0.00  0.00    +0.277 C 
ENDBRANCH  25  29
ENDBRANCH  19  21
BRANCH   1  31
ATOM     31  C   UNL     1       4.657  -2.957  -3.894  0.00  0.00    +0.113 C 
BRANCH  31  32
ATOM     32  C   UNL     1       3.143  -2.757  -3.989  0.00  0.00    +0.054 C 
BRANCH  32  36
ATOM     33  C   UNL     1       1.700  -1.042  -0.350  0.00  0.00    +0.120 A 
ATOM     34  C   UNL     1       2.108  -0.221  -1.391  0.00  0.00    +0.046 A 
ATOM     35  C   UNL     1       2.575  -0.778  -2.567  0.00  0.00    +0.007 A 
ATOM     36  C   UNL     1       2.634  -2.152  -2.706  0.00  0.00    -0.046 A 
ATOM     37  C   UNL     1       2.227  -2.973  -1.670  0.00  0.00    +0.007 A 
ATOM     38  C   UNL     1       1.766  -2.421  -0.491  0.00  0.00    +0.046 A 
BRANCH  33  40
ATOM     39  C   UNL     1       1.201   0.930   0.880  0.00  0.00    +0.277 C 
ATOM     40  O   UNL     1       1.241  -0.497   0.807  0.00  0.00    -0.495 OA
ENDBRANCH  33  40
ENDBRANCH  32  36
ENDBRANCH  31  32
ENDBRANCH   1  31
TORSDOF 7
