REMARK  Name = ZINC04134351
REMARK  4 active torsions:
REMARK  status: ('A' for Active; 'I' for Inactive)
REMARK    1  A    between atoms: C_3  and  C_22
REMARK    2  A    between atoms: C_6  and  C_7
REMARK    3  A    between atoms: N_9  and  C_10
REMARK    4  A    between atoms: C_18  and  C_19
REMARK                            x       y       z     vdW  Elec       q    Type
REMARK                         _______ _______ _______ _____ _____    ______ ____
ROOT
ATOM      1  C   UNL     1      -1.984  -0.907   0.668  0.00  0.00    +0.248 C 
ATOM      2  O   UNL     1      -0.912  -0.522   1.092  0.00  0.00    -0.270 OA
ATOM      3  N   UNL     1      -2.882  -0.017   0.200  0.00  0.00    -0.278 N 
ATOM      4  H   UNL     1      -3.762  -0.316  -0.076  0.00  0.00    +0.155 HD
ENDROOT
BRANCH   3   5
ATOM      5  C   UNL     1      -2.546   1.327   0.113  0.00  0.00    +0.095 A 
ATOM      6  C   UNL     1      -1.645   2.075   0.998  0.00  0.00    +0.044 A 
ATOM      7  C   UNL     1      -0.888   1.735   2.120  0.00  0.00    +0.033 A 
ATOM      8  C   UNL     1      -0.124   2.697   2.743  0.00  0.00    +0.042 A 
ATOM      9  C   UNL     1      -0.106   3.998   2.257  0.00  0.00    +0.023 A 
ATOM     10  C   UNL     1      -0.848   4.346   1.150  0.00  0.00    +0.048 A 
ATOM     11  C   UNL     1      -1.627   3.391   0.506  0.00  0.00    +0.138 A 
ATOM     12  O   UNL     1      -2.431   3.443  -0.575  0.00  0.00    -0.446 OA
ATOM     13  C   UNL     1      -2.991   2.237  -0.824  0.00  0.00    +0.238 A 
ATOM     14 CL   UNL     1       0.819   2.283   4.140  0.00  0.00    -0.084 Cl
BRANCH  13  15
ATOM     15  C   UNL     1      -3.887   1.952  -1.883  0.00  0.00    +0.423 C 
ATOM     16  O   UNL     1      -4.248   0.807  -2.083  0.00  0.00    -0.237 OA
ATOM     17  O   UNL     1      -4.345   2.950  -2.667  0.00  0.00    -0.237 OA
ENDBRANCH  13  15
ENDBRANCH   3   5
BRANCH   1  23
ATOM     18  C   UNL     1      -3.536  -2.794   0.183  0.00  0.00    +0.013 A 
ATOM     19  C   UNL     1      -3.825  -4.143   0.178  0.00  0.00    +0.013 A 
ATOM     20  C   UNL     1      -2.901  -5.054   0.660  0.00  0.00    +0.055 A 
ATOM     21  C   UNL     1      -1.679  -4.620   1.143  0.00  0.00    +0.013 A 
ATOM     22  C   UNL     1      -1.375  -3.274   1.149  0.00  0.00    +0.013 A 
ATOM     23  C   UNL     1      -2.303  -2.350   0.665  0.00  0.00    +0.037 A 
BRANCH  20  24
ATOM     24  C   UNL     1      -3.227  -6.525   0.657  0.00  0.00    +0.417 C 
ATOM     25  F   UNL     1      -3.845  -6.868   1.864  0.00  0.00    -0.166 F 
ATOM     26  F   UNL     1      -4.090  -6.810  -0.406  0.00  0.00    -0.166 F 
ATOM     27  F   UNL     1      -2.047  -7.263   0.511  0.00  0.00    -0.166 F 
ENDBRANCH  20  24
ENDBRANCH   1  23
TORSDOF 4
