REMARK  Name = ZINC67357602
REMARK  5 active torsions:
REMARK  status: ('A' for Active; 'I' for Inactive)
REMARK    1  A    between atoms: C_1  and  C_2
REMARK    2  A    between atoms: C_2  and  C_4
REMARK    3  A    between atoms: C_2  and  N_11
REMARK    4  A    between atoms: C_4  and  N_5
REMARK    5  A    between atoms: C_18  and  C_21
REMARK                            x       y       z     vdW  Elec       q    Type
REMARK                         _______ _______ _______ _____ _____    ______ ____
ROOT
ATOM      1  N   UNL     1      -1.370  -0.516   0.012  0.00  0.00    -0.295 N 
ATOM      2  C   UNL     1      -2.051  -0.643  -1.145  0.00  0.00    +0.303 C 
ATOM      3  O   UNL     1      -1.559  -0.252  -2.186  0.00  0.00    -0.253 OA
ATOM      4  N   UNL     1      -3.277  -1.203  -1.147  0.00  0.00    -0.281 N 
ATOM      5  C   UNL     1      -3.989  -1.462  -2.409  0.00  0.00    +0.137 C 
ATOM      6  C   UNL     1      -5.401  -0.878  -2.296  0.00  0.00    +0.179 C 
ATOM      7  O   UNL     1      -6.020  -1.370  -1.105  0.00  0.00    -0.369 OA
ATOM      8  C   UNL     1      -5.358  -0.983   0.102  0.00  0.00    +0.168 C 
ATOM      9  C   UNL     1      -3.940  -1.578   0.112  0.00  0.00    +0.145 C 
ATOM     10  H   UNL     1      -1.790  -0.760   0.851  0.00  0.00    +0.151 HD
ENDROOT
BRANCH   8  11
ATOM     11  C   UNL     1      -6.129  -1.502   1.288  0.00  0.00    +0.018 A 
ATOM     12  C   UNL     1      -6.938  -2.615   1.154  0.00  0.00    +0.009 A 
ATOM     13  C   UNL     1      -7.645  -3.091   2.241  0.00  0.00    +0.001 A 
ATOM     14  C   UNL     1      -7.545  -2.455   3.465  0.00  0.00    +0.003 A 
ATOM     15  C   UNL     1      -6.736  -1.343   3.602  0.00  0.00    +0.039 A 
ATOM     16  C   UNL     1      -6.023  -0.869   2.514  0.00  0.00    +0.129 A 
ATOM     17  F   UNL     1      -5.228   0.216   2.648  0.00  0.00    -0.205 F 
ENDBRANCH   8  11
BRANCH   1  19
ATOM     18  C   UNL     1      -0.018   1.522   0.016  0.00  0.00    +0.029 C 
ATOM     19  C   UNL     1       0.004  -0.008   0.001  0.00  0.00    +0.089 C 
BRANCH  19  20
ATOM     20  C   UNL     1       0.746  -0.519   1.237  0.00  0.00    +0.129 C 
BRANCH  20  21
ATOM     21  N   UNL     1       0.664  -1.981   1.286  0.00  0.00    -0.300 N 
ATOM     22  C   UNL     1      -0.407  -2.729   1.955  0.00  0.00    +0.108 C 
ATOM     23  C   UNL     1      -0.325  -4.163   1.387  0.00  0.00    +0.028 C 
ATOM     24  C   UNL     1       1.159  -4.249   0.960  0.00  0.00    +0.097 C 
ATOM     25  C   UNL     1       1.558  -2.810   0.718  0.00  0.00    +0.216 C 
ATOM     26  O   UNL     1       2.542  -2.456   0.104  0.00  0.00    -0.276 OA
ENDBRANCH  20  21
ENDBRANCH  19  20
ENDBRANCH   1  19
TORSDOF 4
