REMARK  Name = ZINC00107444
REMARK  1 active torsions:
REMARK  status: ('A' for Active; 'I' for Inactive)
REMARK    1  A    between atoms: C_8  and  C_18
REMARK                            x       y       z     vdW  Elec       q    Type
REMARK                         _______ _______ _______ _____ _____    ______ ____
ROOT
ATOM      1  C   UNL     1      -4.349   4.721   1.370  0.00  0.00    +0.002 A 
ATOM      2  C   UNL     1      -4.994   5.092   0.204  0.00  0.00    +0.002 A 
ATOM      3  C   UNL     1      -4.379   5.952  -0.690  0.00  0.00    +0.025 A 
ATOM      4  C   UNL     1      -3.113   6.435  -0.406  0.00  0.00    +0.052 A 
ATOM      5  C   UNL     1      -2.450   6.033   0.744  0.00  0.00    +0.049 A 
ATOM      6  C   UNL     1      -3.076   5.189   1.647  0.00  0.00    +0.025 A 
ATOM      7  N   UNL     1      -1.131   6.444   0.926  0.00  0.00    -0.331 N 
ATOM      8  C   UNL     1      -0.079   6.003   0.034  0.00  0.00    +0.136 C 
ATOM      9  C   UNL     1      -0.224   6.488  -1.389  0.00  0.00    +0.036 C 
ATOM     10  C   UNL     1      -1.313   7.072  -1.916  0.00  0.00    +0.017 C 
ATOM     11  N   UNL     1      -2.458   7.336  -1.237  0.00  0.00    -0.316 N 
ATOM     12  C   UNL     1      -1.331   7.489  -3.378  0.00  0.00    +0.051 C 
ATOM     13  C   UNL     1       0.070   7.911  -3.817  0.00  0.00    +0.014 C 
ATOM     14  C   UNL     1       1.002   6.710  -3.618  0.00  0.00    +0.080 C 
ATOM     15  C   UNL     1       0.929   6.281  -2.183  0.00  0.00    +0.163 C 
ATOM     16  O   UNL     1       1.894   5.737  -1.684  0.00  0.00    -0.292 OA
ATOM     17  H   UNL     1      -0.913   7.035   1.664  0.00  0.00    +0.147 HD
ATOM     18  H   UNL     1      -2.847   8.219  -1.339  0.00  0.00    +0.152 HD
ENDROOT
BRANCH   8  19
ATOM     19  C   UNL     1      -0.059   4.497   0.026  0.00  0.00    -0.023 A 
ATOM     20  C   UNL     1      -1.167   3.793  -0.407  0.00  0.00    +0.007 A 
ATOM     21  C   UNL     1      -1.149   2.411  -0.414  0.00  0.00    +0.020 A 
ATOM     22  C   UNL     1      -0.022   1.732   0.013  0.00  0.00    +0.041 A 
ATOM     23  C   UNL     1       1.085   2.437   0.451  0.00  0.00    +0.020 A 
ATOM     24  C   UNL     1       1.068   3.819   0.453  0.00  0.00    +0.007 A 
ATOM     25 CL   UNL     1       0.002  -0.004   0.004  0.00  0.00    -0.084 Cl
ENDBRANCH   8  19
TORSDOF 1
