REMARK  Name = ZINC36497291
REMARK  17 active torsions:
REMARK  status: ('A' for Active; 'I' for Inactive)
REMARK    1  A    between atoms: C_1  and  C_2
REMARK    2  A    between atoms: C_2  and  C_3
REMARK    3  A    between atoms: C_3  and  C_5
REMARK    4  A    between atoms: C_3  and  C_11
REMARK    5  A    between atoms: N_13  and  C_14
REMARK    6  A    between atoms: N_13  and  C_20
REMARK    7  A    between atoms: C_14  and  C_15
REMARK    8  A    between atoms: C_20  and  C_22
REMARK    9  A    between atoms: C_20  and  C_31
REMARK   10  A    between atoms: N_33  and  C_34
REMARK   11  A    between atoms: C_34  and  C_35
REMARK   12  A    between atoms: C_34  and  C_36
REMARK   13  A    between atoms: C_34  and  C_37
REMARK   14  A    between atoms: C_37  and  C_38
REMARK   15  A    between atoms: C_38  and  C_39
REMARK   16  A    between atoms: C_38  and  C_40
REMARK   17  A    between atoms: C_38  and  C_41
REMARK                            x       y       z     vdW  Elec       q    Type
REMARK                         _______ _______ _______ _____ _____    ______ ____
ROOT
ATOM      1  C   UNL     1      -0.024  -3.971   1.900  0.00  0.00    +0.193 C 
ENDROOT
BRANCH   1   2
ATOM      2  C   UNL     1       1.326  -4.188   2.533  0.00  0.00    -0.015 A 
ATOM      3  C   UNL     1       1.859  -3.223   3.368  0.00  0.00    +0.010 A 
ATOM      4  C   UNL     1       3.097  -3.418   3.952  0.00  0.00    +0.050 A 
ATOM      5  C   UNL     1       3.807  -4.581   3.701  0.00  0.00    +0.166 A 
ATOM      6  C   UNL     1       3.270  -5.552   2.860  0.00  0.00    +0.167 A 
ATOM      7  C   UNL     1       2.026  -5.353   2.283  0.00  0.00    +0.055 A 
ATOM      8  O   UNL     1       4.152  -6.591   2.774  0.00  0.00    -0.453 OA
ATOM      9  C   UNL     1       5.409  -6.068   3.243  0.00  0.00    +0.466 C 
ATOM     10  O   UNL     1       5.025  -5.011   4.142  0.00  0.00    -0.453 OA
ENDBRANCH   1   2
BRANCH   1  11
ATOM     11  C   UNL     1      -1.100  -4.144   2.940  0.00  0.00    +0.239 C 
ATOM     12  O   UNL     1      -1.896  -3.251   3.143  0.00  0.00    -0.273 OA
ATOM     13  N   UNL     1      -1.179  -5.290   3.645  0.00  0.00    -0.308 N 
ATOM     14  H   UNL     1      -0.499  -5.973   3.536  0.00  0.00    +0.149 HD
BRANCH  13  15
ATOM     15  C   UNL     1      -2.291  -5.504   4.574  0.00  0.00    +0.030 C 
ATOM     16  C   UNL     1      -2.177  -4.519   5.740  0.00  0.00    +0.031 C 
ATOM     17  C   UNL     1      -3.616  -5.280   3.844  0.00  0.00    +0.031 C 
BRANCH  15  18
ATOM     18  C   UNL     1      -2.239  -6.936   5.111  0.00  0.00    +0.031 C 
BRANCH  18  19
ATOM     19  C   UNL     1      -2.526  -7.917   3.972  0.00  0.00    -0.036 C 
ATOM     20  C   UNL     1      -1.789  -7.463   2.710  0.00  0.00    +0.010 C 
ATOM     21  C   UNL     1      -2.043  -9.314   4.369  0.00  0.00    +0.010 C 
ATOM     22  C   UNL     1      -4.030  -7.956   3.699  0.00  0.00    +0.010 C 
ENDBRANCH  18  19
ENDBRANCH  15  18
ENDBRANCH  13  15
ENDBRANCH   1  11
BRANCH   1  25
ATOM     23  C   UNL     1      -0.094  -2.432   0.012  0.00  0.00    +0.224 C 
ATOM     24  O   UNL     1      -0.157  -3.388  -0.732  0.00  0.00    -0.275 OA
ATOM     25  N   UNL     1      -0.092  -2.616   1.347  0.00  0.00    -0.278 N 
BRANCH  23  26
ATOM     26  C   UNL     1      -0.019  -1.039  -0.557  0.00  0.00    +0.105 C 
BRANCH  26  27
ATOM     27  C   UNL     1      -0.249  -1.091  -2.046  0.00  0.00    -0.036 A 
ATOM     28  C   UNL     1       0.596  -1.831  -2.850  0.00  0.00    +0.004 A 
ATOM     29  C   UNL     1       0.385  -1.879  -4.215  0.00  0.00    +0.000 A 
ATOM     30  C   UNL     1      -0.672  -1.187  -4.776  0.00  0.00    +0.000 A 
ATOM     31  C   UNL     1      -1.518  -0.447  -3.971  0.00  0.00    +0.000 A 
ATOM     32  C   UNL     1      -1.310  -0.403  -2.605  0.00  0.00    +0.004 A 
ENDBRANCH  26  27
BRANCH  26  34
ATOM     33  C   UNL     1       1.417   0.992  -0.794  0.00  0.00    +0.005 C 
ATOM     34  C   UNL     1       1.363  -0.447  -0.275  0.00  0.00    +0.014 C 
ENDBRANCH  26  34
ENDBRANCH  23  26
BRANCH  25  35
ATOM     35  C   UNL     1      -0.157  -1.461   2.246  0.00  0.00    +0.183 C 
BRANCH  35  36
ATOM     36  C   UNL     1      -1.450  -0.720   2.018  0.00  0.00    +0.122 A 
ATOM     37  C   UNL     1      -2.639  -1.027   2.566  0.00  0.00    +0.046 A 
ATOM     38  C   UNL     1      -3.570  -0.078   2.084  0.00  0.00    +0.041 A 
ATOM     39  C   UNL     1      -2.893   0.752   1.270  0.00  0.00    +0.195 A 
ATOM     40  O   UNL     1      -1.608   0.362   1.238  0.00  0.00    -0.466 OA
ENDBRANCH  35  36
ENDBRANCH  25  35
ENDBRANCH   1  25
TORSDOF 11
