REMARK  Name = ZINC12500897
REMARK  8 active torsions:
REMARK  status: ('A' for Active; 'I' for Inactive)
REMARK    1  A    between atoms: C_1  and  C_2
REMARK    2  A    between atoms: C_7  and  O_8
REMARK    3  A    between atoms: O_8  and  C_9
REMARK    4  A    between atoms: C_9  and  C_10
REMARK    5  A    between atoms: N_12  and  N_13
REMARK    6  A    between atoms: N_13  and  C_14
REMARK    7  A    between atoms: C_14  and  N_16
REMARK    8  A    between atoms: C_17  and  C_19
REMARK                            x       y       z     vdW  Elec       q    Type
REMARK                         _______ _______ _______ _____ _____    ______ ____
ROOT
ATOM      1  N   UNL     1       2.323   0.998  -0.015  0.00  0.00    -0.245 N 
ATOM      2  H   UNL     1       3.156   1.494  -0.020  0.00  0.00    +0.172 HD
ENDROOT
BRANCH   1   5
ATOM      3  C   UNL     1       3.518  -1.061  -0.037  0.00  0.00    +0.267 C 
ATOM      4  O   UNL     1       4.560  -0.441  -0.044  0.00  0.00    -0.271 OA
ATOM      5  N   UNL     1       2.342  -0.403  -0.022  0.00  0.00    -0.232 N 
ATOM      6  H   UNL     1       1.509  -0.900  -0.017  0.00  0.00    +0.173 HD
BRANCH   3   7
ATOM      7  C   UNL     1       3.539  -2.568  -0.045  0.00  0.00    +0.326 C 
BRANCH   7   8
ATOM      8  O   UNL     1       4.892  -3.026  -0.061  0.00  0.00    -0.482 OA
BRANCH   8  15
ATOM      9  C   UNL     1       7.560  -3.951  -0.103  0.00  0.00    +0.047 C 
ATOM     10  C   UNL     1       6.377  -4.884  -0.091  0.00  0.00    -0.007 A 
ATOM     11  C   UNL     1       6.574  -6.252  -0.095  0.00  0.00    +0.027 A 
ATOM     12  C   UNL     1       5.488  -7.109  -0.089  0.00  0.00    +0.041 A 
ATOM     13  C   UNL     1       4.202  -6.598  -0.074  0.00  0.00    +0.023 A 
ATOM     14  C   UNL     1       4.000  -5.232  -0.064  0.00  0.00    +0.047 A 
ATOM     15  C   UNL     1       5.088  -4.371  -0.070  0.00  0.00    +0.124 A 
ATOM     16 CL   UNL     1       5.739  -8.826  -0.102  0.00  0.00    -0.084 Cl
ENDBRANCH   8  15
ENDBRANCH   7   8
ENDBRANCH   3   7
ENDBRANCH   1   5
BRANCH   1  17
ATOM     17  C   UNL     1       1.147   1.655   0.000  0.00  0.00    +0.153 C 
ATOM     18  S   UNL     1       1.124   3.367   0.009  0.00  0.00    -0.017 S 
BRANCH  17  19
ATOM     19  N   UNL     1      -0.011   0.966   0.007  0.00  0.00    -0.263 N 
ATOM     20  C   UNL     1      -1.187   1.624   0.017  0.00  0.00    +0.251 C 
ATOM     21  O   UNL     1      -1.204   2.839   0.023  0.00  0.00    -0.270 OA
ATOM     22  H   UNL     1       0.002  -0.004   0.002  0.00  0.00    +0.157 HD
BRANCH  20  23
ATOM     23  C   UNL     1      -2.456   0.868   0.018  0.00  0.00    +0.051 A 
ATOM     24  C   UNL     1      -2.441  -0.528   0.005  0.00  0.00    +0.014 A 
ATOM     25  C   UNL     1      -3.630  -1.228   0.012  0.00  0.00    +0.001 A 
ATOM     26  C   UNL     1      -4.836  -0.550   0.022  0.00  0.00    +0.001 A 
ATOM     27  C   UNL     1      -4.860   0.833   0.030  0.00  0.00    +0.016 A 
ATOM     28  C   UNL     1      -3.677   1.547   0.028  0.00  0.00    +0.030 A 
ATOM     29 BR   UNL     1      -3.711   3.437   0.038  0.00  0.00    -0.050 Br
ENDBRANCH  20  23
ENDBRANCH  17  19
ENDBRANCH   1  17
TORSDOF 7
