REMARK  Name = ZINC13065109
REMARK  12 active torsions:
REMARK  status: ('A' for Active; 'I' for Inactive)
REMARK    1  A    between atoms: C_1  and  C_2
REMARK    2  A    between atoms: C_2  and  C_3
REMARK    3  A    between atoms: C_3  and  C_5
REMARK    4  A    between atoms: C_3  and  N_66
REMARK    5  A    between atoms: N_9  and  C_10
REMARK    6  A    between atoms: C_10  and  C_11
REMARK    7  A    between atoms: C_18  and  C_19
REMARK    8  A    between atoms: C_18  and  N_66
REMARK    9  A    between atoms: C_24  and  C_25
REMARK   10  A    between atoms: C_24  and  N_66
REMARK   11  A    between atoms: C_30  and  C_38
REMARK   12  A    between atoms: C_31  and  C_37
REMARK                            x       y       z     vdW  Elec       q    Type
REMARK                         _______ _______ _______ _____ _____    ______ ____
ROOT
ATOM      1  N   UNL     1       0.896   4.381  -1.344  0.00  0.00    +0.394 N 
ATOM      2  H   UNL     1      -0.098   4.636  -1.304  0.00  0.00    -0.080 HD
ENDROOT
BRANCH   1   3
ATOM      3  C   UNL     1       1.137   3.243  -0.432  0.00  0.00    +0.003 C 
BRANCH   3   4
ATOM      4  C   UNL     1       0.473   2.012  -0.994  0.00  0.00    +0.138 A 
ATOM      5  N   UNL     1      -0.728   1.938  -1.513  0.00  0.00    -0.115 NA
ATOM      6  N   UNL     1      -0.929   0.720  -1.879  0.00  0.00    -0.023 NA
ATOM      7  N   UNL     1       0.113   0.014  -1.607  0.00  0.00    -0.044 NA
ATOM      8  N   UNL     1       0.999   0.775  -1.060  0.00  0.00    -0.226 N 
BRANCH   8   9
ATOM      9  C   UNL     1       2.329   0.368  -0.599  0.00  0.00    +0.182 C 
BRANCH   9  10
ATOM     10  C   UNL     1       3.321   0.526  -1.724  0.00  0.00    -0.026 A 
ATOM     11  C   UNL     1       3.558  -0.527  -2.588  0.00  0.00    +0.008 A 
ATOM     12  C   UNL     1       4.463  -0.382  -3.622  0.00  0.00    +0.038 A 
ATOM     13  C   UNL     1       5.140   0.815  -3.786  0.00  0.00    +0.123 A 
ATOM     14  C   UNL     1       4.905   1.867  -2.917  0.00  0.00    +0.038 A 
ATOM     15  C   UNL     1       3.996   1.721  -1.887  0.00  0.00    +0.008 A 
ATOM     16  F   UNL     1       6.029   0.956  -4.794  0.00  0.00    -0.205 F 
ENDBRANCH   9  10
ENDBRANCH   8   9
ENDBRANCH   3   4
BRANCH   3  18
ATOM     17  C   UNL     1       0.872   2.452   1.923  0.00  0.00    +0.002 C 
ATOM     18  C   UNL     1       0.533   3.569   0.935  0.00  0.00    -0.011 C 
ENDBRANCH   3  18
ENDBRANCH   1   3
BRANCH   1  19
ATOM     19  C   UNL     1       1.238   3.999  -2.730  0.00  0.00    -0.002 C 
BRANCH  19  20
ATOM     20  C   UNL     1       0.595   4.981  -3.675  0.00  0.00    +0.089 A 
ATOM     21  C   UNL     1       1.201   6.040  -4.241  0.00  0.00    +0.042 A 
ATOM     22  C   UNL     1       0.234   6.682  -5.048  0.00  0.00    +0.041 A 
ATOM     23  C   UNL     1      -0.905   5.976  -4.927  0.00  0.00    +0.195 A 
ATOM     24  O   UNL     1      -0.679   4.944  -4.099  0.00  0.00    -0.470 OA
ENDBRANCH  19  20
ENDBRANCH   1  19
BRANCH   1  25
ATOM     25  C   UNL     1       1.707   5.543  -0.926  0.00  0.00    -0.036 C 
BRANCH  25  26
ATOM     26  C   UNL     1       3.172   5.190  -0.915  0.00  0.00    +0.001 A 
ATOM     27  C   UNL     1       3.936   5.442  -2.006  0.00  0.00    +0.017 A 
ATOM     28  C   UNL     1       5.357   5.090  -1.962  0.00  0.00    -0.001 A 
ATOM     29  C   UNL     1       6.196   5.332  -3.055  0.00  0.00    +0.010 A 
ATOM     30  C   UNL     1       7.516   4.987  -2.984  0.00  0.00    +0.004 A 
ATOM     31  C   UNL     1       8.032   4.400  -1.837  0.00  0.00    -0.046 A 
ATOM     32  C   UNL     1       7.224   4.154  -0.748  0.00  0.00    -0.024 A 
ATOM     33  C   UNL     1       5.876   4.496  -0.797  0.00  0.00    +0.052 A 
ATOM     34  N   UNL     1       5.045   4.261   0.277  0.00  0.00    -0.322 N 
ATOM     35  H   UNL     1       5.405   3.851   1.079  0.00  0.00    +0.169 HD
ATOM     36  C   UNL     1       3.743   4.592   0.229  0.00  0.00    +0.251 A 
ATOM     37  O   UNL     1       3.037   4.370   1.198  0.00  0.00    -0.268 OA
ATOM     38  C   UNL     1       7.798   3.517   0.492  0.00  0.00    +0.046 C 
ATOM     39  C   UNL     1       9.492   4.029  -1.781  0.00  0.00    +0.044 C 
ENDBRANCH  25  26
ENDBRANCH   1  25
TORSDOF 9
