REMARK  Name = ZINC00453328
REMARK  7 active torsions:
REMARK  status: ('A' for Active; 'I' for Inactive)
REMARK    1  A    between atoms: C_1  and  C_2
REMARK    2  A    between atoms: C_5  and  C_20
REMARK    3  A    between atoms: C_6  and  C_8
REMARK    4  A    between atoms: C_8  and  C_10
REMARK    5  A    between atoms: C_10  and  O_11
REMARK    6  A    between atoms: O_11  and  C_12
REMARK    7  A    between atoms: C_12  and  C_14
REMARK                            x       y       z     vdW  Elec       q    Type
REMARK                         _______ _______ _______ _____ _____    ______ ____
ROOT
ATOM      1  C   UNL     1       0.525  -2.673   2.494  0.00  0.00    +0.201 C 
ATOM      2  O   UNL     1       0.608  -3.882   2.551  0.00  0.00    -0.288 OA
ENDROOT
BRANCH   1   8
ATOM      3  C   UNL     1       0.067   1.497  -0.201  0.00  0.00    +0.044 C 
ATOM      4  C   UNL     1       0.044  -0.006  -0.099  0.00  0.00    -0.050 A 
ATOM      5  C   UNL     1      -0.222  -0.770  -1.222  0.00  0.00    +0.003 A 
ATOM      6  C   UNL     1      -0.245  -2.151  -1.139  0.00  0.00    +0.004 A 
ATOM      7  C   UNL     1      -0.004  -2.778   0.065  0.00  0.00    -0.040 A 
ATOM      8  C   UNL     1       0.266  -2.013   1.205  0.00  0.00    +0.024 A 
ATOM      9  C   UNL     1       0.294  -0.618   1.111  0.00  0.00    +0.015 A 
ATOM     10  C   UNL     1      -0.030  -4.282   0.154  0.00  0.00    +0.044 C 
ENDBRANCH   1   8
BRANCH   1  11
ATOM     11  C   UNL     1       0.686  -1.848   3.744  0.00  0.00    +0.312 C 
BRANCH  11  12
ATOM     12  O   UNL     1       0.927  -2.711   4.857  0.00  0.00    -0.451 OA
BRANCH  12  13
ATOM     13  C   UNL     1       1.095  -2.126   6.061  0.00  0.00    +0.375 C 
ATOM     14  O   UNL     1       1.038  -0.915   6.162  0.00  0.00    -0.241 OA
BRANCH  13  15
ATOM     15  C   UNL     1       1.346  -2.948   7.246  0.00  0.00    +0.213 A 
ATOM     16  C   UNL     1       1.528  -2.486   8.520  0.00  0.00    +0.058 A 
ATOM     17  C   UNL     1       1.735  -3.611   9.331  0.00  0.00    +0.058 A 
ATOM     18  C   UNL     1       1.672  -4.699   8.527  0.00  0.00    +0.171 A 
ATOM     19  O   UNL     1       1.433  -4.295   7.273  0.00  0.00    -0.442 OA
ATOM     20 BR   UNL     1       1.881  -6.494   9.085  0.00  0.00    -0.008 Br
ENDBRANCH  13  15
ENDBRANCH  12  13
ENDBRANCH  11  12
ENDBRANCH   1  11
TORSDOF 5
