REMARK  Name = ZINC63812447
REMARK  7 active torsions:
REMARK  status: ('A' for Active; 'I' for Inactive)
REMARK    1  A    between atoms: C_1  and  C_2
REMARK    2  A    between atoms: C_2  and  C_4
REMARK    3  A    between atoms: C_2  and  N_14
REMARK    4  A    between atoms: C_15  and  C_17
REMARK    5  A    between atoms: C_17  and  N_18
REMARK    6  A    between atoms: C_21  and  C_26
REMARK    7  A    between atoms: C_26  and  C_27
REMARK                            x       y       z     vdW  Elec       q    Type
REMARK                         _______ _______ _______ _____ _____    ______ ____
ROOT
ATOM      1  N   UNL     1      -3.978  -1.213  -2.505  0.00  0.00    -0.216 N 
ATOM      2  C   UNL     1      -4.621  -0.195  -3.109  0.00  0.00    +0.244 C 
ATOM      3  O   UNL     1      -4.876   0.893  -2.638  0.00  0.00    -0.273 OA
ATOM      4  C   UNL     1      -4.961  -0.692  -4.501  0.00  0.00    +0.165 C 
ATOM      5  N   UNL     1      -4.418  -2.061  -4.521  0.00  0.00    -0.287 N 
ATOM      6  C   UNL     1      -3.860  -2.272  -3.315  0.00  0.00    +0.310 C 
ATOM      7  O   UNL     1      -3.313  -3.309  -2.995  0.00  0.00    -0.252 OA
ATOM      8  H   UNL     1      -4.453  -2.688  -5.260  0.00  0.00    +0.151 HD
ENDROOT
BRANCH   1   9
ATOM      9  C   UNL     1      -3.465  -1.164  -1.134  0.00  0.00    +0.213 C 
BRANCH   9  11
ATOM     10  N   UNL     1      -1.372  -0.511   0.012  0.00  0.00    -0.307 N 
ATOM     11  C   UNL     1      -2.051  -0.643  -1.145  0.00  0.00    +0.231 C 
ATOM     12  O   UNL     1      -1.524  -0.341  -2.194  0.00  0.00    -0.274 OA
ATOM     13  H   UNL     1      -1.794  -0.752   0.852  0.00  0.00    +0.149 HD
BRANCH  10  15
ATOM     14  C   UNL     1      -0.019   1.526   0.010  0.00  0.00    +0.033 C 
ATOM     15  C   UNL     1       0.002  -0.004   0.002  0.00  0.00    +0.100 C 
BRANCH  15  16
ATOM     16  C   UNL     1       0.731  -0.503   1.223  0.00  0.00    -0.024 A 
ATOM     17  C   UNL     1       0.080  -0.558   2.441  0.00  0.00    +0.009 A 
ATOM     18  C   UNL     1       0.745  -1.014   3.563  0.00  0.00    +0.050 A 
ATOM     19  C   UNL     1       2.068  -1.418   3.470  0.00  0.00    +0.162 A 
ATOM     20  C   UNL     1       2.723  -1.366   2.245  0.00  0.00    +0.162 A 
ATOM     21  C   UNL     1       2.047  -0.911   1.122  0.00  0.00    +0.055 A 
ATOM     22  O   UNL     1       4.019  -1.765   2.129  0.00  0.00    -0.485 OA
ATOM     23  C   UNL     1       4.771  -1.867   3.343  0.00  0.00    +0.270 C 
ATOM     24  C   UNL     1       3.915  -2.609   4.378  0.00  0.00    +0.270 C 
ATOM     25  O   UNL     1       2.712  -1.861   4.585  0.00  0.00    -0.485 OA
ENDBRANCH  15  16
ENDBRANCH  10  15
ENDBRANCH   9  11
ENDBRANCH   1   9
BRANCH   4  26
ATOM     26  C   UNL     1      -4.282   0.175  -5.563  0.00  0.00    +0.065 C 
BRANCH  26  27
ATOM     27  C   UNL     1      -4.732  -0.263  -6.932  0.00  0.00    -0.039 C 
ATOM     28  C   UNL     1      -5.737   0.267  -7.667  0.00  0.00    -0.001 A 
ATOM     29  C   UNL     1      -6.675   1.368  -7.419  0.00  0.00    +0.010 A 
ATOM     30  C   UNL     1      -7.593   1.673  -8.364  0.00  0.00    +0.001 A 
ATOM     31  C   UNL     1      -7.670   0.966  -9.572  0.00  0.00    +0.002 A 
ATOM     32  C   UNL     1      -6.843  -0.058  -9.872  0.00  0.00    +0.026 A 
ATOM     33  C   UNL     1      -5.839  -0.464  -8.950  0.00  0.00    +0.043 A 
ATOM     34  N   UNL     1      -4.933  -1.410  -9.007  0.00  0.00    -0.380 N 
ATOM     35  C   UNL     1      -4.149  -1.381  -7.767  0.00  0.00    +0.144 C 
ATOM     36  H   UNL     1      -4.800  -2.023  -9.746  0.00  0.00    +0.160 HD
ENDBRANCH  26  27
ENDBRANCH   4  26
TORSDOF 6
