REMARK  Name = ZINC10041804
REMARK  10 active torsions:
REMARK  status: ('A' for Active; 'I' for Inactive)
REMARK    1  A    between atoms: C_1  and  C_2
REMARK    2  A    between atoms: C_2  and  C_3
REMARK    3  A    between atoms: C_2  and  C_4
REMARK    4  A    between atoms: C_4  and  C_6
REMARK    5  A    between atoms: C_4  and  N_26
REMARK    6  A    between atoms: N_8  and  N_9
REMARK    7  A    between atoms: C_10  and  C_11
REMARK    8  A    between atoms: C_14  and  C_16
REMARK    9  A    between atoms: C_21  and  N_22
REMARK   10  A    between atoms: C_27  and  C_29
REMARK                            x       y       z     vdW  Elec       q    Type
REMARK                         _______ _______ _______ _____ _____    ______ ____
ROOT
ATOM      1  C   UNL     1       0.520   1.725   0.330  0.00  0.00    +0.253 C 
ATOM      2  O   UNL     1       0.234   0.552   0.380  0.00  0.00    -0.272 OA
ATOM      3  N   UNL     1      -0.450   2.650   0.188  0.00  0.00    -0.205 N 
ATOM      4  H   UNL     1      -0.216   3.584   0.072  0.00  0.00    +0.177 HD
ENDROOT
BRANCH   3   5
ATOM      5  N   UNL     1      -1.689   2.292   0.206  0.00  0.00    -0.185 NA
ATOM      6  C   UNL     1      -2.640   3.184  -0.039  0.00  0.00    +0.176 C 
BRANCH   6   7
ATOM      7  C   UNL     1      -2.300   4.471  -0.436  0.00  0.00    +0.148 A 
ATOM      8  C   UNL     1      -3.233   5.592  -0.616  0.00  0.00    +0.051 A 
ATOM      9  C   UNL     1      -2.489   6.659  -1.004  0.00  0.00    +0.050 A 
ATOM     10  C   UNL     1      -1.101   6.204  -1.076  0.00  0.00    +0.138 A 
ATOM     11  O   UNL     1      -1.056   4.905  -0.730  0.00  0.00    -0.454 OA
BRANCH  10  12
ATOM     12  C   UNL     1       0.010   6.997  -1.450  0.00  0.00    +0.048 A 
ATOM     13  C   UNL     1      -0.030   7.763  -2.632  0.00  0.00    +0.015 A 
ATOM     14  C   UNL     1       1.045   8.529  -2.980  0.00  0.00    +0.021 A 
ATOM     15  C   UNL     1       2.180   8.547  -2.179  0.00  0.00    +0.043 A 
ATOM     16  C   UNL     1       2.232   7.792  -1.013  0.00  0.00    +0.053 A 
ATOM     17  C   UNL     1       1.166   7.023  -0.644  0.00  0.00    +0.138 A 
ATOM     18 CL   UNL     1       3.543   9.520  -2.636  0.00  0.00    -0.083 Cl
BRANCH  17  19
ATOM     19  N   UNL     1       1.225   6.218   0.597  0.00  0.00    +0.057 N 
ATOM     20  O   UNL     1       2.307   6.244   1.348  0.00  0.00    -0.126 OA
ATOM     21  O   UNL     1       0.195   5.477   0.950  0.00  0.00    -0.126 OA
ENDBRANCH  17  19
ENDBRANCH  10  12
ENDBRANCH   6   7
ENDBRANCH   3   5
BRANCH   1  22
ATOM     22  C   UNL     1       1.963   2.153   0.419  0.00  0.00    +0.163 C 
BRANCH  22  23
ATOM     23  N   UNL     1       2.759   1.067   0.996  0.00  0.00    -0.300 N 
ATOM     24  C   UNL     1       3.914   1.344   1.633  0.00  0.00    +0.245 C 
ATOM     25  O   UNL     1       4.295   2.494   1.729  0.00  0.00    -0.270 OA
ATOM     26  H   UNL     1       2.455   0.149   0.920  0.00  0.00    +0.150 HD
BRANCH  24  27
ATOM     27  C   UNL     1       4.718   0.248   2.215  0.00  0.00    +0.038 A 
ATOM     28  C   UNL     1       5.915   0.532   2.876  0.00  0.00    +0.013 A 
ATOM     29  C   UNL     1       6.661  -0.494   3.417  0.00  0.00    +0.002 A 
ATOM     30  C   UNL     1       6.225  -1.803   3.308  0.00  0.00    +0.020 A 
ATOM     31  C   UNL     1       5.039  -2.092   2.655  0.00  0.00    +0.042 A 
ATOM     32  C   UNL     1       4.281  -1.073   2.112  0.00  0.00    +0.033 A 
ATOM     33 CL   UNL     1       4.500  -3.737   2.524  0.00  0.00    -0.084 Cl
ENDBRANCH  24  27
ENDBRANCH  22  23
BRANCH  22  35
ATOM     34  C   UNL     1       3.917   3.010  -0.879  0.00  0.00    +0.009 C 
ATOM     35  C   UNL     1       2.485   2.481  -0.981  0.00  0.00    +0.012 C 
ATOM     36  C   UNL     1       2.469   1.215  -1.840  0.00  0.00    +0.009 C 
ENDBRANCH  22  35
ENDBRANCH   1  22
TORSDOF 8
