REMARK  Name = ZINC64965873
REMARK  6 active torsions:
REMARK  status: ('A' for Active; 'I' for Inactive)
REMARK    1  A    between atoms: C_1  and  C_2
REMARK    2  A    between atoms: C_7  and  C_8
REMARK    3  A    between atoms: C_10  and  C_32
REMARK    4  A    between atoms: N_14  and  C_25
REMARK    5  A    between atoms: N_17  and  C_18
REMARK    6  A    between atoms: C_18  and  C_19
REMARK                            x       y       z     vdW  Elec       q    Type
REMARK                         _______ _______ _______ _____ _____    ______ ____
ROOT
ATOM      1  C   UNL     1       0.150   0.952   1.997  0.00  0.00    +0.163 A 
ATOM      2  N   UNL     1      -0.251   2.208   2.115  0.00  0.00    -0.220 NA
ATOM      3  C   UNL     1      -0.669   2.687   3.287  0.00  0.00    +0.155 A 
ATOM      4  C   UNL     1      -0.675   1.836   4.392  0.00  0.00    +0.120 A 
ATOM      5  C   UNL     1      -0.241   0.509   4.222  0.00  0.00    +0.170 A 
ATOM      6  N   UNL     1       0.153   0.111   3.025  0.00  0.00    -0.208 NA
ATOM      7  N   UNL     1      -0.349  -0.105   5.457  0.00  0.00    -0.245 N 
ATOM      8  C   UNL     1      -0.824   0.794   6.340  0.00  0.00    +0.336 A 
ATOM      9  O   UNL     1      -1.036   0.575   7.517  0.00  0.00    -0.246 OA
ATOM     10  N   UNL     1      -1.029   1.974   5.722  0.00  0.00    -0.284 N 
ENDROOT
BRANCH   1  17
ATOM     11  C   UNL     1      -1.453   1.482  -0.352  0.00  0.00    +0.044 C 
ATOM     12  C   UNL     1      -0.160   0.717  -0.466  0.00  0.00    -0.040 A 
ATOM     13  C   UNL     1       0.272   0.268  -1.697  0.00  0.00    +0.004 A 
ATOM     14  C   UNL     1       1.458  -0.435  -1.803  0.00  0.00    +0.000 A 
ATOM     15  C   UNL     1       2.219  -0.692  -0.676  0.00  0.00    +0.001 A 
ATOM     16  C   UNL     1       1.798  -0.247   0.560  0.00  0.00    +0.012 A 
ATOM     17  C   UNL     1       0.605   0.467   0.672  0.00  0.00    +0.022 A 
ENDBRANCH   1  17
BRANCH   7  18
ATOM     18  C   UNL     1      -0.020  -1.438   5.742  0.00  0.00    +0.053 A 
ATOM     19  C   UNL     1       0.467  -2.264   4.738  0.00  0.00    +0.029 A 
ATOM     20  C   UNL     1       0.791  -3.576   5.021  0.00  0.00    +0.040 A 
ATOM     21  C   UNL     1       0.630  -4.069   6.304  0.00  0.00    +0.124 A 
ATOM     22  C   UNL     1       0.144  -3.247   7.307  0.00  0.00    +0.040 A 
ATOM     23  C   UNL     1      -0.176  -1.933   7.030  0.00  0.00    +0.029 A 
ATOM     24  F   UNL     1       0.946  -5.354   6.579  0.00  0.00    -0.205 F 
ENDBRANCH   7  18
BRANCH   3  25
ATOM     25  C   UNL     1      -1.116   4.094   3.413  0.00  0.00    +0.262 C 
ATOM     26  O   UNL     1      -0.760   4.762   4.363  0.00  0.00    -0.269 OA
ATOM     27  N   UNL     1      -1.919   4.633   2.473  0.00  0.00    -0.324 N 
ATOM     28  H   UNL     1      -2.203   4.099   1.715  0.00  0.00    +0.145 HD
ATOM     29  H   UNL     1      -2.211   5.553   2.556  0.00  0.00    +0.145 HD
ENDBRANCH   3  25
BRANCH  10  30
ATOM     30  C   UNL     1      -1.540   3.195   6.351  0.00  0.00    +0.162 C 
BRANCH  30  31
ATOM     31  C   UNL     1      -0.531   3.706   7.347  0.00  0.00    -0.028 A 
ATOM     32  C   UNL     1      -0.653   3.378   8.685  0.00  0.00    +0.005 A 
ATOM     33  C   UNL     1       0.273   3.847   9.598  0.00  0.00    +0.000 A 
ATOM     34  C   UNL     1       1.320   4.644   9.175  0.00  0.00    +0.000 A 
ATOM     35  C   UNL     1       1.442   4.971   7.837  0.00  0.00    +0.000 A 
ATOM     36  C   UNL     1       0.519   4.498   6.923  0.00  0.00    +0.005 A 
ENDBRANCH  30  31
ENDBRANCH  10  30
TORSDOF 5
