REMARK  Name = ZINC40148328
REMARK  3 active torsions:
REMARK  status: ('A' for Active; 'I' for Inactive)
REMARK    1  A    between atoms: C_1  and  C_2
REMARK    2  A    between atoms: C_5  and  C_7
REMARK    3  A    between atoms: C_11  and  C_15
REMARK                            x       y       z     vdW  Elec       q    Type
REMARK                         _______ _______ _______ _____ _____    ______ ____
ROOT
ATOM      1  C   UNL     1       1.054  -3.880  -0.025  0.00  0.00    -0.009 C 
ATOM      2  C   UNL     1       1.797  -4.350  -1.099  0.00  0.00    +0.076 C 
ATOM      3  C   UNL     1       2.317  -5.670  -1.030  0.00  0.00    +0.112 C 
ATOM      4  N   UNL     1       3.030  -6.174  -2.017  0.00  0.00    -0.226 NA
ATOM      5  C   UNL     1       3.291  -5.478  -3.109  0.00  0.00    +0.138 C 
ATOM      6  N   UNL     1       2.860  -4.248  -3.280  0.00  0.00    -0.160 NA
ATOM      7  C   UNL     1       2.128  -3.621  -2.355  0.00  0.00    +0.272 C 
ATOM      8  O   UNL     1       1.739  -2.478  -2.536  0.00  0.00    -0.268 OA
ATOM      9  S   UNL     1       1.788  -6.307   0.541  0.00  0.00    -0.100 S 
ATOM     10  C   UNL     1       0.870  -4.831   1.137  0.00  0.00    +0.113 C 
ENDROOT
BRANCH   1  15
ATOM     11  C   UNL     1      -0.018   1.503   0.010  0.00  0.00    +0.051 C 
ATOM     12  C   UNL     1       0.002  -0.004   0.002  0.00  0.00    -0.013 A 
ATOM     13  C   UNL     1      -1.062  -0.854   0.002  0.00  0.00    +0.011 A 
ATOM     14  C   UNL     1      -0.838  -2.203  -0.007  0.00  0.00    +0.016 A 
ATOM     15  C   UNL     1       0.508  -2.592  -0.016  0.00  0.00    +0.017 A 
ATOM     16  S   UNL     1       1.343  -1.016  -0.017  0.00  0.00    -0.094 S 
ENDBRANCH   1  15
BRANCH   5  17
ATOM     17  C   UNL     1       4.113  -6.117  -4.198  0.00  0.00    +0.182 C 
ATOM     18 CL   UNL     1       4.314  -4.954  -5.561  0.00  0.00    -0.117 Cl
ENDBRANCH   5  17
TORSDOF 2
