REMARK  Name = ZINC13131429
REMARK  5 active torsions:
REMARK  status: ('A' for Active; 'I' for Inactive)
REMARK    1  A    between atoms: C_1  and  C_2
REMARK    2  A    between atoms: C_2  and  O_3
REMARK    3  A    between atoms: O_3  and  C_4
REMARK    4  A    between atoms: C_9  and  C_10
REMARK    5  A    between atoms: C_13  and  C_22
REMARK                            x       y       z     vdW  Elec       q    Type
REMARK                         _______ _______ _______ _____ _____    ______ ____
ROOT
ATOM      1  C   UNL     1       1.990  -1.397  -3.491  0.00  0.00    +0.146 C 
ATOM      2  C   UNL     1       1.325  -1.664  -4.847  0.00  0.00    +0.059 C 
ATOM      3  C   UNL     1       2.090  -0.925  -5.952  0.00  0.00    +0.106 C 
ATOM      4  N   UNL     1       3.464  -1.459  -6.012  0.00  0.00    -0.307 N 
ATOM      5  C   UNL     1       4.098  -1.661  -4.793  0.00  0.00    +0.216 A 
ATOM      6  N   UNL     1       3.429  -1.631  -3.614  0.00  0.00    -0.224 N 
ATOM      7  N   UNL     1       4.371  -1.863  -2.611  0.00  0.00    -0.132 NA
ATOM      8  C   UNL     1       5.531  -2.019  -3.210  0.00  0.00    +0.233 A 
ATOM      9  N   UNL     1       5.357  -1.898  -4.540  0.00  0.00    -0.180 NA
ATOM     10  N   UNL     1       6.746  -2.272  -2.571  0.00  0.00    -0.326 N 
ATOM     11  H   UNL     1       3.900  -1.658  -6.855  0.00  0.00    +0.149 HD
ATOM     12  H   UNL     1       6.779  -2.347  -1.604  0.00  0.00    +0.145 HD
ATOM     13  H   UNL     1       7.557  -2.373  -3.093  0.00  0.00    +0.145 HD
ENDROOT
BRANCH   3  14
ATOM     14  C   UNL     1       2.128   0.549  -5.642  0.00  0.00    -0.027 A 
ATOM     15  C   UNL     1       3.049   1.040  -4.735  0.00  0.00    +0.007 A 
ATOM     16  C   UNL     1       3.085   2.392  -4.450  0.00  0.00    +0.020 A 
ATOM     17  C   UNL     1       2.200   3.254  -5.072  0.00  0.00    +0.041 A 
ATOM     18  C   UNL     1       1.279   2.762  -5.980  0.00  0.00    +0.020 A 
ATOM     19  C   UNL     1       1.248   1.411  -6.269  0.00  0.00    +0.007 A 
ATOM     20 CL   UNL     1       2.244   4.952  -4.714  0.00  0.00    -0.084 Cl
ENDBRANCH   3  14
BRANCH   1  26
ATOM     21  C   UNL     1       0.777  -1.810  -1.336  0.00  0.00    +0.126 A 
ATOM     22  C   UNL     1       0.243  -2.669  -0.386  0.00  0.00    +0.046 A 
ATOM     23  C   UNL     1       0.351  -4.036  -0.554  0.00  0.00    +0.004 A 
ATOM     24  C   UNL     1       0.991  -4.548  -1.667  0.00  0.00    +0.001 A 
ATOM     25  C   UNL     1       1.525  -3.695  -2.615  0.00  0.00    +0.009 A 
ATOM     26  C   UNL     1       1.414  -2.327  -2.455  0.00  0.00    +0.019 A 
BRANCH  21  27
ATOM     27  O   UNL     1       0.671  -0.465  -1.174  0.00  0.00    -0.492 OA
BRANCH  27  29
ATOM     28  C   UNL     1      -0.019   1.526   0.010  0.00  0.00    +0.048 C 
ATOM     29  C   UNL     1       0.002  -0.004   0.002  0.00  0.00    +0.225 C 
ENDBRANCH  27  29
ENDBRANCH  21  27
ENDBRANCH   1  26
TORSDOF 4
