REMARK  Name = ZINC15305598
REMARK  4 active torsions:
REMARK  status: ('A' for Active; 'I' for Inactive)
REMARK    1  A    between atoms: C_4  and  C_7
REMARK    2  A    between atoms: C_10  and  C_36
REMARK    3  A    between atoms: C_15  and  C_17
REMARK    4  A    between atoms: N_22  and  C_25
REMARK                            x       y       z     vdW  Elec       q    Type
REMARK                         _______ _______ _______ _____ _____    ______ ____
ROOT
ATOM      1  C   UNL     1       3.701  -0.707   0.032  0.00  0.00    +0.104 C 
ATOM      2  C   UNL     1       4.317  -1.327   1.291  0.00  0.00    +0.058 C 
ATOM      3  C   UNL     1       3.314  -2.282   1.947  0.00  0.00    +0.141 C 
ATOM      4  N   UNL     1       2.793  -3.196   0.927  0.00  0.00    -0.243 N 
ATOM      5  C   UNL     1       2.858  -2.951  -0.415  0.00  0.00    +0.119 A 
ATOM      6  C   UNL     1       2.293  -3.991  -1.060  0.00  0.00    +0.078 A 
ATOM      7  C   UNL     1       1.861  -4.915  -0.082  0.00  0.00    +0.149 A 
ATOM      8  N   UNL     1       2.166  -4.428   1.108  0.00  0.00    -0.164 NA
ATOM      9  N   UNL     1       3.429  -1.784  -0.941  0.00  0.00    -0.322 N 
ATOM     10  H   UNL     1       3.636  -1.688  -1.884  0.00  0.00    +0.148 HD
ENDROOT
BRANCH   7  11
ATOM     11  C   UNL     1       1.186  -6.203  -0.345  0.00  0.00    +0.267 C 
ATOM     12  O   UNL     1       1.072  -6.607  -1.486  0.00  0.00    -0.268 OA
ATOM     13  N   UNL     1       0.696  -6.928   0.680  0.00  0.00    -0.300 N 
ATOM     14  C   UNL     1       0.684  -6.391   2.049  0.00  0.00    +0.089 C 
ATOM     15  C   UNL     1      -0.725  -6.564   2.626  0.00  0.00    -0.059 C 
ATOM     16  N   UNL     1      -1.126  -7.972   2.524  0.00  0.00    +0.385 N 
ATOM     17  C   UNL     1      -1.227  -8.363   1.112  0.00  0.00    -0.059 C 
ATOM     18  C   UNL     1       0.152  -8.277   0.459  0.00  0.00    +0.089 C 
ATOM     19  H   UNL     1      -0.438  -8.550   2.983  0.00  0.00    -0.081 HD
BRANCH  16  20
ATOM     20  C   UNL     1      -2.429  -8.157   3.176  0.00  0.00    -0.065 C 
ATOM     21  C   UNL     1      -3.474  -7.278   2.486  0.00  0.00    -0.009 C 
ATOM     22  C   UNL     1      -4.832  -7.470   3.164  0.00  0.00    -0.012 C 
ATOM     23  C   UNL     1      -5.251  -8.938   3.059  0.00  0.00    +0.007 C 
ATOM     24  C   UNL     1      -4.206  -9.818   3.749  0.00  0.00    -0.012 C 
ATOM     25  C   UNL     1      -2.849  -9.625   3.071  0.00  0.00    -0.009 C 
ATOM     26  C   UNL     1      -4.100  -9.422   5.223  0.00  0.00    +0.007 C 
ATOM     27  C   UNL     1      -3.681  -7.954   5.329  0.00  0.00    -0.012 C 
ATOM     28  C   UNL     1      -4.725  -7.075   4.638  0.00  0.00    +0.007 C 
ATOM     29  C   UNL     1      -2.323  -7.762   4.650  0.00  0.00    -0.009 C 
ENDBRANCH  16  20
ENDBRANCH   7  11
BRANCH   1  33
ATOM     30  C   UNL     1       0.051   1.270   1.040  0.00  0.00    +0.000 A 
ATOM     31  C   UNL     1       1.211   2.003   0.871  0.00  0.00    +0.000 A 
ATOM     32  C   UNL     1       2.392   1.363   0.545  0.00  0.00    +0.005 A 
ATOM     33  C   UNL     1       2.414  -0.010   0.389  0.00  0.00    -0.027 A 
ATOM     34  C   UNL     1       1.255  -0.744   0.558  0.00  0.00    +0.005 A 
ATOM     35  C   UNL     1       0.073  -0.104   0.883  0.00  0.00    +0.000 A 
ENDBRANCH   1  33
BRANCH   3  36
ATOM     36  C   UNL     1       4.002  -3.070   3.032  0.00  0.00    -0.023 A 
ATOM     37  C   UNL     1       5.082  -3.876   2.721  0.00  0.00    +0.006 A 
ATOM     38  C   UNL     1       5.713  -4.599   3.716  0.00  0.00    +0.000 A 
ATOM     39  C   UNL     1       5.265  -4.516   5.021  0.00  0.00    +0.000 A 
ATOM     40  C   UNL     1       4.187  -3.710   5.332  0.00  0.00    +0.000 A 
ATOM     41  C   UNL     1       3.558  -2.983   4.338  0.00  0.00    +0.006 A 
ENDBRANCH   3  36
TORSDOF 4
