REMARK  Name = ZINC39969052
REMARK  8 active torsions:
REMARK  status: ('A' for Active; 'I' for Inactive)
REMARK    1  A    between atoms: C_1  and  C_2
REMARK    2  A    between atoms: C_2  and  C_4
REMARK    3  A    between atoms: C_2  and  N_25
REMARK    4  A    between atoms: C_8  and  S_11
REMARK    5  A    between atoms: N_9  and  C_10
REMARK    6  A    between atoms: S_11  and  C_12
REMARK    7  A    between atoms: C_12  and  C_13
REMARK    8  A    between atoms: C_26  and  C_28
REMARK                            x       y       z     vdW  Elec       q    Type
REMARK                         _______ _______ _______ _____ _____    ______ ____
ROOT
ATOM      1  C   UNL     1       0.742  -0.511   1.242  0.00  0.00    +0.197 C 
ATOM      2  N   UNL     1       0.119   0.017   2.467  0.00  0.00    -0.245 N 
ATOM      3  N   UNL     1       1.103   0.782   3.106  0.00  0.00    -0.163 NA
ATOM      4  C   UNL     1       2.208   0.782   2.440  0.00  0.00    +0.175 C 
ATOM      5  N   UNL     1       2.114   0.024   1.279  0.00  0.00    -0.290 N 
ATOM      6  C   UNL     1       3.168  -0.200   0.287  0.00  0.00    +0.133 C 
ATOM      7  H   UNL     1      -0.790  -0.134   2.771  0.00  0.00    +0.170 HD
ENDROOT
BRANCH   1   9
ATOM      8  C   UNL     1      -0.019   1.526   0.010  0.00  0.00    +0.031 C 
ATOM      9  C   UNL     1       0.002  -0.004   0.002  0.00  0.00    +0.110 C 
BRANCH   9  10
ATOM     10  N   UNL     1      -1.372  -0.511   0.012  0.00  0.00    -0.305 N 
ATOM     11  C   UNL     1      -2.051  -0.643  -1.145  0.00  0.00    +0.244 C 
ATOM     12  O   UNL     1      -1.522  -0.341  -2.197  0.00  0.00    -0.270 OA
ATOM     13  H   UNL     1      -1.794  -0.752   0.852  0.00  0.00    +0.149 HD
BRANCH  11  14
ATOM     14  C   UNL     1      -3.438  -1.155  -1.134  0.00  0.00    +0.037 A 
ATOM     15  C   UNL     1      -4.050  -1.497   0.073  0.00  0.00    +0.013 A 
ATOM     16  C   UNL     1      -5.344  -1.973   0.076  0.00  0.00    +0.001 A 
ATOM     17  C   UNL     1      -6.036  -2.112  -1.114  0.00  0.00    +0.000 A 
ATOM     18  C   UNL     1      -5.435  -1.775  -2.314  0.00  0.00    +0.001 A 
ATOM     19  C   UNL     1      -4.143  -1.292  -2.331  0.00  0.00    +0.013 A 
ENDBRANCH  11  14
ENDBRANCH   9  10
ENDBRANCH   1   9
BRANCH   4  20
ATOM     20  S   UNL     1       3.663   1.640   2.943  0.00  0.00    -0.081 S 
BRANCH  20  21
ATOM     21  C   UNL     1       3.188   2.431   4.505  0.00  0.00    +0.151 C 
BRANCH  21  22
ATOM     22  C   UNL     1       4.359   3.208   5.050  0.00  0.00    +0.121 A 
ATOM     23  N   UNL     1       4.201   3.871   6.225  0.00  0.00    -0.310 N 
ATOM     24  H   UNL     1       3.349   3.834   6.688  0.00  0.00    +0.170 HD
ATOM     25  C   UNL     1       5.222   4.583   6.758  0.00  0.00    +0.259 A 
ATOM     26  O   UNL     1       5.094   5.181   7.810  0.00  0.00    -0.267 OA
ATOM     27  C   UNL     1       6.491   4.605   6.015  0.00  0.00    +0.065 A 
ATOM     28  C   UNL     1       7.602   5.307   6.476  0.00  0.00    +0.015 A 
ATOM     29  C   UNL     1       8.767   5.294   5.740  0.00  0.00    +0.001 A 
ATOM     30  C   UNL     1       8.840   4.588   4.546  0.00  0.00    +0.002 A 
ATOM     31  C   UNL     1       7.753   3.888   4.073  0.00  0.00    +0.028 A 
ATOM     32  C   UNL     1       6.561   3.885   4.802  0.00  0.00    +0.078 A 
ATOM     33  N   UNL     1       5.468   3.205   4.376  0.00  0.00    -0.233 NA
ENDBRANCH  21  22
ENDBRANCH  20  21
ENDBRANCH   4  20
TORSDOF 6
