REMARK  Name = ZINC62320727
REMARK  10 active torsions:
REMARK  status: ('A' for Active; 'I' for Inactive)
REMARK    1  A    between atoms: C_1  and  C_2
REMARK    2  A    between atoms: C_2  and  C_3
REMARK    3  A    between atoms: C_2  and  C_4
REMARK    4  A    between atoms: C_4  and  C_5
REMARK    5  A    between atoms: C_5  and  N_6
REMARK    6  A    between atoms: C_8  and  C_18
REMARK    7  A    between atoms: C_16  and  N_17
REMARK    8  A    between atoms: N_20  and  C_21
REMARK    9  A    between atoms: C_21  and  C_22
REMARK   10  A    between atoms: C_21  and  C_23
REMARK                            x       y       z     vdW  Elec       q    Type
REMARK                         _______ _______ _______ _____ _____    ______ ____
ROOT
ATOM      1  N   UNL     1       0.451  -0.558   3.426  0.00  0.00    -0.346 N 
ATOM      2  C   UNL     1       0.031  -1.784   3.765  0.00  0.00    +0.103 A 
ATOM      3  C   UNL     1       0.532  -2.455   4.860  0.00  0.00    +0.100 A 
ATOM      4  C   UNL     1       1.563  -1.803   5.685  0.00  0.00    +0.203 A 
ATOM      5  O   UNL     1       2.037  -2.354   6.663  0.00  0.00    -0.286 OA
ATOM      6  C   UNL     1       1.996  -0.457   5.279  0.00  0.00    +0.066 A 
ATOM      7  C   UNL     1       1.415   0.124   4.137  0.00  0.00    +0.055 A 
ATOM      8  C   UNL     1       1.820   1.394   3.740  0.00  0.00    +0.026 A 
ATOM      9  C   UNL     1       2.786   2.070   4.457  0.00  0.00    +0.004 A 
ATOM     10  C   UNL     1       3.366   1.501   5.578  0.00  0.00    +0.023 A 
ATOM     11  C   UNL     1       2.972   0.241   6.004  0.00  0.00    +0.037 A 
ENDROOT
BRANCH   3  12
ATOM     12  C   UNL     1       0.044  -3.801   5.200  0.00  0.00    +0.249 C 
ATOM     13  O   UNL     1      -0.881  -4.288   4.578  0.00  0.00    -0.270 OA
ATOM     14  N   UNL     1       0.623  -4.495   6.200  0.00  0.00    -0.309 N 
ATOM     15  H   UNL     1       1.310  -4.079   6.745  0.00  0.00    +0.149 HD
BRANCH  14  16
ATOM     16  C   UNL     1       0.214  -5.876   6.465  0.00  0.00    +0.067 C 
ATOM     17  C   UNL     1       0.996  -6.824   5.553  0.00  0.00    +0.027 C 
ATOM     18  C   UNL     1       0.503  -6.222   7.928  0.00  0.00    +0.027 C 
ENDBRANCH  14  16
ENDBRANCH   3  12
BRANCH  11  19
ATOM     19  N   UNL     1       3.553  -0.332   7.129  0.00  0.00    -0.357 N 
ATOM     20  H   UNL     1       3.344  -1.248   7.369  0.00  0.00    +0.142 HD
ATOM     21  H   UNL     1       4.166   0.185   7.675  0.00  0.00    +0.142 HD
ENDBRANCH  11  19
BRANCH   1  22
ATOM     22  C   UNL     1      -0.135   0.083   2.246  0.00  0.00    +0.122 C 
BRANCH  22  23
ATOM     23  C   UNL     1       0.687  -0.280   1.007  0.00  0.00    +0.024 C 
BRANCH  23  25
ATOM     24  C   UNL     1       0.195   1.909  -0.092  0.00  0.00    +0.007 C 
ATOM     25  C   UNL     1       0.075   0.389  -0.225  0.00  0.00    -0.016 C 
ATOM     26  C   UNL     1       0.821  -0.073  -1.479  0.00  0.00    +0.007 C 
ENDBRANCH  23  25
ENDBRANCH  22  23
ENDBRANCH   1  22
TORSDOF 6
