REMARK  Name = ZINC39688749
REMARK  10 active torsions:
REMARK  status: ('A' for Active; 'I' for Inactive)
REMARK    1  A    between atoms: C_1  and  C_2
REMARK    2  A    between atoms: C_2  and  C_4
REMARK    3  A    between atoms: C_2  and  N_12
REMARK    4  A    between atoms: C_4  and  C_5
REMARK    5  A    between atoms: C_13  and  C_15
REMARK    6  A    between atoms: C_26  and  C_28
REMARK    7  A    between atoms: C_28  and  C_29
REMARK    8  A    between atoms: C_29  and  C_30
REMARK    9  A    between atoms: C_33  and  O_36
REMARK   10  A    between atoms: O_36  and  C_37
REMARK                            x       y       z     vdW  Elec       q    Type
REMARK                         _______ _______ _______ _____ _____    ______ ____
ROOT
ATOM      1  C   UNL     1      -3.347  -1.363   1.035  0.00  0.00    +0.100 C 
ATOM      2  C   UNL     1      -3.319  -2.846   0.601  0.00  0.00    +0.121 C 
ATOM      3  N   UNL     1      -3.288  -3.607   1.872  0.00  0.00    -0.300 N 
ATOM      4  C   UNL     1      -4.203  -2.864   2.770  0.00  0.00    +0.115 C 
ATOM      5  C   UNL     1      -3.931  -1.379   2.457  0.00  0.00    -0.004 C 
ATOM      6  C   UNL     1      -5.232  -0.582   2.503  0.00  0.00    -0.010 C 
ATOM      7  C   UNL     1      -5.763  -0.563   3.939  0.00  0.00    -0.082 C 
ATOM      8  N   UNL     1      -4.762   0.044   4.825  0.00  0.00    +0.379 N 
ATOM      9  C   UNL     1      -3.547  -0.779   4.847  0.00  0.00    -0.082 C 
ATOM     10  C   UNL     1      -2.922  -0.807   3.449  0.00  0.00    -0.010 C 
ATOM     11  C   UNL     1      -2.586  -4.724   2.149  0.00  0.00    +0.216 C 
ATOM     12  O   UNL     1      -2.735  -5.286   3.213  0.00  0.00    -0.276 OA
ATOM     13  H   UNL     1      -4.535   0.968   4.489  0.00  0.00    -0.086 HD
ATOM     14  H   UNL     1      -5.138   0.112   5.759  0.00  0.00    -0.086 HD
ENDROOT
BRANCH   1  16
ATOM     15  N   UNL     1      -1.760   0.525   0.845  0.00  0.00    -0.312 N 
ATOM     16  C   UNL     1      -1.952  -0.794   1.046  0.00  0.00    +0.218 C 
ATOM     17  O   UNL     1      -1.001  -1.522   1.238  0.00  0.00    -0.275 OA
ATOM     18  H   UNL     1      -2.513   1.096   0.622  0.00  0.00    +0.149 HD
BRANCH  15  20
ATOM     19  C   UNL     1      -0.152   1.484   2.417  0.00  0.00    +0.028 C 
ATOM     20  C   UNL     1      -0.417   1.096   0.961  0.00  0.00    +0.074 C 
BRANCH  20  21
ATOM     21  C   UNL     1      -0.312   2.339   0.075  0.00  0.00    +0.057 C 
BRANCH  21  22
ATOM     22  C   UNL     1      -0.441   1.937  -1.372  0.00  0.00    -0.045 A 
ATOM     23  C   UNL     1       0.666   1.485  -2.064  0.00  0.00    +0.006 A 
ATOM     24  C   UNL     1       0.549   1.115  -3.391  0.00  0.00    +0.038 A 
ATOM     25  C   UNL     1      -0.678   1.198  -4.026  0.00  0.00    +0.123 A 
ATOM     26  C   UNL     1      -1.787   1.651  -3.332  0.00  0.00    +0.038 A 
ATOM     27  C   UNL     1      -1.668   2.015  -2.004  0.00  0.00    +0.006 A 
ATOM     28  F   UNL     1      -0.793   0.838  -5.323  0.00  0.00    -0.205 F 
ENDBRANCH  21  22
ENDBRANCH  20  21
ENDBRANCH  15  20
ENDBRANCH   1  16
BRANCH  11  29
ATOM     29  C   UNL     1      -1.615  -5.274   1.136  0.00  0.00    +0.100 C 
BRANCH  29  30
ATOM     30  C   UNL     1      -1.055  -6.607   1.637  0.00  0.00    +0.044 C 
BRANCH  30  31
ATOM     31  C   UNL     1      -0.010  -7.107   0.673  0.00  0.00    -0.047 A 
ATOM     32  C   UNL     1      -0.390  -7.840  -0.436  0.00  0.00    +0.007 A 
ATOM     33  C   UNL     1       0.566  -8.301  -1.321  0.00  0.00    +0.046 A 
ATOM     34  C   UNL     1       1.907  -8.027  -1.096  0.00  0.00    +0.120 A 
ATOM     35  C   UNL     1       2.285  -7.291   0.018  0.00  0.00    +0.046 A 
ATOM     36  C   UNL     1       1.325  -6.828   0.897  0.00  0.00    +0.007 A 
BRANCH  34  37
ATOM     37  O   UNL     1       2.849  -8.479  -1.965  0.00  0.00    -0.495 OA
ATOM     38  C   UNL     1       4.211  -8.159  -1.670  0.00  0.00    +0.277 C 
ENDBRANCH  34  37
ENDBRANCH  30  31
ENDBRANCH  29  30
ENDBRANCH  11  29
TORSDOF 8
