REMARK  Name = ZINC39777484
REMARK  8 active torsions:
REMARK  status: ('A' for Active; 'I' for Inactive)
REMARK    1  A    between atoms: C_4  and  C_7
REMARK    2  A    between atoms: C_7  and  N_8
REMARK    3  A    between atoms: C_11  and  N_14
REMARK    4  A    between atoms: C_15  and  C_17
REMARK    5  A    between atoms: C_17  and  S_18
REMARK    6  A    between atoms: S_18  and  C_19
REMARK    7  A    between atoms: C_23  and  C_28
REMARK    8  A    between atoms: N_24  and  C_25
REMARK                            x       y       z     vdW  Elec       q    Type
REMARK                         _______ _______ _______ _____ _____    ______ ____
ROOT
ATOM      1  S   UNL     1      10.467  -2.241   4.973  0.00  0.00    -0.109 S 
ENDROOT
BRANCH   1   2
ATOM      2  C   UNL     1      12.236  -1.873   4.816  0.00  0.00    +0.237 C 
ATOM      3  N   UNL     1      12.435  -0.569   4.163  0.00  0.00    -0.237 N 
ATOM      4  N   UNL     1      13.144  -0.820   2.982  0.00  0.00    -0.169 NA
ATOM      5  C   UNL     1      13.396  -2.095   2.841  0.00  0.00    +0.147 C 
ATOM      6  N   UNL     1      12.884  -2.838   3.912  0.00  0.00    -0.282 N 
ATOM      7  H   UNL     1      12.134   0.294   4.487  0.00  0.00    +0.171 HD
BRANCH   5   8
ATOM      8  C   UNL     1      14.091  -2.649   1.755  0.00  0.00    +0.022 C 
ATOM      9  C   UNL     1      14.710  -1.961   0.711  0.00  0.00    +0.006 A 
ATOM     10  C   UNL     1      14.838  -0.587   0.418  0.00  0.00    +0.010 A 
ATOM     11  C   UNL     1      15.512  -0.195  -0.694  0.00  0.00    +0.001 A 
ATOM     12  C   UNL     1      16.088  -1.122  -1.564  0.00  0.00    +0.002 A 
ATOM     13  C   UNL     1      16.004  -2.458  -1.345  0.00  0.00    +0.026 A 
ATOM     14  C   UNL     1      15.316  -2.943  -0.203  0.00  0.00    +0.043 A 
ATOM     15  N   UNL     1      15.097  -4.170   0.227  0.00  0.00    -0.380 N 
ATOM     16  C   UNL     1      14.330  -4.116   1.475  0.00  0.00    +0.152 C 
ATOM     17  H   UNL     1      15.401  -4.981  -0.210  0.00  0.00    +0.160 HD
ENDBRANCH   5   8
BRANCH   6  18
ATOM     18  C   UNL     1      12.974  -4.288   4.098  0.00  0.00    +0.078 C 
ATOM     19  C   UNL     1      12.261  -4.891   5.310  0.00  0.00    +0.024 C 
ATOM     20  C   UNL     1      13.788  -4.798   5.290  0.00  0.00    +0.024 C 
ENDBRANCH   6  18
ENDBRANCH   1   2
BRANCH   1  21
ATOM     21  C   UNL     1       9.848  -2.153   3.270  0.00  0.00    +0.168 C 
BRANCH  21  23
ATOM     22  N   UNL     1       7.690  -2.433   2.093  0.00  0.00    -0.314 N 
ATOM     23  C   UNL     1       8.369  -2.442   3.257  0.00  0.00    +0.223 C 
ATOM     24  O   UNL     1       7.789  -2.684   4.295  0.00  0.00    -0.275 OA
ATOM     25  H   UNL     1       8.154  -2.240   1.263  0.00  0.00    +0.149 HD
BRANCH  22  29
ATOM     26  N   UNL     1       4.465  -2.584   0.488  0.00  0.00    +0.384 N 
ATOM     27  C   UNL     1       4.591  -1.224   1.072  0.00  0.00    -0.077 C 
ATOM     28  C   UNL     1       5.451  -1.421   2.338  0.00  0.00    +0.002 C 
ATOM     29  C   UNL     1       6.253  -2.714   2.081  0.00  0.00    +0.055 C 
ATOM     30  C   UNL     1       5.809  -3.189   0.680  0.00  0.00    -0.056 C 
ATOM     31  H   UNL     1       3.765  -3.118   0.980  0.00  0.00    -0.081 HD
BRANCH  26  32
ATOM     32  C   UNL     1       4.139  -2.502  -0.942  0.00  0.00    -0.043 C 
BRANCH  32  36
ATOM     33  C   UNL     1       0.137  -1.082  -1.411  0.00  0.00    +0.000 A 
ATOM     34  C   UNL     1       1.188  -0.185  -1.361  0.00  0.00    +0.000 A 
ATOM     35  C   UNL     1       2.483  -0.644  -1.209  0.00  0.00    +0.002 A 
ATOM     36  C   UNL     1       2.727  -2.001  -1.106  0.00  0.00    -0.064 A 
ATOM     37  C   UNL     1       1.676  -2.898  -1.155  0.00  0.00    +0.002 A 
ATOM     38  C   UNL     1       0.382  -2.439  -1.308  0.00  0.00    +0.000 A 
ENDBRANCH  32  36
ENDBRANCH  26  32
ENDBRANCH  22  29
ENDBRANCH  21  23
ENDBRANCH   1  21
TORSDOF 8
