REMARK  Name = ZINC25630468
REMARK  11 active torsions:
REMARK  status: ('A' for Active; 'I' for Inactive)
REMARK    1  A    between atoms: C_1  and  C_2
REMARK    2  A    between atoms: C_5  and  N_8
REMARK    3  A    between atoms: C_12  and  C_14
REMARK    4  A    between atoms: C_14  and  C_16
REMARK    5  A    between atoms: C_14  and  S_17
REMARK    6  A    between atoms: S_17  and  C_18
REMARK    7  A    between atoms: C_21  and  C_30
REMARK    8  A    between atoms: N_22  and  C_23
REMARK    9  A    between atoms: C_23  and  C_24
REMARK   10  A    between atoms: C_33  and  O_36
REMARK   11  A    between atoms: O_36  and  C_37
REMARK                            x       y       z     vdW  Elec       q    Type
REMARK                         _______ _______ _______ _____ _____    ______ ____
ROOT
ATOM      1  C   UNL     1      -2.086  -0.144   1.289  0.00  0.00    +0.193 A 
ATOM      2  N   UNL     1      -0.844  -0.562   1.384  0.00  0.00    -0.122 NA
ATOM      3  N   UNL     1      -0.815  -1.843   1.481  0.00  0.00    -0.128 NA
ATOM      4  C   UNL     1      -2.037  -2.323   1.445  0.00  0.00    +0.165 A 
ATOM      5  N   UNL     1      -2.888  -1.250   1.320  0.00  0.00    -0.300 N 
ENDROOT
BRANCH   4   6
ATOM      6  C   UNL     1      -2.424  -3.747   1.523  0.00  0.00    +0.020 A 
ATOM      7  C   UNL     1      -1.534  -4.686   2.047  0.00  0.00    +0.015 A 
ATOM      8  C   UNL     1      -1.901  -6.013   2.123  0.00  0.00    +0.046 A 
ATOM      9  C   UNL     1      -3.149  -6.417   1.668  0.00  0.00    +0.120 A 
ATOM     10  C   UNL     1      -4.035  -5.487   1.141  0.00  0.00    +0.046 A 
ATOM     11  C   UNL     1      -3.678  -4.158   1.066  0.00  0.00    +0.015 A 
BRANCH   9  12
ATOM     12  O   UNL     1      -3.505  -7.727   1.739  0.00  0.00    -0.495 OA
ATOM     13  C   UNL     1      -2.546  -8.630   2.293  0.00  0.00    +0.277 C 
ENDBRANCH   9  12
ENDBRANCH   4   6
BRANCH   1  14
ATOM     14  S   UNL     1      -2.617   1.529   1.140  0.00  0.00    -0.074 S 
BRANCH  14  15
ATOM     15  C   UNL     1      -1.016   2.372   1.173  0.00  0.00    +0.137 C 
ATOM     16  C   UNL     1      -0.207   1.980  -0.065  0.00  0.00    +0.029 C 
BRANCH  15  21
ATOM     17  N   UNL     1       0.536   6.841   2.029  0.00  0.00    -0.269 N 
ATOM     18  C   UNL     1      -0.445   6.019   1.608  0.00  0.00    +0.310 C 
ATOM     19  O   UNL     1      -1.505   6.480   1.233  0.00  0.00    -0.252 OA
ATOM     20  N   UNL     1      -0.251   4.685   1.602  0.00  0.00    -0.239 N 
ATOM     21  C   UNL     1      -1.233   3.863   1.180  0.00  0.00    +0.234 C 
ATOM     22  O   UNL     1      -2.290   4.324   0.806  0.00  0.00    -0.274 OA
ATOM     23  H   UNL     1       1.520   6.429   2.300  0.00  0.00    +0.156 HD
ATOM     24  H   UNL     1       0.708   4.267   1.941  0.00  0.00    +0.159 HD
BRANCH  17  29
ATOM     25  C   UNL     1      -0.405  12.423   2.405  0.00  0.00    +0.044 C 
ATOM     26  C   UNL     1      -0.154  10.940   2.305  0.00  0.00    -0.050 A 
ATOM     27  C   UNL     1       0.665  10.315   3.227  0.00  0.00    +0.005 A 
ATOM     28  C   UNL     1       0.896   8.956   3.138  0.00  0.00    +0.023 A 
ATOM     29  C   UNL     1       0.304   8.217   2.122  0.00  0.00    +0.035 A 
ATOM     30  C   UNL     1      -0.514   8.849   1.194  0.00  0.00    +0.023 A 
ATOM     31  C   UNL     1      -0.745  10.207   1.292  0.00  0.00    +0.005 A 
ENDBRANCH  17  29
ENDBRANCH  15  21
ENDBRANCH  14  15
ENDBRANCH   1  14
BRANCH   5  32
ATOM     32  C   UNL     1      -4.351  -1.285   1.239  0.00  0.00    +0.157 C 
BRANCH  32  33
ATOM     33  C   UNL     1      -4.780  -1.288  -0.230  0.00  0.00    +0.138 C 
ATOM     34  C   UNL     1      -6.322  -1.380  -0.339  0.00  0.00    +0.035 C 
ATOM     35  C   UNL     1      -6.558  -0.736  -1.732  0.00  0.00    +0.031 C 
ATOM     36  C   UNL     1      -5.449   0.337  -1.790  0.00  0.00    +0.160 C 
ATOM     37  O   UNL     1      -4.433  -0.041  -0.853  0.00  0.00    -0.375 OA
ENDBRANCH  32  33
ENDBRANCH   5  32
TORSDOF 8
