REMARK  Name = ZINC67629551
REMARK  9 active torsions:
REMARK  status: ('A' for Active; 'I' for Inactive)
REMARK    1  A    between atoms: C_1  and  C_2
REMARK    2  A    between atoms: C_2  and  C_4
REMARK    3  A    between atoms: C_2  and  O_13
REMARK    4  A    between atoms: C_9  and  N_10
REMARK    5  A    between atoms: O_13  and  C_14
REMARK    6  A    between atoms: C_14  and  C_16
REMARK    7  A    between atoms: C_16  and  N_17
REMARK    8  A    between atoms: N_20  and  C_21
REMARK    9  A    between atoms: C_21  and  C_22
REMARK                            x       y       z     vdW  Elec       q    Type
REMARK                         _______ _______ _______ _____ _____    ______ ____
ROOT
ATOM      1  C   UNL     1       2.834  -2.359   1.699  0.00  0.00    +0.226 C 
ENDROOT
BRANCH   1   2
ATOM      2  N   UNL     1       4.175  -2.655   1.189  0.00  0.00    -0.289 N 
ATOM      3  C   UNL     1       5.049  -3.344   1.949  0.00  0.00    +0.300 C 
ATOM      4  O   UNL     1       4.724  -3.720   3.059  0.00  0.00    -0.253 OA
ATOM      5  N   UNL     1       6.282  -3.617   1.480  0.00  0.00    -0.295 N 
ATOM      6  H   UNL     1       4.434  -2.355   0.303  0.00  0.00    +0.151 HD
ATOM      7  H   UNL     1       6.541  -3.317   0.594  0.00  0.00    +0.151 HD
BRANCH   5   8
ATOM      8  C   UNL     1       7.232  -4.366   2.306  0.00  0.00    +0.141 C 
BRANCH   8   9
ATOM      9  C   UNL     1       8.527  -4.535   1.555  0.00  0.00    -0.030 A 
ATOM     10  C   UNL     1       8.715  -5.636   0.741  0.00  0.00    +0.006 A 
ATOM     11  C   UNL     1       9.903  -5.792   0.051  0.00  0.00    +0.020 A 
ATOM     12  C   UNL     1      10.904  -4.846   0.177  0.00  0.00    +0.041 A 
ATOM     13  C   UNL     1      10.716  -3.744   0.992  0.00  0.00    +0.020 A 
ATOM     14  C   UNL     1       9.525  -3.586   1.677  0.00  0.00    +0.006 A 
ATOM     15 CL   UNL     1      12.397  -5.041  -0.688  0.00  0.00    -0.084 Cl
ENDBRANCH   8   9
ENDBRANCH   5   8
ENDBRANCH   1   2
BRANCH   1  16
ATOM     16  C   UNL     1       2.062  -1.584   0.663  0.00  0.00    +0.325 C 
ATOM     17  O   UNL     1       2.578  -1.308  -0.394  0.00  0.00    -0.249 OA
BRANCH  16  18
ATOM     18  O   UNL     1       0.800  -1.201   0.913  0.00  0.00    -0.456 OA
BRANCH  18  20
ATOM     19  C   UNL     1       0.375   1.027   0.080  0.00  0.00    +0.057 C 
ATOM     20  C   UNL     1       0.128  -0.470  -0.114  0.00  0.00    +0.206 C 
BRANCH  20  21
ATOM     21  C   UNL     1      -1.352  -0.749  -0.043  0.00  0.00    +0.023 A 
ATOM     22  C   UNL     1      -1.916  -1.189   1.140  0.00  0.00    +0.009 A 
ATOM     23  C   UNL     1      -3.273  -1.445   1.205  0.00  0.00    +0.001 A 
ATOM     24  C   UNL     1      -4.066  -1.259   0.088  0.00  0.00    +0.002 A 
ATOM     25  C   UNL     1      -3.502  -0.818  -1.094  0.00  0.00    +0.033 A 
ATOM     26  C   UNL     1      -2.145  -0.558  -1.158  0.00  0.00    +0.133 A 
BRANCH  26  27
ATOM     27  N   UNL     1      -1.542  -0.081  -2.423  0.00  0.00    +0.057 N 
ATOM     28  O   UNL     1      -2.211  -0.024  -3.428  0.00  0.00    -0.126 OA
ATOM     29  O   UNL     1      -0.380   0.253  -2.450  0.00  0.00    -0.126 OA
ENDBRANCH  26  27
ENDBRANCH  20  21
ENDBRANCH  18  20
ENDBRANCH  16  18
ENDBRANCH   1  16
TORSDOF 8
