REMARK  Name = ZINC14720406
REMARK  17 active torsions:
REMARK  status: ('A' for Active; 'I' for Inactive)
REMARK    1  A    between atoms: C_1  and  C_2
REMARK    2  A    between atoms: C_2  and  C_3
REMARK    3  A    between atoms: C_3  and  C_4
REMARK    4  A    between atoms: C_4  and  N_5
REMARK    5  A    between atoms: N_5  and  C_6
REMARK    6  A    between atoms: C_7  and  N_19
REMARK    7  A    between atoms: N_8  and  C_15
REMARK    8  A    between atoms: C_15  and  C_16
REMARK    9  A    between atoms: C_16  and  C_17
REMARK   10  A    between atoms: C_16  and  C_18
REMARK   11  A    between atoms: C_20  and  C_22
REMARK   12  A    between atoms: C_22  and  C_23
REMARK   13  A    between atoms: C_26  and  O_29
REMARK   14  A    between atoms: O_29  and  C_30
REMARK   15  A    between atoms: C_30  and  C_31
REMARK   16  A    between atoms: C_32  and  C_37
REMARK   17  A    between atoms: C_35  and  C_36
REMARK                            x       y       z     vdW  Elec       q    Type
REMARK                         _______ _______ _______ _____ _____    ______ ____
ROOT
ATOM      1  N   UNL     1      -6.322  -7.187  -2.322  0.00  0.00    -0.264 N 
ATOM      2  C   UNL     1      -5.496  -6.183  -1.963  0.00  0.00    +0.224 C 
ATOM      3  O   UNL     1      -4.355  -6.426  -1.629  0.00  0.00    -0.275 OA
ENDROOT
BRANCH   1   4
ATOM      4  C   UNL     1      -5.833  -8.508  -2.403  0.00  0.00    +0.140 A 
ATOM      5  C   UNL     1      -4.858  -8.840  -3.321  0.00  0.00    +0.127 A 
ATOM      6  N   UNL     1      -4.397 -10.136  -3.373  0.00  0.00    -0.280 N 
ATOM      7  C   UNL     1      -4.900 -11.070  -2.546  0.00  0.00    +0.331 A 
ATOM      8  O   UNL     1      -4.484 -12.211  -2.611  0.00  0.00    -0.246 OA
ATOM      9  N   UNL     1      -5.854 -10.766  -1.649  0.00  0.00    -0.273 N 
ATOM     10  H   UNL     1      -6.211 -11.479  -1.045  0.00  0.00    +0.173 HD
ATOM     11  C   UNL     1      -6.336  -9.511  -1.553  0.00  0.00    +0.277 A 
ATOM     12  O   UNL     1      -7.201  -9.246  -0.736  0.00  0.00    -0.266 OA
BRANCH   5  13
ATOM     13  N   UNL     1      -4.349  -7.887  -4.170  0.00  0.00    -0.343 N 
ATOM     14  H   UNL     1      -4.716  -6.989  -4.167  0.00  0.00    +0.144 HD
ATOM     15  H   UNL     1      -3.624  -8.112  -4.774  0.00  0.00    +0.144 HD
ENDBRANCH   5  13
BRANCH   6  16
ATOM     16  C   UNL     1      -3.358 -10.501  -4.338  0.00  0.00    +0.131 C 
BRANCH  16  17
ATOM     17  C   UNL     1      -4.012 -10.943  -5.649  0.00  0.00    +0.003 C 
ATOM     18  C   UNL     1      -2.929 -11.205  -6.697  0.00  0.00    +0.009 C 
ATOM     19  C   UNL     1      -4.813 -12.225  -5.412  0.00  0.00    +0.009 C 
ENDBRANCH  16  17
ENDBRANCH   6  16
ENDBRANCH   1   4
BRANCH   1  20
ATOM     20  C   UNL     1      -7.727  -6.906  -2.627  0.00  0.00    +0.114 C 
BRANCH  20  21
ATOM     21  C   UNL     1      -7.877  -6.618  -4.122  0.00  0.00    +0.019 C 
BRANCH  21  23
ATOM     22  C   UNL     1      -9.493  -6.037  -5.936  0.00  0.00    +0.004 C 
ATOM     23  C   UNL     1      -9.344  -6.324  -4.441  0.00  0.00    -0.002 C 
ENDBRANCH  21  23
ENDBRANCH  20  21
ENDBRANCH   1  20
BRANCH   2  24
ATOM     24  C   UNL     1      -5.990  -4.759  -1.976  0.00  0.00    +0.131 C 
BRANCH  24  25
ATOM     25  C   UNL     1      -4.880  -3.838  -1.537  0.00  0.00    -0.038 A 
ATOM     26  C   UNL     1      -4.016  -3.304  -2.474  0.00  0.00    +0.007 A 
ATOM     27  C   UNL     1      -2.998  -2.459  -2.074  0.00  0.00    +0.046 A 
ATOM     28  C   UNL     1      -2.844  -2.148  -0.731  0.00  0.00    +0.121 A 
ATOM     29  C   UNL     1      -3.709  -2.691   0.208  0.00  0.00    +0.046 A 
ATOM     30  C   UNL     1      -4.729  -3.530  -0.197  0.00  0.00    +0.007 A 
BRANCH  28  31
ATOM     31  O   UNL     1      -1.844  -1.318  -0.335  0.00  0.00    -0.487 OA
BRANCH  31  32
ATOM     32  C   UNL     1      -1.745  -1.042   1.064  0.00  0.00    +0.269 C 
BRANCH  32  33
ATOM     33  C   UNL     1      -0.587  -0.110   1.312  0.00  0.00    +0.054 A 
ATOM     34  C   UNL     1       0.759  -0.448   1.580  0.00  0.00    +0.087 A 
ATOM     35  N   UNL     1       1.398   0.677   1.725  0.00  0.00    -0.083 NA
ATOM     36  O   UNL     1       0.663   1.628   1.589  0.00  0.00    -0.359 OA
ATOM     37  C   UNL     1      -0.595   1.244   1.329  0.00  0.00    +0.141 A 
ATOM     38  C   UNL     1      -1.782   2.143   1.096  0.00  0.00    +0.089 C 
ATOM     39  C   UNL     1       1.340  -1.835   1.678  0.00  0.00    +0.069 C 
ENDBRANCH  32  33
ENDBRANCH  31  32
ENDBRANCH  28  31
ENDBRANCH  24  25
ENDBRANCH   2  24
TORSDOF 12
