REMARK  Name = ZINC52880601
REMARK  4 active torsions:
REMARK  status: ('A' for Active; 'I' for Inactive)
REMARK    1  A    between atoms: C_1  and  C_2
REMARK    2  A    between atoms: C_2  and  C_3
REMARK    3  A    between atoms: C_2  and  C_9
REMARK    4  A    between atoms: C_2  and  N_12
REMARK                            x       y       z     vdW  Elec       q    Type
REMARK                         _______ _______ _______ _____ _____    ______ ____
ROOT
ATOM      1  C   UNL     1       0.283   1.495  -0.121  0.00  0.00    +0.049 C 
ATOM      2  C   UNL     1       0.002  -0.004   0.002  0.00  0.00    +0.160 C 
ENDROOT
BRANCH   2   3
ATOM      3  N   UNL     1       0.654  -0.716  -1.100  0.00  0.00    -0.280 N 
ATOM      4  C   UNL     1       0.346  -0.410  -2.376  0.00  0.00    +0.304 C 
ATOM      5  O   UNL     1      -0.474   0.456  -2.612  0.00  0.00    -0.253 OA
ATOM      6  N   UNL     1       0.946  -1.064  -3.390  0.00  0.00    -0.282 N 
ATOM      7  C   UNL     1       1.952  -2.140  -3.272  0.00  0.00    +0.113 C 
ATOM      8  C   UNL     1       2.321  -2.519  -4.740  0.00  0.00    +0.008 C 
ATOM      9  C   UNL     1       1.054  -3.260  -5.268  0.00  0.00    +0.007 C 
ATOM     10  C   UNL     1      -0.032  -2.160  -5.324  0.00  0.00    +0.023 C 
ATOM     11  C   UNL     1       0.718  -0.848  -4.848  0.00  0.00    +0.078 C 
ATOM     12  C   UNL     1       2.160  -1.110  -5.418  0.00  0.00    +0.027 C 
ATOM     13  H   UNL     1       1.308  -1.407  -0.911  0.00  0.00    +0.152 HD
ENDBRANCH   2   3
BRANCH   2  14
ATOM     14  C   UNL     1       0.541  -0.510   1.315  0.00  0.00    -0.013 A 
ATOM     15  C   UNL     1       0.505   0.300   2.435  0.00  0.00    +0.006 A 
ATOM     16  C   UNL     1       1.000  -0.163   3.640  0.00  0.00    +0.000 A 
ATOM     17  C   UNL     1       1.530  -1.437   3.725  0.00  0.00    +0.000 A 
ATOM     18  C   UNL     1       1.565  -2.248   2.605  0.00  0.00    +0.000 A 
ATOM     19  C   UNL     1       1.067  -1.785   1.402  0.00  0.00    +0.006 A 
ENDBRANCH   2  14
BRANCH   2  20
ATOM     20  C   UNL     1      -1.485  -0.243  -0.056  0.00  0.00    +0.383 C 
ATOM     21  O   UNL     1      -1.956  -0.943  -0.936  0.00  0.00    -0.244 OA
ATOM     22  O   UNL     1      -2.216   0.263   0.777  0.00  0.00    -0.244 OA
ENDBRANCH   2  20
TORSDOF 3
