REMARK  Name = ZINC16537630
REMARK  7 active torsions:
REMARK  status: ('A' for Active; 'I' for Inactive)
REMARK    1  A    between atoms: C_1  and  C_2
REMARK    2  A    between atoms: C_2  and  C_4
REMARK    3  A    between atoms: C_2  and  O_16
REMARK    4  A    between atoms: N_6  and  C_7
REMARK    5  A    between atoms: O_16  and  C_17
REMARK    6  A    between atoms: C_17  and  C_19
REMARK    7  A    between atoms: C_20  and  C_24
REMARK                            x       y       z     vdW  Elec       q    Type
REMARK                         _______ _______ _______ _____ _____    ______ ____
ROOT
ATOM      1  C   UNL     1      -4.459  -0.739   3.213  0.00  0.00    +0.062 C 
ATOM      2  C   UNL     1      -3.037  -0.908   3.751  0.00  0.00    +0.259 C 
ENDROOT
BRANCH   2   3
ATOM      3  C   UNL     1      -3.042  -1.904   4.881  0.00  0.00    +0.258 C 
ATOM      4  O   UNL     1      -2.381  -2.918   4.799  0.00  0.00    -0.271 OA
ATOM      5  N   UNL     1      -3.781  -1.669   5.984  0.00  0.00    -0.282 N 
ATOM      6  H   UNL     1      -4.256  -0.829   6.079  0.00  0.00    +0.155 HD
BRANCH   5   7
ATOM      7  C   UNL     1      -3.863  -2.638   6.992  0.00  0.00    +0.037 A 
ATOM      8  C   UNL     1      -5.043  -2.800   7.705  0.00  0.00    +0.027 A 
ATOM      9  C   UNL     1      -5.127  -3.759   8.697  0.00  0.00    +0.051 A 
ATOM     10  C   UNL     1      -4.030  -4.554   8.989  0.00  0.00    +0.166 A 
ATOM     11  C   UNL     1      -2.843  -4.390   8.280  0.00  0.00    +0.168 A 
ATOM     12  C   UNL     1      -2.762  -3.433   7.282  0.00  0.00    +0.072 A 
ATOM     13  O   UNL     1      -1.925  -5.283   8.752  0.00  0.00    -0.453 OA
ATOM     14  C   UNL     1      -2.430  -5.713  10.030  0.00  0.00    +0.466 C 
ATOM     15  O   UNL     1      -3.855  -5.550   9.907  0.00  0.00    -0.453 OA
ENDBRANCH   5   7
ENDBRANCH   2   3
BRANCH   2  16
ATOM     16  O   UNL     1      -2.184  -1.379   2.705  0.00  0.00    -0.447 OA
BRANCH  16  17
ATOM     17  C   UNL     1      -1.569  -0.445   1.949  0.00  0.00    +0.376 C 
ATOM     18  O   UNL     1      -1.751   0.737   2.174  0.00  0.00    -0.241 OA
BRANCH  17  19
ATOM     19  C   UNL     1      -0.683  -0.854   0.862  0.00  0.00    +0.219 A 
ATOM     20  C   UNL     1       0.013  -0.007   0.008  0.00  0.00    +0.034 A 
ATOM     21  C   UNL     1       0.738  -0.843  -0.872  0.00  0.00    +0.050 A 
ATOM     22  C   UNL     1       0.457  -2.116  -0.532  0.00  0.00    +0.196 A 
ATOM     23  O   UNL     1      -0.395  -2.122   0.502  0.00  0.00    -0.456 OA
BRANCH  20  24
ATOM     24  C   UNL     1       0.002   1.475   0.022  0.00  0.00    -0.014 A 
ATOM     25  C   UNL     1      -1.209   2.166   0.034  0.00  0.00    +0.008 A 
ATOM     26  C   UNL     1      -1.212   3.546   0.053  0.00  0.00    +0.001 A 
ATOM     27  C   UNL     1      -0.017   4.243   0.048  0.00  0.00    +0.000 A 
ATOM     28  C   UNL     1       1.187   3.563   0.029  0.00  0.00    +0.001 A 
ATOM     29  C   UNL     1       1.204   2.183   0.017  0.00  0.00    +0.008 A 
ENDBRANCH  20  24
ENDBRANCH  17  19
ENDBRANCH  16  17
ENDBRANCH   2  16
TORSDOF 6
