REMARK  Name = ZINC06589210
REMARK  6 active torsions:
REMARK  status: ('A' for Active; 'I' for Inactive)
REMARK    1  A    between atoms: C_1  and  C_2
REMARK    2  A    between atoms: C_2  and  C_3
REMARK    3  A    between atoms: C_3  and  C_4
REMARK    4  A    between atoms: C_11  and  N_24
REMARK    5  A    between atoms: C_12  and  C_22
REMARK    6  A    between atoms: C_13  and  C_15
REMARK                            x       y       z     vdW  Elec       q    Type
REMARK                         _______ _______ _______ _____ _____    ______ ____
ROOT
ATOM      1  C   UNL     1      -1.228  -1.614  -0.127  0.00  0.00    +0.070 A 
ATOM      2  C   UNL     1      -1.417  -2.601  -1.085  0.00  0.00    +0.045 A 
ATOM      3  C   UNL     1      -1.366  -3.815  -0.458  0.00  0.00    +0.222 A 
ATOM      4  N   UNL     1      -1.153  -3.589   0.848  0.00  0.00    -0.246 N 
ATOM      5  H   UNL     1      -1.072  -4.265   1.539  0.00  0.00    +0.192 HD
ATOM      6  N   UNL     1      -1.063  -2.200   1.035  0.00  0.00    -0.176 NA
ATOM      7  O   UNL     1      -1.513  -4.989  -1.122  0.00  0.00    -0.423 OA
ATOM      8  C   UNL     1      -1.440  -4.958  -2.468  0.00  0.00    +0.200 C 
ATOM      9  C   UNL     1      -1.493  -3.823  -3.199  0.00  0.00    +0.094 C 
ATOM     10  C   UNL     1      -1.645  -2.461  -2.568  0.00  0.00    +0.075 C 
ENDROOT
BRANCH  10  11
ATOM     11  C   UNL     1      -3.056  -1.928  -2.825  0.00  0.00    +0.006 C 
ATOM     12  C   UNL     1      -3.243  -1.668  -4.325  0.00  0.00    +0.009 C 
ATOM     13  C   UNL     1      -4.590  -0.972  -4.531  0.00  0.00    +0.027 C 
ATOM     14  C   UNL     1      -5.672  -1.713  -3.802  0.00  0.00    -0.031 C 
ATOM     15  C   UNL     1      -5.454  -2.578  -2.864  0.00  0.00    -0.031 C 
ATOM     16  C   UNL     1      -4.087  -2.964  -2.376  0.00  0.00    +0.031 C 
ENDBRANCH  10  11
BRANCH   8  17
ATOM     17  N   UNL     1      -1.305  -6.150  -3.135  0.00  0.00    -0.328 N 
ATOM     18  H   UNL     1      -1.264  -6.982  -2.638  0.00  0.00    +0.145 HD
ATOM     19  H   UNL     1      -1.250  -6.161  -4.104  0.00  0.00    +0.145 HD
ENDBRANCH   8  17
BRANCH   9  20
ATOM     20  C   UNL     1      -1.402  -3.916  -4.625  0.00  0.00    +0.100 C 
ATOM     21  N   UNL     1      -1.329  -3.989  -5.756  0.00  0.00    -0.191 NA
ENDBRANCH   9  20
BRANCH   1  22
ATOM     22  C   UNL     1      -1.209  -0.129  -0.379  0.00  0.00    +0.057 C 
BRANCH  22  24
ATOM     23  C   UNL     1       0.256   1.847  -0.823  0.00  0.00    +0.004 C 
ATOM     24  C   UNL     1       0.236   0.338  -0.567  0.00  0.00    +0.003 C 
ENDBRANCH  22  24
ENDBRANCH   1  22
TORSDOF 5
