REMARK  Name = ZINC20345399
REMARK  9 active torsions:
REMARK  status: ('A' for Active; 'I' for Inactive)
REMARK    1  A    between atoms: C_1  and  C_2
REMARK    2  A    between atoms: C_4  and  C_34
REMARK    3  A    between atoms: C_6  and  N_8
REMARK    4  A    between atoms: N_8  and  C_9
REMARK    5  A    between atoms: C_9  and  N_11
REMARK    6  A    between atoms: N_11  and  C_12
REMARK    7  A    between atoms: C_15  and  S_18
REMARK    8  A    between atoms: S_18  and  N_21
REMARK    9  A    between atoms: C_30  and  C_32
REMARK                            x       y       z     vdW  Elec       q    Type
REMARK                         _______ _______ _______ _____ _____    ______ ____
ROOT
ATOM      1  C   UNL     1       6.002   2.518  -4.619  0.00  0.00    +0.033 A 
ATOM      2  C   UNL     1       5.841   3.440  -3.593  0.00  0.00    +0.025 A 
ATOM      3  C   UNL     1       5.827   3.014  -2.280  0.00  0.00    +0.030 A 
ATOM      4  C   UNL     1       5.973   1.671  -1.985  0.00  0.00    +0.109 A 
ATOM      5  C   UNL     1       6.139   0.751  -3.004  0.00  0.00    +0.030 A 
ATOM      6  C   UNL     1       6.148   1.169  -4.320  0.00  0.00    +0.025 A 
ENDROOT
BRANCH   4   7
ATOM      7  S   UNL     1       5.955   1.132  -0.308  0.00  0.00    +0.075 S 
ATOM      8  O   UNL     1       6.337   2.249   0.482  0.00  0.00    -0.150 OA
ATOM      9  O   UNL     1       6.656  -0.103  -0.270  0.00  0.00    -0.150 OA
BRANCH   7  10
ATOM     10  N   UNL     1       4.380   0.795   0.081  0.00  0.00    -0.200 N 
ATOM     11  C   UNL     1       3.855  -0.487  -0.124  0.00  0.00    +0.055 A 
ATOM     12  C   UNL     1       4.566  -1.392  -0.906  0.00  0.00    +0.028 A 
ATOM     13  C   UNL     1       4.069  -2.662  -1.118  0.00  0.00    +0.040 A 
ATOM     14  C   UNL     1       2.861  -3.034  -0.551  0.00  0.00    +0.124 A 
ATOM     15  C   UNL     1       2.151  -2.134   0.222  0.00  0.00    +0.043 A 
ATOM     16  C   UNL     1       2.646  -0.859   0.441  0.00  0.00    -0.022 A 
ATOM     17  C   UNL     1       1.848   0.096   1.289  0.00  0.00    +0.039 C 
ATOM     18  C   UNL     1       2.742   1.216   1.821  0.00  0.00    +0.029 C 
ATOM     19  C   UNL     1       3.512   1.835   0.648  0.00  0.00    +0.095 C 
ATOM     20  C   UNL     1       4.361   3.006   1.146  0.00  0.00    +0.030 C 
ATOM     21  F   UNL     1       2.375  -4.278  -0.756  0.00  0.00    -0.205 F 
ENDBRANCH   7  10
ENDBRANCH   4   7
BRANCH   1  22
ATOM     22  N   UNL     1       6.017   2.946  -5.951  0.00  0.00    -0.297 N 
ATOM     23  H   UNL     1       5.456   2.387  -6.715  0.00  0.00    +0.154 HD
BRANCH  22  24
ATOM     24  C   UNL     1       6.718   4.043  -6.298  0.00  0.00    +0.139 C 
ATOM     25  S   UNL     1       7.508   4.971  -5.095  0.00  0.00    -0.018 S 
BRANCH  24  26
ATOM     26  N   UNL     1       6.798   4.410  -7.592  0.00  0.00    -0.297 N 
ATOM     27  H   UNL     1       6.216   3.871  -8.354  0.00  0.00    +0.154 HD
BRANCH  26  33
ATOM     28  C   UNL     1       7.541   8.423 -10.333  0.00  0.00    +0.044 C 
ATOM     29  C   UNL     1       8.008   7.436  -9.293  0.00  0.00    -0.048 A 
ATOM     30  C   UNL     1       9.252   7.586  -8.709  0.00  0.00    +0.006 A 
ATOM     31  C   UNL     1       9.683   6.683  -7.754  0.00  0.00    -0.048 A 
ATOM     32  C   UNL     1       8.872   5.629  -7.382  0.00  0.00    +0.026 A 
ATOM     33  C   UNL     1       7.622   5.476  -7.967  0.00  0.00    +0.033 A 
ATOM     34  C   UNL     1       7.194   6.381  -8.930  0.00  0.00    +0.026 A 
ATOM     35  C   UNL     1      11.040   6.850  -7.120  0.00  0.00    +0.044 C 
ENDBRANCH  26  33
ENDBRANCH  24  26
ENDBRANCH  22  24
ENDBRANCH   1  22
TORSDOF 6
