REMARK  Name = ZINC13174366
REMARK  9 active torsions:
REMARK  status: ('A' for Active; 'I' for Inactive)
REMARK    1  A    between atoms: C_1  and  C_2
REMARK    2  A    between atoms: C_5  and  N_9
REMARK    3  A    between atoms: C_7  and  C_8
REMARK    4  A    between atoms: C_10  and  C_12
REMARK    5  A    between atoms: C_12  and  S_13
REMARK    6  A    between atoms: S_13  and  C_14
REMARK    7  A    between atoms: C_15  and  C_32
REMARK    8  A    between atoms: C_16  and  C_26
REMARK    9  A    between atoms: C_29  and  C_31
REMARK                            x       y       z     vdW  Elec       q    Type
REMARK                         _______ _______ _______ _____ _____    ______ ____
ROOT
ATOM      1  C   UNL     1      -0.356  -8.692  -2.728  0.00  0.00    +0.112 C 
ATOM      2  C   UNL     1      -0.455  -9.467  -3.870  0.00  0.00    +0.076 C 
ATOM      3  C   UNL     1      -0.539 -10.972  -3.684  0.00  0.00    +0.133 C 
ATOM      4  C   UNL     1      -0.504 -11.463  -2.249  0.00  0.00    +0.032 C 
ATOM      5  C   UNL     1      -0.570 -12.779  -1.989  0.00  0.00    +0.162 C 
ATOM      6  C   UNL     1      -0.539 -13.300  -0.577  0.00  0.00    +0.080 C 
ATOM      7  C   UNL     1       0.267 -12.338   0.299  0.00  0.00    +0.014 C 
ATOM      8  C   UNL     1      -0.365 -10.946   0.216  0.00  0.00    +0.056 C 
ATOM      9  C   UNL     1      -0.401 -10.502  -1.227  0.00  0.00    +0.050 C 
ATOM     10  N   UNL     1      -0.329  -9.224  -1.504  0.00  0.00    -0.244 NA
ATOM     11  O   UNL     1      -0.666 -13.651  -3.013  0.00  0.00    -0.292 OA
ENDROOT
BRANCH   3  12
ATOM     12  C   UNL     1      -1.822 -11.453  -4.311  0.00  0.00    +0.118 A 
ATOM     13  C   UNL     1      -1.921 -12.347  -5.312  0.00  0.00    +0.046 A 
ATOM     14  C   UNL     1      -3.300 -12.503  -5.585  0.00  0.00    +0.044 A 
ATOM     15  C   UNL     1      -3.960 -11.696  -4.736  0.00  0.00    +0.102 A 
ATOM     16  O   UNL     1      -3.060 -11.066  -3.963  0.00  0.00    -0.464 OA
ATOM     17  C   UNL     1      -5.456 -11.530  -4.661  0.00  0.00    +0.086 C 
ENDBRANCH   3  12
BRANCH   2  18
ATOM     18  C   UNL     1      -0.477  -8.875  -5.174  0.00  0.00    +0.099 C 
ATOM     19  N   UNL     1      -0.495  -8.405  -6.208  0.00  0.00    -0.191 NA
ENDBRANCH   2  18
BRANCH   1  20
ATOM     20  S   UNL     1      -0.255  -6.941  -2.895  0.00  0.00    -0.096 S 
BRANCH  20  21
ATOM     21  C   UNL     1      -0.134  -6.343  -1.187  0.00  0.00    +0.172 C 
BRANCH  21  23
ATOM     22  N   UNL     1       0.059  -4.170  -0.021  0.00  0.00    -0.285 N 
ATOM     23  C   UNL     1      -0.040  -4.839  -1.187  0.00  0.00    +0.227 C 
ATOM     24  O   UNL     1      -0.054  -4.230  -2.236  0.00  0.00    -0.275 OA
ATOM     25  H   UNL     1       0.147  -4.658   0.812  0.00  0.00    +0.155 HD
BRANCH  22  30
ATOM     26  C   UNL     1      -0.041   1.502   0.014  0.00  0.00    +0.044 C 
ATOM     27  C   UNL     1      -0.015  -0.004   0.004  0.00  0.00    -0.047 A 
ATOM     28  C   UNL     1      -0.752  -0.702  -0.935  0.00  0.00    +0.005 A 
ATOM     29  C   UNL     1      -0.730  -2.082  -0.946  0.00  0.00    +0.023 A 
ATOM     30  C   UNL     1       0.034  -2.771  -0.013  0.00  0.00    +0.034 A 
ATOM     31  C   UNL     1       0.773  -2.068   0.929  0.00  0.00    +0.027 A 
ATOM     32  C   UNL     1       0.751  -0.686   0.932  0.00  0.00    -0.046 A 
ATOM     33  C   UNL     1       1.557   0.078   1.950  0.00  0.00    +0.044 C 
ENDBRANCH  22  30
ENDBRANCH  21  23
ENDBRANCH  20  21
ENDBRANCH   1  20
TORSDOF 6
