REMARK  Name = ZINC50321127
REMARK  11 active torsions:
REMARK  status: ('A' for Active; 'I' for Inactive)
REMARK    1  A    between atoms: C_1  and  C_2
REMARK    2  A    between atoms: C_2  and  C_3
REMARK    3  A    between atoms: C_2  and  C_4
REMARK    4  A    between atoms: C_4  and  C_5
REMARK    5  A    between atoms: C_5  and  N_6
REMARK    6  A    between atoms: N_6  and  C_7
REMARK    7  A    between atoms: C_8  and  C_10
REMARK    8  A    between atoms: C_11  and  N_19
REMARK    9  A    between atoms: C_12  and  C_16
REMARK   10  A    between atoms: C_16  and  C_17
REMARK   11  A    between atoms: C_16  and  C_18
REMARK                            x       y       z     vdW  Elec       q    Type
REMARK                         _______ _______ _______ _____ _____    ______ ____
ROOT
ATOM      1  C   UNL     1      -4.385  -3.875   1.305  0.00  0.00    +0.168 A 
ATOM      2  C   UNL     1      -4.920  -4.352   2.530  0.00  0.00    +0.078 A 
ATOM      3  C   UNL     1      -6.037  -5.049   2.189  0.00  0.00    +0.060 A 
ATOM      4  N   UNL     1      -6.150  -4.984   0.836  0.00  0.00    -0.279 N 
ATOM      5  H   UNL     1      -6.859  -5.396   0.319  0.00  0.00    +0.189 HD
ATOM      6  N   UNL     1      -5.185  -4.295   0.343  0.00  0.00    -0.167 NA
ENDROOT
BRANCH   1   9
ATOM      7  N   UNL     1      -2.836  -2.583  -0.077  0.00  0.00    -0.299 N 
ATOM      8  C   UNL     1      -3.744  -2.774  -1.211  0.00  0.00    +0.132 C 
ATOM      9  C   UNL     1      -3.167  -3.060   1.139  0.00  0.00    +0.268 C 
ATOM     10  O   UNL     1      -2.462  -2.818   2.100  0.00  0.00    -0.268 OA
BRANCH   7  11
ATOM     11  C   UNL     1      -1.568  -1.874  -0.265  0.00  0.00    +0.108 C 
BRANCH  11  12
ATOM     12  C   UNL     1      -1.779  -0.379  -0.019  0.00  0.00    +0.022 C 
BRANCH  12  14
ATOM     13  C   UNL     1      -0.690   1.869  -0.092  0.00  0.00    +0.007 C 
ATOM     14  C   UNL     1      -0.455   0.362  -0.215  0.00  0.00    -0.016 C 
ATOM     15  C   UNL     1       0.544  -0.087   0.853  0.00  0.00    +0.007 C 
ENDBRANCH  12  14
ENDBRANCH  11  12
ENDBRANCH   7  11
ENDBRANCH   1   9
BRANCH   3  16
ATOM     16  C   UNL     1      -6.972  -5.760   3.133  0.00  0.00    +0.033 C 
ATOM     17  C   UNL     1      -8.377  -5.168   3.001  0.00  0.00    +0.014 C 
ATOM     18  C   UNL     1      -7.011  -7.249   2.787  0.00  0.00    +0.014 C 
ENDBRANCH   3  16
BRANCH   2  19
ATOM     19  N   UNL     1      -4.407  -4.147   3.818  0.00  0.00    -0.355 N 
ATOM     20  H   UNL     1      -3.596  -3.628   3.941  0.00  0.00    +0.142 HD
ATOM     21  H   UNL     1      -4.862  -4.525   4.587  0.00  0.00    +0.142 HD
ENDBRANCH   2  19
TORSDOF 6
