REMARK  Name = ZINC64710444
REMARK  9 active torsions:
REMARK  status: ('A' for Active; 'I' for Inactive)
REMARK    1  A    between atoms: C_1  and  C_2
REMARK    2  A    between atoms: C_2  and  O_3
REMARK    3  A    between atoms: O_3  and  C_4
REMARK    4  A    between atoms: C_7  and  N_10
REMARK    5  A    between atoms: N_10  and  S_11
REMARK    6  A    between atoms: S_11  and  C_14
REMARK    7  A    between atoms: C_17  and  C_19
REMARK    8  A    between atoms: C_21  and  C_26
REMARK    9  A    between atoms: C_22  and  C_25
REMARK                            x       y       z     vdW  Elec       q    Type
REMARK                         _______ _______ _______ _____ _____    ______ ____
ROOT
ATOM      1  S   UNL     1       0.782  -6.621  -3.308  0.00  0.00    +0.106 S 
ATOM      2  O   UNL     1       1.004  -8.017  -3.165  0.00  0.00    -0.147 OA
ATOM      3  O   UNL     1      -0.461  -6.088  -3.742  0.00  0.00    -0.147 OA
ENDROOT
BRANCH   1   4
ATOM      4  C   UNL     1       2.003  -6.029  -4.433  0.00  0.00    +0.261 A 
ATOM      5  C   UNL     1       3.188  -6.613  -4.685  0.00  0.00    +0.071 A 
ATOM      6  C   UNL     1       3.846  -5.808  -5.644  0.00  0.00    +0.049 A 
ATOM      7  C   UNL     1       3.023  -4.780  -5.919  0.00  0.00    +0.138 A 
ATOM      8  O   UNL     1       1.906  -4.922  -5.187  0.00  0.00    -0.439 OA
BRANCH   7   9
ATOM      9  C   UNL     1       3.305  -3.661  -6.888  0.00  0.00    +0.221 C 
ATOM     10  C   UNL     1       2.553  -3.876  -8.190  0.00  0.00    -0.017 C 
ATOM     11  C   UNL     1       1.745  -2.817  -8.273  0.00  0.00    +0.062 C 
ATOM     12  N   UNL     1       1.910  -2.002  -7.207  0.00  0.00    -0.158 NA
ATOM     13  N   UNL     1       2.755  -2.389  -6.390  0.00  0.00    -0.172 NA
ATOM     14  C   UNL     1       0.780  -2.563  -9.403  0.00  0.00    +0.067 C 
ATOM     15  C   UNL     1       2.687  -5.020  -9.162  0.00  0.00    +0.043 C 
ENDBRANCH   7   9
ENDBRANCH   1   4
BRANCH   1  16
ATOM     16  N   UNL     1       1.102  -5.937  -1.834  0.00  0.00    -0.214 N 
ATOM     17  H   UNL     1       1.365  -6.496  -1.087  0.00  0.00    +0.174 HD
BRANCH  16  21
ATOM     18  C   UNL     1       0.777  -1.811  -1.336  0.00  0.00    +0.121 A 
ATOM     19  C   UNL     1       0.242  -2.668  -0.386  0.00  0.00    +0.047 A 
ATOM     20  C   UNL     1       0.349  -4.035  -0.550  0.00  0.00    +0.028 A 
ATOM     21  C   UNL     1       0.992  -4.552  -1.667  0.00  0.00    +0.048 A 
ATOM     22  C   UNL     1       1.527  -3.693  -2.618  0.00  0.00    +0.028 A 
ATOM     23  C   UNL     1       1.414  -2.326  -2.455  0.00  0.00    +0.047 A 
BRANCH  18  24
ATOM     24  O   UNL     1       0.671  -0.465  -1.174  0.00  0.00    -0.492 OA
BRANCH  24  26
ATOM     25  C   UNL     1      -0.019   1.526   0.010  0.00  0.00    +0.048 C 
ATOM     26  C   UNL     1       0.002  -0.004   0.002  0.00  0.00    +0.225 C 
ENDBRANCH  24  26
ENDBRANCH  18  24
ENDBRANCH  16  21
ENDBRANCH   1  16
TORSDOF 6
