REMARK  Name = ZINC54649404
REMARK  8 active torsions:
REMARK  status: ('A' for Active; 'I' for Inactive)
REMARK    1  A    between atoms: C_1  and  C_2
REMARK    2  A    between atoms: C_2  and  C_3
REMARK    3  A    between atoms: C_2  and  C_4
REMARK    4  A    between atoms: C_2  and  N_20
REMARK    5  A    between atoms: C_4  and  N_5
REMARK    6  A    between atoms: N_8  and  C_9
REMARK    7  A    between atoms: C_9  and  C_10
REMARK    8  A    between atoms: N_12  and  C_13
REMARK                            x       y       z     vdW  Elec       q    Type
REMARK                         _______ _______ _______ _____ _____    ______ ____
ROOT
ATOM      1  N   UNL     1      -1.429  -2.111  -0.051  0.00  0.00    -0.301 N 
ATOM      2  C   UNL     1      -2.570  -2.820  -0.161  0.00  0.00    +0.300 C 
ATOM      3  O   UNL     1      -3.641  -2.245  -0.201  0.00  0.00    -0.253 OA
ATOM      4  N   UNL     1      -2.524  -4.165  -0.227  0.00  0.00    -0.291 N 
ATOM      5  H   UNL     1      -0.575  -2.569  -0.020  0.00  0.00    +0.150 HD
ATOM      6  H   UNL     1      -1.669  -4.623  -0.196  0.00  0.00    +0.151 HD
ENDROOT
BRANCH   1   7
ATOM      7  C   UNL     1      -1.479  -0.649   0.020  0.00  0.00    +0.093 C 
BRANCH   7   9
ATOM      8  C   UNL     1       0.647  -0.493  -1.284  0.00  0.00    -0.008 C 
ATOM      9  C   UNL     1      -0.055  -0.089   0.014  0.00  0.00    -0.055 C 
ATOM     10  C   UNL     1      -0.107   1.437   0.113  0.00  0.00    -0.008 C 
BRANCH   9  11
ATOM     11  N   UNL     1       0.688  -0.628   1.161  0.00  0.00    +0.384 N 
ATOM     12  C   UNL     1      -0.046  -0.337   2.399  0.00  0.00    -0.078 C 
ATOM     13  C   UNL     1       0.682  -0.967   3.588  0.00  0.00    -0.019 C 
ATOM     14  C   UNL     1       2.095  -0.384   3.682  0.00  0.00    -0.004 C 
ATOM     15  C   UNL     1       2.826  -0.629   2.358  0.00  0.00    -0.019 C 
ATOM     16  C   UNL     1       2.019  -0.011   1.214  0.00  0.00    -0.078 C 
ATOM     17  H   UNL     1       0.785  -1.627   1.058  0.00  0.00    -0.081 HD
ENDBRANCH   9  11
ENDBRANCH   7   9
ENDBRANCH   1   7
BRANCH   4  18
ATOM     18  C   UNL     1      -3.764  -4.936  -0.347  0.00  0.00    +0.202 C 
BRANCH  18  19
ATOM     19  C   UNL     1      -3.439  -6.406  -0.401  0.00  0.00    +0.234 C 
ATOM     20  O   UNL     1      -2.285  -6.774  -0.345  0.00  0.00    -0.274 OA
ATOM     21  N   UNL     1      -4.431  -7.312  -0.511  0.00  0.00    -0.284 N 
ATOM     22  H   UNL     1      -5.356  -7.022  -0.495  0.00  0.00    +0.155 HD
BRANCH  21  23
ATOM     23  C   UNL     1      -4.125  -8.671  -0.649  0.00  0.00    +0.034 A 
ATOM     24  C   UNL     1      -4.918  -9.485  -1.448  0.00  0.00    +0.025 A 
ATOM     25  C   UNL     1      -4.614 -10.825  -1.582  0.00  0.00    +0.022 A 
ATOM     26  C   UNL     1      -3.521 -11.358  -0.921  0.00  0.00    +0.041 A 
ATOM     27  C   UNL     1      -2.730 -10.549  -0.124  0.00  0.00    +0.022 A 
ATOM     28  C   UNL     1      -3.026  -9.207   0.009  0.00  0.00    +0.025 A 
ATOM     29 CL   UNL     1      -3.143 -13.043  -1.091  0.00  0.00    -0.084 Cl
ENDBRANCH  21  23
ENDBRANCH  18  19
ENDBRANCH   4  18
TORSDOF 6
