REMARK  Name = ZINC04108834
REMARK  8 active torsions:
REMARK  status: ('A' for Active; 'I' for Inactive)
REMARK    1  A    between atoms: C_1  and  C_2
REMARK    2  A    between atoms: C_2  and  C_3
REMARK    3  A    between atoms: C_2  and  C_4
REMARK    4  A    between atoms: C_2  and  C_5
REMARK    5  A    between atoms: C_8  and  C_11
REMARK    6  A    between atoms: C_25  and  C_30
REMARK    7  A    between atoms: C_33  and  O_36
REMARK    8  A    between atoms: O_36  and  C_37
REMARK                            x       y       z     vdW  Elec       q    Type
REMARK                         _______ _______ _______ _____ _____    ______ ____
ROOT
ATOM      1  C   UNL     1       2.066  -0.335   5.949  0.00  0.00    +0.116 C 
ATOM      2  C   UNL     1       1.835   0.622   7.078  0.00  0.00    +0.124 C 
ATOM      3  C   UNL     1       0.350   0.790   7.383  0.00  0.00    +0.032 C 
ATOM      4  N   UNL     1      -0.560   0.036   7.020  0.00  0.00    -0.254 NA
ATOM      5  C   UNL     1      -0.756  -1.173   6.471  0.00  0.00    +0.085 A 
ATOM      6  C   UNL     1      -2.079  -1.598   6.272  0.00  0.00    +0.029 A 
ATOM      7  C   UNL     1      -2.352  -2.884   5.869  0.00  0.00    +0.002 A 
ATOM      8  C   UNL     1      -1.320  -3.781   5.650  0.00  0.00    +0.002 A 
ATOM      9  C   UNL     1      -0.012  -3.373   5.806  0.00  0.00    +0.025 A 
ATOM     10  C   UNL     1       0.286  -2.068   6.186  0.00  0.00    +0.053 A 
ATOM     11  N   UNL     1       1.599  -1.675   6.262  0.00  0.00    -0.334 N 
ATOM     12  C   UNL     1       0.083   1.979   8.303  0.00  0.00    +0.060 C 
ATOM     13  C   UNL     1       0.767   1.653   9.637  0.00  0.00    +0.032 C 
ATOM     14  C   UNL     1       2.264   1.404   9.467  0.00  0.00    +0.083 C 
ATOM     15  C   UNL     1       2.511   0.357   8.389  0.00  0.00    +0.145 C 
ATOM     16  O   UNL     1       3.201  -0.616   8.576  0.00  0.00    -0.297 OA
ATOM     17  H   UNL     1       2.255  -2.332   6.543  0.00  0.00    +0.147 HD
ENDROOT
BRANCH   1  21
ATOM     18  C   UNL     1      -0.001   1.080   2.488  0.00  0.00    -0.042 A 
ATOM     19  C   UNL     1       0.347   1.962   3.494  0.00  0.00    +0.004 A 
ATOM     20  C   UNL     1       1.012   1.503   4.616  0.00  0.00    +0.006 A 
ATOM     21  C   UNL     1       1.337   0.165   4.728  0.00  0.00    -0.026 A 
ATOM     22  C   UNL     1       0.994  -0.716   3.719  0.00  0.00    +0.006 A 
ATOM     23  C   UNL     1       0.325  -0.259   2.599  0.00  0.00    +0.004 A 
BRANCH  18  25
ATOM     24  C   UNL     1      -2.075   0.861   1.147  0.00  0.00    +0.015 C 
ATOM     25  C   UNL     1      -0.729   1.580   1.267  0.00  0.00    -0.013 C 
ATOM     26  C   UNL     1       0.112   1.299   0.021  0.00  0.00    +0.015 C 
ATOM     27  C   UNL     1      -0.966   3.086   1.395  0.00  0.00    +0.015 C 
ENDBRANCH  18  25
ENDBRANCH   1  21
BRANCH  13  28
ATOM     28  C   UNL     1       0.568   2.808  10.585  0.00  0.00    -0.043 A 
ATOM     29  C   UNL     1       1.049   4.062  10.256  0.00  0.00    +0.007 A 
ATOM     30  C   UNL     1       0.862   5.123  11.121  0.00  0.00    +0.046 A 
ATOM     31  C   UNL     1       0.202   4.927  12.325  0.00  0.00    +0.120 A 
ATOM     32  C   UNL     1      -0.275   3.666  12.655  0.00  0.00    +0.046 A 
ATOM     33  C   UNL     1      -0.091   2.610  11.784  0.00  0.00    +0.007 A 
BRANCH  31  34
ATOM     34  O   UNL     1       0.022   5.968  13.180  0.00  0.00    -0.495 OA
ATOM     35  C   UNL     1       0.539   7.237  12.775  0.00  0.00    +0.277 C 
ENDBRANCH  31  34
ENDBRANCH  13  28
TORSDOF 4
