REMARK  Name = ZINC13065148
REMARK  12 active torsions:
REMARK  status: ('A' for Active; 'I' for Inactive)
REMARK    1  A    between atoms: C_1  and  C_2
REMARK    2  A    between atoms: C_2  and  C_3
REMARK    3  A    between atoms: C_3  and  C_5
REMARK    4  A    between atoms: C_3  and  N_75
REMARK    5  A    between atoms: N_9  and  C_10
REMARK    6  A    between atoms: C_10  and  C_11
REMARK    7  A    between atoms: C_11  and  C_12
REMARK    8  A    between atoms: C_18  and  C_19
REMARK    9  A    between atoms: C_18  and  N_75
REMARK   10  A    between atoms: C_24  and  C_32
REMARK   11  A    between atoms: C_25  and  C_31
REMARK   12  A    between atoms: C_33  and  N_75
REMARK                            x       y       z     vdW  Elec       q    Type
REMARK                         _______ _______ _______ _____ _____    ______ ____
ROOT
ATOM      1  N   UNL     1       3.570   1.927   0.761  0.00  0.00    +0.391 N 
ATOM      2  H   UNL     1       3.117   2.841   0.645  0.00  0.00    -0.080 HD
ENDROOT
BRANCH   1   3
ATOM      3  C   UNL     1       2.796   1.129   1.735  0.00  0.00    -0.067 C 
ATOM      4  C   UNL     1       1.673   0.387   1.008  0.00  0.00    -0.015 C 
ATOM      5  C   UNL     1       0.855  -0.418   2.019  0.00  0.00    -0.002 C 
ATOM      6  C   UNL     1       0.251   0.531   3.056  0.00  0.00    -0.000 C 
ATOM      7  C   UNL     1       1.373   1.273   3.784  0.00  0.00    -0.002 C 
ATOM      8  C   UNL     1       2.192   2.077   2.773  0.00  0.00    -0.015 C 
ENDBRANCH   1   3
BRANCH   1   9
ATOM      9  C   UNL     1       3.601   1.237  -0.546  0.00  0.00    +0.003 C 
BRANCH   9  10
ATOM     10  C   UNL     1       3.864   2.257  -1.623  0.00  0.00    +0.138 A 
ATOM     11  N   UNL     1       4.738   3.233  -1.581  0.00  0.00    -0.115 NA
ATOM     12  N   UNL     1       4.661   3.885  -2.689  0.00  0.00    -0.023 NA
ATOM     13  N   UNL     1       3.760   3.351  -3.437  0.00  0.00    -0.044 NA
ATOM     14  N   UNL     1       3.245   2.345  -2.815  0.00  0.00    -0.231 N 
BRANCH  14  15
ATOM     15  C   UNL     1       2.186   1.464  -3.313  0.00  0.00    +0.152 C 
BRANCH  15  16
ATOM     16  C   UNL     1       2.813   0.288  -4.066  0.00  0.00    +0.058 C 
BRANCH  16  17
ATOM     17  C   UNL     1       1.723  -0.619  -4.578  0.00  0.00    -0.046 A 
ATOM     18  C   UNL     1       1.272  -1.666  -3.797  0.00  0.00    +0.004 A 
ATOM     19  C   UNL     1       0.269  -2.495  -4.265  0.00  0.00    +0.000 A 
ATOM     20  C   UNL     1      -0.275  -2.282  -5.517  0.00  0.00    +0.000 A 
ATOM     21  C   UNL     1       0.180  -1.238  -6.301  0.00  0.00    +0.000 A 
ATOM     22  C   UNL     1       1.179  -0.406  -5.831  0.00  0.00    +0.004 A 
ENDBRANCH  16  17
ENDBRANCH  15  16
ENDBRANCH  14  15
ENDBRANCH   9  10
BRANCH   9  24
ATOM     23  C   UNL     1       4.374  -0.924   0.442  0.00  0.00    +0.002 C 
ATOM     24  C   UNL     1       4.706   0.179  -0.566  0.00  0.00    -0.011 C 
ENDBRANCH   9  24
ENDBRANCH   1   9
BRANCH   1  25
ATOM     25  C   UNL     1       4.947   2.132   1.256  0.00  0.00    -0.036 C 
BRANCH  25  26
ATOM     26  C   UNL     1       4.916   3.158   2.360  0.00  0.00    +0.001 A 
ATOM     27  C   UNL     1       4.991   2.760   3.654  0.00  0.00    +0.017 A 
ATOM     28  C   UNL     1       4.958   3.781   4.703  0.00  0.00    -0.001 A 
ATOM     29  C   UNL     1       5.032   3.432   6.056  0.00  0.00    +0.010 A 
ATOM     30  C   UNL     1       4.999   4.408   7.010  0.00  0.00    +0.004 A 
ATOM     31  C   UNL     1       4.893   5.745   6.650  0.00  0.00    -0.046 A 
ATOM     32  C   UNL     1       4.818   6.112   5.324  0.00  0.00    -0.024 A 
ATOM     33  C   UNL     1       4.850   5.135   4.334  0.00  0.00    +0.052 A 
ATOM     34  N   UNL     1       4.778   5.474   3.000  0.00  0.00    -0.322 N 
ATOM     35  H   UNL     1       4.704   6.407   2.747  0.00  0.00    +0.169 HD
ATOM     36  C   UNL     1       4.814   4.529   2.043  0.00  0.00    +0.251 A 
ATOM     37  O   UNL     1       4.753   4.866   0.873  0.00  0.00    -0.268 OA
ATOM     38  C   UNL     1       4.702   7.567   4.947  0.00  0.00    +0.046 C 
ATOM     39  C   UNL     1       4.858   6.805   7.720  0.00  0.00    +0.044 C 
ENDBRANCH  25  26
ENDBRANCH   1  25
TORSDOF 9
