REMARK  Name = ZINC08616552
REMARK  7 active torsions:
REMARK  status: ('A' for Active; 'I' for Inactive)
REMARK    1  A    between atoms: C_1  and  C_2
REMARK    2  A    between atoms: C_5  and  N_9
REMARK    3  A    between atoms: C_6  and  C_8
REMARK    4  A    between atoms: N_9  and  C_10
REMARK    5  A    between atoms: C_10  and  N_12
REMARK    6  A    between atoms: N_16  and  C_19
REMARK    7  A    between atoms: C_22  and  C_24
REMARK                            x       y       z     vdW  Elec       q    Type
REMARK                         _______ _______ _______ _____ _____    ______ ____
ROOT
ATOM      1  N   UNL     1      -2.478   1.207  -1.358  0.00  0.00    -0.311 N 
ATOM      2  C   UNL     1      -1.143   1.409  -1.954  0.00  0.00    +0.108 C 
ATOM      3  C   UNL     1      -0.032   1.250  -0.903  0.00  0.00    +0.038 C 
ATOM      4  C   UNL     1      -0.468   1.887   0.398  0.00  0.00    +0.108 C 
ATOM      5  N   UNL     1      -1.107   0.875   1.236  0.00  0.00    -0.314 N 
ATOM      6  C   UNL     1      -2.493   0.679   1.036  0.00  0.00    +0.125 C 
ATOM      7  C   UNL     1      -2.751   0.156  -0.398  0.00  0.00    +0.125 C 
ENDROOT
BRANCH   5   8
ATOM      8  C   UNL     1      -0.824   1.090   2.581  0.00  0.00    +0.118 A 
ATOM      9  C   UNL     1       0.332   0.549   3.138  0.00  0.00    +0.079 A 
ATOM     10  C   UNL     1       0.601   0.771   4.477  0.00  0.00    +0.037 A 
ATOM     11  C   UNL     1      -0.297   1.529   5.216  0.00  0.00    +0.072 A 
ATOM     12  C   UNL     1      -1.424   2.035   4.599  0.00  0.00    +0.096 A 
ATOM     13 CL   UNL     1       1.421  -0.391   2.165  0.00  0.00    -0.080 Cl
ATOM     14  N   UNL     1      -1.717   1.842   3.285  0.00  0.00    -0.348 N 
ATOM     15  H   UNL     1      -2.559   2.239   2.851  0.00  0.00    +0.167 HD
BRANCH  11  16
ATOM     16  C   UNL     1      -0.046   1.796   6.678  0.00  0.00    +0.419 C 
ATOM     17  F   UNL     1       0.697   2.973   6.816  0.00  0.00    -0.166 F 
ATOM     18  F   UNL     1      -1.268   1.935   7.344  0.00  0.00    -0.166 F 
ATOM     19  F   UNL     1       0.668   0.727   7.231  0.00  0.00    -0.166 F 
ENDBRANCH  11  16
ENDBRANCH   5   8
BRANCH   1  20
ATOM     20  C   UNL     1      -3.482   2.030  -1.720  0.00  0.00    +0.137 C 
ATOM     21  S   UNL     1      -3.195   3.283  -2.851  0.00  0.00    -0.018 S 
BRANCH  20  22
ATOM     22  N   UNL     1      -4.710   1.869  -1.191  0.00  0.00    -0.297 N 
ATOM     23  H   UNL     1      -4.893   1.114  -0.609  0.00  0.00    +0.154 HD
BRANCH  22  28
ATOM     24  C   UNL     1      -8.818   5.601  -2.367  0.00  0.00    +0.044 C 
ATOM     25  C   UNL     1      -7.727   4.609  -2.054  0.00  0.00    -0.050 A 
ATOM     26  C   UNL     1      -6.459   5.057  -1.730  0.00  0.00    +0.005 A 
ATOM     27  C   UNL     1      -5.457   4.152  -1.443  0.00  0.00    +0.024 A 
ATOM     28  C   UNL     1      -5.723   2.789  -1.480  0.00  0.00    +0.036 A 
ATOM     29  C   UNL     1      -6.996   2.342  -1.812  0.00  0.00    -0.029 A 
ATOM     30  C   UNL     1      -7.995   3.253  -2.092  0.00  0.00    +0.008 A 
ATOM     31  C   UNL     1      -7.287   0.864  -1.859  0.00  0.00    +0.045 C 
ENDBRANCH  22  28
ENDBRANCH  20  22
ENDBRANCH   1  20
TORSDOF 5
