REMARK  Name = ZINC00417842
REMARK  7 active torsions:
REMARK  status: ('A' for Active; 'I' for Inactive)
REMARK    1  A    between atoms: C_1  and  C_2
REMARK    2  A    between atoms: C_7  and  C_8
REMARK    3  A    between atoms: C_11  and  S_13
REMARK    4  A    between atoms: S_13  and  C_14
REMARK    5  A    between atoms: C_14  and  C_15
REMARK    6  A    between atoms: C_18  and  C_26
REMARK    7  A    between atoms: C_23  and  C_25
REMARK                            x       y       z     vdW  Elec       q    Type
REMARK                         _______ _______ _______ _____ _____    ______ ____
ROOT
ATOM      1  C   UNL     1      -8.483  -0.334   0.648  0.00  0.00    +0.249 A 
ATOM      2  N   UNL     1      -7.788  -1.433   0.811  0.00  0.00    -0.106 NA
ATOM      3  N   UNL     1      -6.544  -1.189   0.591  0.00  0.00    -0.101 NA
ATOM      4  C   UNL     1      -6.396   0.078   0.277  0.00  0.00    +0.278 A 
ATOM      5  O   UNL     1      -7.616   0.647   0.312  0.00  0.00    -0.411 OA
ENDROOT
BRANCH   1  12
ATOM      6  C   UNL     1     -10.071  -2.636   1.390  0.00  0.00    +0.044 C 
ATOM      7  C   UNL     1     -10.722  -1.295   1.166  0.00  0.00    -0.038 A 
ATOM      8  C   UNL     1     -12.086  -1.155   1.313  0.00  0.00    +0.004 A 
ATOM      9  C   UNL     1     -12.685   0.075   1.108  0.00  0.00    +0.000 A 
ATOM     10  C   UNL     1     -11.921   1.173   0.752  0.00  0.00    +0.001 A 
ATOM     11  C   UNL     1     -10.555   1.048   0.607  0.00  0.00    +0.013 A 
ATOM     12  C   UNL     1      -9.945  -0.192   0.808  0.00  0.00    +0.041 A 
ENDBRANCH   1  12
BRANCH   4  13
ATOM     13  S   UNL     1      -4.879   0.886  -0.110  0.00  0.00    -0.056 S 
BRANCH  13  14
ATOM     14  C   UNL     1      -3.731  -0.503   0.060  0.00  0.00    +0.174 C 
BRANCH  14  15
ATOM     15  C   UNL     1      -2.329  -0.035  -0.234  0.00  0.00    +0.226 C 
ATOM     16  O   UNL     1      -2.150   1.005  -0.831  0.00  0.00    -0.275 OA
ATOM     17  N   UNL     1      -1.274  -0.772   0.167  0.00  0.00    -0.295 N 
ATOM     18  C   UNL     1       0.016  -0.135   0.461  0.00  0.00    +0.073 C 
ATOM     19  C   UNL     1       0.461  -0.546   1.868  0.00  0.00    +0.022 C 
ATOM     20  C   UNL     1       0.477  -2.073   1.967  0.00  0.00    +0.004 C 
ATOM     21  C   UNL     1      -0.934  -2.617   1.728  0.00  0.00    +0.022 C 
ATOM     22  C   UNL     1      -1.394  -2.229   0.319  0.00  0.00    +0.073 C 
ATOM     23  C   UNL     1      -2.852  -2.647   0.122  0.00  0.00    +0.028 C 
ATOM     24  C   UNL     1      -0.136   1.386   0.396  0.00  0.00    +0.028 C 
ENDBRANCH  14  15
ENDBRANCH  13  14
ENDBRANCH   4  13
TORSDOF 4
