REMARK  Name = ZINC37229531
REMARK  9 active torsions:
REMARK  status: ('A' for Active; 'I' for Inactive)
REMARK    1  A    between atoms: C_1  and  C_2
REMARK    2  A    between atoms: C_13  and  O_15
REMARK    3  A    between atoms: N_21  and  O_22
REMARK    4  A    between atoms: O_22  and  C_23
REMARK    5  A    between atoms: C_23  and  C_24
REMARK    6  A    between atoms: N_26  and  C_27
REMARK    7  A    between atoms: C_27  and  C_28
REMARK    8  A    between atoms: C_28  and  C_29
REMARK    9  A    between atoms: C_37  and  C_38
REMARK                            x       y       z     vdW  Elec       q    Type
REMARK                         _______ _______ _______ _____ _____    ______ ____
ROOT
ATOM      1  C   UNL     1      -0.019   1.526   0.010  0.00  0.00    +0.014 C 
ATOM      2  C   UNL     1       0.002  -0.004   0.002  0.00  0.00    -0.003 C 
ATOM      3  C   UNL     1       0.595  -0.568  -1.292  0.00  0.00    +0.010 C 
ATOM      4  C   UNL     1       2.102  -0.332  -1.336  0.00  0.00    +0.005 C 
ATOM      5  C   UNL     1       2.756  -1.083  -0.170  0.00  0.00    +0.002 C 
ATOM      6  C   UNL     1       2.216  -0.518   1.141  0.00  0.00    -0.003 C 
ATOM      7  C   UNL     1       0.733  -0.586   1.224  0.00  0.00    +0.001 C 
ATOM      8  C   UNL     1       0.240  -2.036   1.327  0.00  0.00    +0.007 C 
ATOM      9  C   UNL     1      -1.145  -2.060   0.650  0.00  0.00    +0.032 C 
ATOM     10  C   UNL     1      -1.419  -0.620   0.162  0.00  0.00    +0.121 C 
ATOM     11  C   UNL     1       2.843  -1.272   2.320  0.00  0.00    +0.008 C 
ATOM     12  C   UNL     1       4.351  -1.014   2.339  0.00  0.00    +0.031 C 
ATOM     13  C   UNL     1       4.928  -1.405   0.991  0.00  0.00    -0.062 C 
ATOM     14  C   UNL     1       5.996  -2.194   0.980  0.00  0.00    +0.026 C 
ATOM     15  C   UNL     1       6.606  -2.591  -0.301  0.00  0.00    +0.080 C 
ATOM     16  N   UNL     1       7.358  -3.641  -0.403  0.00  0.00    -0.089 NA
ATOM     17  C   UNL     1       6.306  -1.704  -1.494  0.00  0.00    +0.059 C 
ATOM     18  C   UNL     1       4.793  -1.493  -1.536  0.00  0.00    +0.017 C 
ATOM     19  C   UNL     1       4.275  -0.890  -0.258  0.00  0.00    -0.007 C 
ATOM     20  C   UNL     1       4.556   0.612  -0.339  0.00  0.00    +0.016 C 
ENDROOT
BRANCH  10  21
ATOM     21  O   UNL     1      -2.103  -0.637  -1.092  0.00  0.00    -0.391 OA
ATOM     22  H   UNL     1      -2.994  -1.012  -1.050  0.00  0.00    +0.210 HD
ENDBRANCH  10  21
BRANCH  16  23
ATOM     23  O   UNL     1       7.613  -4.442   0.736  0.00  0.00    -0.384 OA
BRANCH  23  24
ATOM     24  C   UNL     1       8.457  -5.566   0.478  0.00  0.00    +0.358 C 
BRANCH  24  25
ATOM     25  C   UNL     1       8.661  -6.344   1.753  0.00  0.00    +0.253 C 
ATOM     26  O   UNL     1       8.135  -5.973   2.780  0.00  0.00    -0.272 OA
ATOM     27  N   UNL     1       9.427  -7.453   1.750  0.00  0.00    -0.312 N 
ATOM     28  H   UNL     1       9.848  -7.750   0.929  0.00  0.00    +0.149 HD
BRANCH  27  29
ATOM     29  C   UNL     1       9.625  -8.209   2.990  0.00  0.00    +0.110 C 
BRANCH  29  30
ATOM     30  C   UNL     1      10.528  -9.413   2.714  0.00  0.00    +0.073 C 
BRANCH  30  31
ATOM     31  C   UNL     1      10.732 -10.191   3.988  0.00  0.00    +0.035 A 
ATOM     32  C   UNL     1      11.653  -9.931   4.936  0.00  0.00    +0.105 A 
ATOM     33  N   UNL     1      11.491 -10.874   5.915  0.00  0.00    -0.352 N 
ATOM     34  H   UNL     1      12.008 -10.950   6.731  0.00  0.00    +0.166 HD
ATOM     35  C   UNL     1      10.475 -11.678   5.531  0.00  0.00    +0.171 A 
ATOM     36  N   UNL     1      10.023 -11.260   4.380  0.00  0.00    -0.350 N 
ATOM     37  H   UNL     1       9.291 -11.661   3.886  0.00  0.00    +0.166 HD
ENDBRANCH  30  31
ENDBRANCH  29  30
ENDBRANCH  27  29
ENDBRANCH  24  25
ENDBRANCH  23  24
ENDBRANCH  16  23
TORSDOF 7
