REMARK  Name = ZINC40570138
REMARK  13 active torsions:
REMARK  status: ('A' for Active; 'I' for Inactive)
REMARK    1  A    between atoms: C_1  and  C_2
REMARK    2  A    between atoms: C_2  and  O_3
REMARK    3  A    between atoms: O_3  and  C_4
REMARK    4  A    between atoms: C_4  and  C_6
REMARK    5  A    between atoms: C_7  and  N_32
REMARK    6  A    between atoms: C_9  and  C_20
REMARK    7  A    between atoms: N_17  and  C_19
REMARK    8  A    between atoms: C_22  and  O_30
REMARK    9  A    between atoms: C_23  and  O_28
REMARK   10  A    between atoms: C_25  and  O_26
REMARK   11  A    between atoms: O_26  and  C_27
REMARK   12  A    between atoms: O_28  and  C_29
REMARK   13  A    between atoms: O_30  and  C_31
REMARK                            x       y       z     vdW  Elec       q    Type
REMARK                         _______ _______ _______ _____ _____    ______ ____
ROOT
ATOM      1  C   UNL     1       1.472  -2.353   2.427  0.00  0.00    +0.119 A 
ATOM      2  C   UNL     1       1.687  -3.679   2.742  0.00  0.00    +0.056 A 
ATOM      3  C   UNL     1       2.410  -3.989   3.962  0.00  0.00    +0.037 A 
ATOM      4  C   UNL     1       2.752  -5.266   4.498  0.00  0.00    +0.000 A 
ATOM      5  C   UNL     1       3.458  -5.331   5.698  0.00  0.00    -0.034 A 
ATOM      6  C   UNL     1       3.819  -4.169   6.349  0.00  0.00    +0.043 A 
ATOM      7  N   UNL     1       3.494  -2.989   5.841  0.00  0.00    -0.244 NA
ATOM      8  C   UNL     1       2.829  -2.870   4.715  0.00  0.00    +0.112 A 
ATOM      9  S   UNL     1       2.252  -1.480   3.771  0.00  0.00    -0.060 S 
ATOM     10  C   UNL     1       4.591  -4.202   7.645  0.00  0.00    +0.037 C 
ATOM     11  C   UNL     1       4.511  -5.601   8.259  0.00  0.00    -0.073 C 
ATOM     12  N   UNL     1       4.889  -6.585   7.233  0.00  0.00    +0.381 N 
ATOM     13  C   UNL     1       3.806  -6.689   6.251  0.00  0.00    -0.041 C 
ATOM     14  C   UNL     1       5.108  -7.893   7.864  0.00  0.00    -0.096 C 
ATOM     15  H   UNL     1       5.735  -6.285   6.772  0.00  0.00    -0.082 HD
ENDROOT
BRANCH   4  16
ATOM     16  C   UNL     1       2.361  -6.505   3.791  0.00  0.00    +0.028 A 
ATOM     17  C   UNL     1       3.220  -7.073   2.848  0.00  0.00    +0.061 A 
ATOM     18  C   UNL     1       2.851  -8.230   2.190  0.00  0.00    +0.162 A 
ATOM     19  C   UNL     1       1.623  -8.830   2.465  0.00  0.00    +0.165 A 
ATOM     20  C   UNL     1       0.767  -8.270   3.400  0.00  0.00    +0.095 A 
ATOM     21  C   UNL     1       1.132  -7.114   4.069  0.00  0.00    +0.131 A 
BRANCH  21  22
ATOM     22  O   UNL     1       0.295  -6.568   4.990  0.00  0.00    -0.494 OA
ATOM     23  C   UNL     1      -0.943  -7.243   5.223  0.00  0.00    +0.277 C 
ENDBRANCH  21  22
BRANCH  19  24
ATOM     24  O   UNL     1       1.264  -9.968   1.814  0.00  0.00    -0.491 OA
ATOM     25  C   UNL     1      -0.008 -10.530   2.144  0.00  0.00    +0.277 C 
ENDBRANCH  19  24
BRANCH  18  26
ATOM     26  O   UNL     1       3.687  -8.784   1.270  0.00  0.00    -0.491 OA
ATOM     27  C   UNL     1       4.929  -8.117   1.037  0.00  0.00    +0.277 C 
ENDBRANCH  18  26
ENDBRANCH   4  16
BRANCH   2  28
ATOM     28  N   UNL     1       1.223  -4.691   1.914  0.00  0.00    -0.356 N 
ATOM     29  H   UNL     1       0.741  -4.471   1.101  0.00  0.00    +0.142 HD
ATOM     30  H   UNL     1       1.381  -5.620   2.147  0.00  0.00    +0.142 HD
ENDBRANCH   2  28
BRANCH   1  31
ATOM     31  C   UNL     1       0.801  -1.815   1.305  0.00  0.00    +0.348 C 
ATOM     32  O   UNL     1       0.321  -2.559   0.469  0.00  0.00    -0.244 OA
BRANCH  31  33
ATOM     33  O   UNL     1       0.693  -0.477   1.160  0.00  0.00    -0.461 OA
BRANCH  33  35
ATOM     34  C   UNL     1      -0.019   1.526   0.010  0.00  0.00    +0.048 C 
ATOM     35  C   UNL     1       0.002  -0.004   0.002  0.00  0.00    +0.229 C 
ENDBRANCH  33  35
ENDBRANCH  31  33
ENDBRANCH   1  31
TORSDOF 8
