REMARK  Name = ZINC03765989
REMARK  11 active torsions:
REMARK  status: ('A' for Active; 'I' for Inactive)
REMARK    1  A    between atoms: C_1  and  C_2
REMARK    2  A    between atoms: C_2  and  C_3
REMARK    3  A    between atoms: C_3  and  C_4
REMARK    4  A    between atoms: C_3  and  C_5
REMARK    5  A    between atoms: C_3  and  N_17
REMARK    6  A    between atoms: N_7  and  C_8
REMARK    7  A    between atoms: N_17  and  C_18
REMARK    8  A    between atoms: C_18  and  C_19
REMARK    9  A    between atoms: C_22  and  C_25
REMARK   10  A    between atoms: C_26  and  C_28
REMARK   11  A    between atoms: C_28  and  N_29
REMARK                            x       y       z     vdW  Elec       q    Type
REMARK                         _______ _______ _______ _____ _____    ______ ____
ROOT
ATOM      1  N   UNL     1      -1.647  -0.075  -1.467  0.00  0.00    -0.282 N 
ATOM      2  C   UNL     1      -1.247  -1.095  -2.252  0.00  0.00    +0.234 C 
ATOM      3  O   UNL     1      -0.162  -1.606  -2.076  0.00  0.00    -0.274 OA
ENDROOT
BRANCH   1   4
ATOM      4  C   UNL     1      -0.728   0.492  -0.477  0.00  0.00    +0.111 C 
ATOM      5  C   UNL     1       0.278   1.406  -1.180  0.00  0.00    +0.042 C 
BRANCH   4   6
ATOM      6  C   UNL     1       0.008  -0.623   0.220  0.00  0.00    +0.241 C 
ATOM      7  O   UNL     1       1.176  -0.485   0.517  0.00  0.00    -0.273 OA
ATOM      8  N   UNL     1      -0.632  -1.772   0.516  0.00  0.00    -0.284 N 
ATOM      9  H   UNL     1      -1.567  -1.879   0.283  0.00  0.00    +0.155 HD
BRANCH   8  10
ATOM     10  C   UNL     1       0.055  -2.810   1.158  0.00  0.00    +0.037 A 
ATOM     11  C   UNL     1       1.038  -2.518   2.094  0.00  0.00    +0.027 A 
ATOM     12  C   UNL     1       1.716  -3.541   2.729  0.00  0.00    +0.051 A 
ATOM     13  C   UNL     1       1.416  -4.862   2.433  0.00  0.00    +0.166 A 
ATOM     14  C   UNL     1       0.430  -5.158   1.496  0.00  0.00    +0.168 A 
ATOM     15  C   UNL     1      -0.253  -4.131   0.864  0.00  0.00    +0.072 A 
ATOM     16  O   UNL     1       0.326  -6.514   1.385  0.00  0.00    -0.453 OA
ATOM     17  C   UNL     1       1.537  -7.041   1.960  0.00  0.00    +0.466 C 
ATOM     18  O   UNL     1       1.930  -6.034   2.911  0.00  0.00    -0.453 OA
ENDBRANCH   8  10
ENDBRANCH   4   6
BRANCH   4  20
ATOM     19  C   UNL     1      -2.523   0.386   1.257  0.00  0.00    +0.006 C 
ATOM     20  C   UNL     1      -1.521   1.301   0.550  0.00  0.00    +0.032 C 
ENDBRANCH   4  20
ENDBRANCH   1   4
BRANCH   1  21
ATOM     21  C   UNL     1      -3.002   0.467  -1.604  0.00  0.00    +0.144 C 
BRANCH  21  22
ATOM     22  C   UNL     1      -3.015   1.517  -2.685  0.00  0.00    -0.030 A 
ATOM     23  C   UNL     1      -2.391   2.733  -2.476  0.00  0.00    +0.005 A 
ATOM     24  C   UNL     1      -2.404   3.696  -3.467  0.00  0.00    +0.003 A 
ATOM     25  C   UNL     1      -3.041   3.444  -4.668  0.00  0.00    -0.050 A 
ATOM     26  C   UNL     1      -3.664   2.228  -4.877  0.00  0.00    +0.003 A 
ATOM     27  C   UNL     1      -3.648   1.263  -3.888  0.00  0.00    +0.005 A 
ATOM     28  C   UNL     1      -3.055   4.495  -5.748  0.00  0.00    +0.044 C 
ENDBRANCH  21  22
ENDBRANCH   1  21
BRANCH   2  29
ATOM     29  C   UNL     1      -2.149  -1.600  -3.349  0.00  0.00    +0.210 C 
BRANCH  29  30
ATOM     30  N   UNL     1      -1.564  -2.803  -3.947  0.00  0.00    -0.255 N 
ATOM     31  C   UNL     1      -0.683  -2.794  -5.026  0.00  0.00    +0.048 A 
ATOM     32  C   UNL     1      -0.158  -1.749  -5.774  0.00  0.00    +0.024 A 
ATOM     33  C   UNL     1       0.712  -2.008  -6.816  0.00  0.00    +0.002 A 
ATOM     34  C   UNL     1       1.074  -3.308  -7.129  0.00  0.00    +0.001 A 
ATOM     35  C   UNL     1       0.564  -4.362  -6.399  0.00  0.00    +0.014 A 
ATOM     36  C   UNL     1      -0.316  -4.112  -5.345  0.00  0.00    +0.048 A 
ATOM     37  C   UNL     1      -1.021  -4.989  -4.393  0.00  0.00    +0.250 C 
ATOM     38  O   UNL     1      -0.976  -6.200  -4.328  0.00  0.00    -0.282 OA
ATOM     39  C   UNL     1      -1.804  -4.055  -3.519  0.00  0.00    +0.292 C 
ATOM     40  O   UNL     1      -2.524  -4.371  -2.595  0.00  0.00    -0.266 OA
ENDBRANCH  29  30
ENDBRANCH   2  29
TORSDOF 8
