REMARK  Name = ZINC20716372
REMARK  6 active torsions:
REMARK  status: ('A' for Active; 'I' for Inactive)
REMARK    1  A    between atoms: C_1  and  C_2
REMARK    2  A    between atoms: C_2  and  C_4
REMARK    3  A    between atoms: C_2  and  N_8
REMARK    4  A    between atoms: C_4  and  O_6
REMARK    5  A    between atoms: O_6  and  C_7
REMARK    6  A    between atoms: C_20  and  C_22
REMARK                            x       y       z     vdW  Elec       q    Type
REMARK                         _______ _______ _______ _____ _____    ______ ____
ROOT
ATOM      1  N   UNL     1       2.878  -0.288  -0.033  0.00  0.00    -0.286 N 
ATOM      2  C   UNL     1       2.104  -0.558  -1.103  0.00  0.00    +0.304 C 
ATOM      3  O   UNL     1       0.893  -0.508  -1.006  0.00  0.00    -0.253 OA
ATOM      4  N   UNL     1       2.673  -0.885  -2.280  0.00  0.00    -0.273 N 
ATOM      5  C   UNL     1       1.853  -1.077  -3.486  0.00  0.00    +0.116 C 
ATOM      6  C   UNL     1       1.964  -2.538  -3.940  0.00  0.00    +0.074 C 
ATOM      7  C   UNL     1       3.411  -2.953  -3.892  0.00  0.00    +0.040 A 
ATOM      8  C   UNL     1       4.377  -2.306  -3.205  0.00  0.00    +0.062 A 
ATOM      9  N   UNL     1       5.526  -2.958  -3.390  0.00  0.00    -0.348 N 
ATOM     10  C   UNL     1       5.314  -3.987  -4.169  0.00  0.00    +0.171 A 
ATOM     11  N   UNL     1       4.004  -4.016  -4.504  0.00  0.00    -0.349 N 
ATOM     12  H   UNL     1       3.568  -4.670  -5.073  0.00  0.00    +0.166 HD
ATOM     13  C   UNL     1       4.134  -1.052  -2.392  0.00  0.00    +0.159 C 
ATOM     14  H   UNL     1       3.840  -0.398  -0.089  0.00  0.00    +0.151 HD
ATOM     15  H   UNL     1       6.382  -2.710  -3.008  0.00  0.00    +0.167 HD
ENDROOT
BRANCH  13  16
ATOM     16  C   UNL     1       4.734   0.141  -3.090  0.00  0.00    +0.014 A 
ATOM     17  C   UNL     1       5.124   0.044  -4.413  0.00  0.00    +0.010 A 
ATOM     18  C   UNL     1       5.675   1.138  -5.054  0.00  0.00    +0.016 A 
ATOM     19  C   UNL     1       5.836   2.331  -4.372  0.00  0.00    +0.021 A 
ATOM     20  C   UNL     1       5.447   2.430  -3.050  0.00  0.00    +0.054 A 
ATOM     21  C   UNL     1       4.890   1.336  -2.409  0.00  0.00    +0.130 A 
ATOM     22  F   UNL     1       4.504   1.433  -1.118  0.00  0.00    -0.205 F 
ATOM     23 BR   UNL     1       6.590   3.827  -5.251  0.00  0.00    -0.050 Br
ENDBRANCH  13  16
BRANCH   1  25
ATOM     24  C   UNL     1       1.808  -1.035   2.036  0.00  0.00    +0.040 C 
ATOM     25  C   UNL     1       2.265   0.173   1.216  0.00  0.00    +0.180 C 
BRANCH  25  26
ATOM     26  C   UNL     1       3.274   0.965   2.007  0.00  0.00    +0.327 C 
ATOM     27  O   UNL     1       4.389   1.128   1.573  0.00  0.00    -0.249 OA
BRANCH  26  28
ATOM     28  O   UNL     1       2.932   1.490   3.195  0.00  0.00    -0.467 OA
ATOM     29  C   UNL     1       3.938   2.229   3.891  0.00  0.00    +0.280 C 
ENDBRANCH  26  28
ENDBRANCH  25  26
ENDBRANCH   1  25
TORSDOF 4
