REMARK  Name = ZINC24952863
REMARK  9 active torsions:
REMARK  status: ('A' for Active; 'I' for Inactive)
REMARK    1  A    between atoms: C_1  and  C_2
REMARK    2  A    between atoms: C_3  and  C_32
REMARK    3  A    between atoms: C_7  and  N_31
REMARK    4  A    between atoms: C_9  and  C_11
REMARK    5  A    between atoms: C_11  and  S_12
REMARK    6  A    between atoms: S_12  and  C_13
REMARK    7  A    between atoms: C_16  and  C_24
REMARK    8  A    between atoms: N_17  and  C_18
REMARK    9  A    between atoms: C_24  and  N_25
REMARK                            x       y       z     vdW  Elec       q    Type
REMARK                         _______ _______ _______ _____ _____    ______ ____
ROOT
ATOM      1  C   UNL     1      -2.444   2.085   1.219  0.00  0.00    +0.196 A 
ATOM      2  N   UNL     1      -3.396   2.877   0.783  0.00  0.00    -0.122 NA
ATOM      3  N   UNL     1      -3.099   3.313  -0.389  0.00  0.00    -0.135 NA
ATOM      4  C   UNL     1      -1.948   2.836  -0.768  0.00  0.00    +0.122 A 
ATOM      5  N   UNL     1      -1.490   2.030   0.241  0.00  0.00    -0.276 N 
ENDROOT
BRANCH   5   6
ATOM      6  C   UNL     1      -0.290   1.304   0.267  0.00  0.00    +0.050 A 
ATOM      7  C   UNL     1       0.927   1.972   0.258  0.00  0.00    +0.026 A 
ATOM      8  C   UNL     1       2.107   1.255   0.278  0.00  0.00    +0.002 A 
ATOM      9  C   UNL     1       2.077  -0.127   0.307  0.00  0.00    +0.000 A 
ATOM     10  C   UNL     1       0.867  -0.795   0.317  0.00  0.00    +0.002 A 
ATOM     11  C   UNL     1      -0.317  -0.084   0.297  0.00  0.00    +0.026 A 
ENDBRANCH   5   6
BRANCH   1  12
ATOM     12  S   UNL     1      -2.404   1.251   2.771  0.00  0.00    -0.078 S 
BRANCH  12  13
ATOM     13  C   UNL     1      -3.974   1.816   3.472  0.00  0.00    +0.153 C 
BRANCH  13  22
ATOM     14  C   UNL     1      -5.256  -1.620   9.049  0.00  0.00    +0.045 C 
ATOM     15  C   UNL     1      -4.590  -0.316   8.692  0.00  0.00    -0.028 A 
ATOM     16  C   UNL     1      -4.069   0.465   9.650  0.00  0.00    -0.008 A 
ATOM     17  S   UNL     1      -3.413   1.853   8.745  0.00  0.00    -0.074 S 
ATOM     18  C   UNL     1      -3.855   1.347   7.104  0.00  0.00    +0.114 A 
ATOM     19  C   UNL     1      -4.503   0.109   7.306  0.00  0.00    +0.050 A 
ATOM     20  C   UNL     1      -4.971  -0.534   6.126  0.00  0.00    +0.128 A 
ATOM     21  N   UNL     1      -4.780   0.051   4.954  0.00  0.00    -0.216 NA
ATOM     22  C   UNL     1      -4.160   1.211   4.840  0.00  0.00    +0.143 A 
ATOM     23  N   UNL     1      -3.704   1.855   5.897  0.00  0.00    -0.224 NA
ATOM     24  C   UNL     1      -4.045   0.226  11.137  0.00  0.00    +0.052 C 
BRANCH  20  25
ATOM     25  N   UNL     1      -5.620  -1.753   6.203  0.00  0.00    -0.343 N 
ATOM     26  H   UNL     1      -5.979  -2.244   5.287  0.00  0.00    +0.144 HD
ATOM     27  H   UNL     1      -5.778  -2.231   7.181  0.00  0.00    +0.144 HD
ENDBRANCH  20  25
ENDBRANCH  13  22
ENDBRANCH  12  13
ENDBRANCH   1  12
BRANCH   4  28
ATOM     28  C   UNL     1      -1.251   3.115  -2.075  0.00  0.00    -0.001 C 
BRANCH  28  29
ATOM     29  N   UNL     1      -1.667   2.122  -3.074  0.00  0.00    +0.384 N 
ATOM     30  C   UNL     1      -1.204   0.778  -2.704  0.00  0.00    -0.078 C 
ATOM     31  C   UNL     1      -1.776  -0.248  -3.685  0.00  0.00    -0.019 C 
ATOM     32  C   UNL     1      -1.317   0.099  -5.104  0.00  0.00    -0.004 C 
ATOM     33  C   UNL     1      -1.771   1.521  -5.446  0.00  0.00    -0.019 C 
ATOM     34  C   UNL     1      -1.198   2.495  -4.414  0.00  0.00    -0.078 C 
ATOM     35  H   UNL     1      -2.767   2.103  -3.096  0.00  0.00    -0.081 HD
ENDBRANCH  28  29
ENDBRANCH   4  28
TORSDOF 7
