REMARK  Name = ZINC51725863
REMARK  9 active torsions:
REMARK  status: ('A' for Active; 'I' for Inactive)
REMARK    1  A    between atoms: C_1  and  C_2
REMARK    2  A    between atoms: C_2  and  C_3
REMARK    3  A    between atoms: C_6  and  C_8
REMARK    4  A    between atoms: C_8  and  C_10
REMARK    5  A    between atoms: C_8  and  N_12
REMARK    6  A    between atoms: C_10  and  N_11
REMARK    7  A    between atoms: N_12  and  C_13
REMARK    8  A    between atoms: N_12  and  C_14
REMARK    9  A    between atoms: C_14  and  C_15
REMARK                            x       y       z     vdW  Elec       q    Type
REMARK                         _______ _______ _______ _____ _____    ______ ____
ROOT
ATOM      1  C   UNL     1       0.872  -1.486  -4.841  0.00  0.00    -0.019 C 
ENDROOT
BRANCH   1   5
ATOM      2  C   UNL     1       1.550   0.210  -1.679  0.00  0.00    +0.105 A 
ATOM      3  C   UNL     1       2.797  -0.198  -1.975  0.00  0.00    +0.045 A 
ATOM      4  C   UNL     1       2.720  -0.893  -3.203  0.00  0.00    +0.043 A 
ATOM      5  C   UNL     1       1.431  -0.868  -3.586  0.00  0.00    +0.090 A 
ATOM      6  O   UNL     1       0.726  -0.203  -2.656  0.00  0.00    -0.466 OA
BRANCH   2   8
ATOM      7  C   UNL     1       1.236   2.491  -0.758  0.00  0.00    +0.012 C 
ATOM      8  C   UNL     1       1.145   0.994  -0.457  0.00  0.00    +0.071 C 
ENDBRANCH   2   8
ENDBRANCH   1   5
BRANCH   1   9
ATOM      9  N   UNL     1      -0.322  -2.274  -4.509  0.00  0.00    +0.386 N 
ATOM     10  C   UNL     1       0.025  -3.291  -3.508  0.00  0.00    -0.095 C 
ATOM     11  H   UNL     1      -0.669  -2.727  -5.342  0.00  0.00    -0.081 HD
BRANCH   9  12
ATOM     12  C   UNL     1      -1.360  -1.387  -3.966  0.00  0.00    -0.035 C 
BRANCH  12  13
ATOM     13  C   UNL     1      -2.635  -2.166  -3.769  0.00  0.00    -0.026 A 
ATOM     14  C   UNL     1      -3.058  -2.849  -2.677  0.00  0.00    +0.024 A 
ATOM     15  C   UNL     1      -4.278  -3.498  -2.724  0.00  0.00    +0.025 A 
ATOM     16  C   UNL     1      -5.015  -3.431  -3.860  0.00  0.00    +0.060 A 
ATOM     17  S   UNL     1      -3.983  -2.423  -4.911  0.00  0.00    -0.102 S 
ATOM     18 BR   UNL     1      -4.909  -4.463  -1.225  0.00  0.00    -0.050 Br
ENDBRANCH  12  13
ENDBRANCH   9  12
ENDBRANCH   1   9
BRANCH   1  19
ATOM     19  C   UNL     1       0.494  -0.380  -5.829  0.00  0.00    -0.094 C 
BRANCH  19  20
ATOM     20  N   UNL     1      -0.120  -0.978  -7.022  0.00  0.00    +0.377 N 
ATOM     21  H   UNL     1       0.557  -1.559  -7.494  0.00  0.00    -0.090 HD
ATOM     22  H   UNL     1      -0.912  -1.540  -6.747  0.00  0.00    -0.090 HD
ATOM     23  H   UNL     1      -0.428  -0.246  -7.645  0.00  0.00    -0.090 HD
ENDBRANCH  19  20
ENDBRANCH   1  19
TORSDOF 7
