REMARK  Name = ZINC03843221
REMARK  3 active torsions:
REMARK  status: ('A' for Active; 'I' for Inactive)
REMARK    1  A    between atoms: C_3  and  C_6
REMARK    2  A    between atoms: C_10  and  C_15
REMARK    3  A    between atoms: C_18  and  N_21
REMARK                            x       y       z     vdW  Elec       q    Type
REMARK                         _______ _______ _______ _____ _____    ______ ____
ROOT
ATOM      1  C   UNL     1      -0.409  -2.391  -0.007  0.00  0.00    +0.218 C 
ATOM      2  N   UNL     1      -0.917  -1.004   0.006  0.00  0.00    -0.260 N 
ATOM      3  N   UNL     1       0.002  -0.004   0.002  0.00  0.00    -0.220 N 
ATOM      4  C   UNL     1      -0.017   1.390   0.010  0.00  0.00    +0.182 A 
ATOM      5  N   UNL     1       1.224   1.806   0.000  0.00  0.00    -0.127 NA
ATOM      6  N   UNL     1       2.024   0.799  -0.013  0.00  0.00    -0.120 NA
ATOM      7  C   UNL     1       1.335  -0.305  -0.012  0.00  0.00    +0.211 A 
ATOM      8  S   UNL     1       1.400  -2.082  -0.022  0.00  0.00    -0.053 S 
ATOM      9  H   UNL     1      -1.592  -0.872   0.744  0.00  0.00    +0.168 HD
ENDROOT
BRANCH   4  10
ATOM     10  C   UNL     1      -1.222   2.246   0.020  0.00  0.00    +0.021 A 
ATOM     11  C   UNL     1      -2.470   1.704  -0.294  0.00  0.00    +0.014 A 
ATOM     12  C   UNL     1      -3.591   2.506  -0.278  0.00  0.00    +0.033 A 
ATOM     13  C   UNL     1      -3.481   3.849   0.040  0.00  0.00    +0.126 A 
ATOM     14  C   UNL     1      -2.247   4.393   0.348  0.00  0.00    +0.033 A 
ATOM     15  C   UNL     1      -1.118   3.601   0.340  0.00  0.00    +0.014 A 
BRANCH  13  16
ATOM     16  N   UNL     1      -4.688   4.705   0.050  0.00  0.00    +0.056 N 
ATOM     17  O   UNL     1      -4.594   5.887   0.329  0.00  0.00    -0.126 OA
ATOM     18  O   UNL     1      -5.776   4.228  -0.221  0.00  0.00    -0.126 OA
ENDBRANCH  13  16
ENDBRANCH   4  10
BRANCH   1  21
ATOM     19  C   UNL     1      -1.386  -4.706  -2.703  0.00  0.00    +0.041 A 
ATOM     20  C   UNL     1      -0.932  -4.458  -1.387  0.00  0.00    +0.047 A 
ATOM     21  C   UNL     1      -0.849  -3.123  -1.249  0.00  0.00    +0.137 A 
ATOM     22  O   UNL     1      -1.218  -2.552  -2.407  0.00  0.00    -0.465 OA
ATOM     23  C   UNL     1      -1.545  -3.507  -3.293  0.00  0.00    +0.195 A 
ENDBRANCH   1  21
TORSDOF 3
