REMARK  Name = ZINC05668579
REMARK  8 active torsions:
REMARK  status: ('A' for Active; 'I' for Inactive)
REMARK    1  A    between atoms: C_1  and  C_2
REMARK    2  A    between atoms: C_8  and  N_10
REMARK    3  A    between atoms: C_11  and  C_13
REMARK    4  A    between atoms: C_13  and  O_14
REMARK    5  A    between atoms: O_14  and  C_15
REMARK    6  A    between atoms: C_15  and  C_17
REMARK    7  A    between atoms: C_20  and  S_23
REMARK    8  A    between atoms: S_23  and  N_26
REMARK                            x       y       z     vdW  Elec       q    Type
REMARK                         _______ _______ _______ _____ _____    ______ ____
ROOT
ATOM      1  C   UNL     1      -2.521   3.870   0.046  0.00  0.00    +0.340 C 
ATOM      2  O   UNL     1      -2.532   5.085   0.053  0.00  0.00    -0.245 OA
ENDROOT
BRANCH   1   3
ATOM      3  C   UNL     1      -1.234   3.144   0.030  0.00  0.00    +0.059 A 
ATOM      4  C   UNL     1      -1.217   1.748   0.017  0.00  0.00    +0.017 A 
ATOM      5  C   UNL     1      -0.013   1.076   0.008  0.00  0.00    +0.029 A 
ATOM      6  C   UNL     1       1.177   1.782   0.000  0.00  0.00    +0.106 A 
ATOM      7  C   UNL     1       1.167   3.166   0.008  0.00  0.00    +0.029 A 
ATOM      8  C   UNL     1      -0.030   3.850   0.023  0.00  0.00    +0.017 A 
BRANCH   6   9
ATOM      9  S   UNL     1       2.711   0.916  -0.018  0.00  0.00    +0.061 S 
ATOM     10  O   UNL     1       3.682   1.798   0.528  0.00  0.00    -0.153 OA
ATOM     11  O   UNL     1       2.458  -0.371   0.528  0.00  0.00    -0.153 OA
BRANCH   9  12
ATOM     12  N   UNL     1       3.123   0.683  -1.605  0.00  0.00    -0.177 NA
ATOM     13  C   UNL     1       2.754  -0.480  -2.425  0.00  0.00    +0.109 C 
ATOM     14  C   UNL     1       3.376  -0.273  -3.822  0.00  0.00    +0.018 C 
ATOM     15  C   UNL     1       4.537   0.716  -3.539  0.00  0.00    +0.018 C 
ATOM     16  C   UNL     1       3.925   1.606  -2.429  0.00  0.00    +0.109 C 
ENDBRANCH   9  12
ENDBRANCH   6   9
ENDBRANCH   1   3
BRANCH   1  17
ATOM     17  O   UNL     1      -3.681   3.185   0.054  0.00  0.00    -0.452 OA
BRANCH  17  18
ATOM     18  C   UNL     1      -4.906   3.964   0.070  0.00  0.00    +0.328 C 
BRANCH  18  20
ATOM     19  N   UNL     1      -7.342   3.538   0.091  0.00  0.00    -0.309 N 
ATOM     20  C   UNL     1      -6.092   3.035   0.076  0.00  0.00    +0.251 C 
ATOM     21  O   UNL     1      -5.922   1.834   0.068  0.00  0.00    -0.272 OA
ATOM     22  H   UNL     1      -7.479   4.498   0.097  0.00  0.00    +0.149 HD
BRANCH  19  29
ATOM     23  C   UNL     1      -9.399   3.773  -1.935  0.00  0.00    +0.009 C 
ATOM     24  C   UNL     1      -9.709   3.352  -0.497  0.00  0.00    +0.006 C 
ATOM     25  C   UNL     1     -10.028   4.592   0.340  0.00  0.00    +0.005 C 
ATOM     26  C   UNL     1     -10.339   4.171   1.778  0.00  0.00    +0.000 C 
ATOM     27  C   UNL     1      -9.125   3.453   2.372  0.00  0.00    +0.002 C 
ATOM     28  C   UNL     1      -8.806   2.213   1.535  0.00  0.00    +0.022 C 
ATOM     29  C   UNL     1      -8.495   2.634   0.097  0.00  0.00    +0.076 C 
ENDBRANCH  19  29
ENDBRANCH  18  20
ENDBRANCH  17  18
ENDBRANCH   1  17
TORSDOF 7
