REMARK  Name = ZINC02338769
REMARK  15 active torsions:
REMARK  status: ('A' for Active; 'I' for Inactive)
REMARK    1  A    between atoms: C_1  and  C_2
REMARK    2  A    between atoms: C_2  and  C_3
REMARK    3  A    between atoms: C_2  and  C_4
REMARK    4  A    between atoms: C_2  and  C_5
REMARK    5  A    between atoms: C_8  and  C_11
REMARK    6  A    between atoms: C_14  and  S_22
REMARK    7  A    between atoms: N_15  and  C_16
REMARK    8  A    between atoms: S_22  and  C_23
REMARK    9  A    between atoms: C_23  and  C_24
REMARK   10  A    between atoms: N_26  and  N_27
REMARK   11  A    between atoms: C_28  and  C_29
REMARK   12  A    between atoms: C_33  and  O_37
REMARK   13  A    between atoms: C_34  and  O_35
REMARK   14  A    between atoms: O_35  and  C_36
REMARK   15  A    between atoms: O_37  and  C_38
REMARK                            x       y       z     vdW  Elec       q    Type
REMARK                         _______ _______ _______ _____ _____    ______ ____
ROOT
ATOM      1  C   UNL     1      12.046   0.296  -0.114  0.00  0.00    +0.169 A 
ATOM      2  N   UNL     1      11.162  -0.675  -0.112  0.00  0.00    -0.128 NA
ATOM      3  N   UNL     1       9.973  -0.188  -0.097  0.00  0.00    -0.122 NA
ATOM      4  C   UNL     1      10.022   1.125  -0.090  0.00  0.00    +0.197 A 
ATOM      5  N   UNL     1      11.343   1.481  -0.106  0.00  0.00    -0.270 N 
ENDROOT
BRANCH   1   9
ATOM      6  C   UNL     1      16.271  -0.134  -0.155  0.00  0.00    -0.042 A 
ATOM      7  C   UNL     1      15.466  -1.216  -0.465  0.00  0.00    +0.005 A 
ATOM      8  C   UNL     1      14.092  -1.083  -0.453  0.00  0.00    +0.012 A 
ATOM      9  C   UNL     1      13.516   0.146  -0.128  0.00  0.00    +0.020 A 
ATOM     10  C   UNL     1      14.334   1.235   0.178  0.00  0.00    +0.012 A 
ATOM     11  C   UNL     1      15.706   1.087   0.168  0.00  0.00    +0.005 A 
BRANCH   6  13
ATOM     12  C   UNL     1      18.227  -0.701  -1.569  0.00  0.00    +0.015 C 
ATOM     13  C   UNL     1      17.770  -0.286  -0.169  0.00  0.00    -0.013 C 
ATOM     14  C   UNL     1      18.422   1.046   0.206  0.00  0.00    +0.015 C 
ATOM     15  C   UNL     1      18.183  -1.359   0.840  0.00  0.00    +0.015 C 
ENDBRANCH   6  13
ENDBRANCH   1   9
BRANCH   5  16
ATOM     16  C   UNL     1      11.871   2.780  -0.111  0.00  0.00    +0.051 A 
ATOM     17  C   UNL     1      12.594   3.232  -1.206  0.00  0.00    +0.026 A 
ATOM     18  C   UNL     1      13.108   4.514  -1.211  0.00  0.00    +0.002 A 
ATOM     19  C   UNL     1      12.913   5.343  -0.120  0.00  0.00    +0.000 A 
ATOM     20  C   UNL     1      12.198   4.893   0.974  0.00  0.00    +0.002 A 
ATOM     21  C   UNL     1      11.677   3.614   0.982  0.00  0.00    +0.026 A 
ENDBRANCH   5  16
BRANCH   4  22
ATOM     22  S   UNL     1       8.644   2.223  -0.070  0.00  0.00    -0.076 S 
BRANCH  22  23
ATOM     23  C   UNL     1       7.287   1.024  -0.064  0.00  0.00    +0.174 C 
BRANCH  23  24
ATOM     24  C   UNL     1       5.970   1.756  -0.047  0.00  0.00    +0.242 C 
ATOM     25  O   UNL     1       5.950   2.969  -0.039  0.00  0.00    -0.273 OA
ATOM     26  N   UNL     1       4.814   1.063  -0.039  0.00  0.00    -0.206 N 
ATOM     27  H   UNL     1       4.830   0.093  -0.045  0.00  0.00    +0.177 HD
BRANCH  26  28
ATOM     28  N   UNL     1       3.590   1.743  -0.023  0.00  0.00    -0.188 NA
ATOM     29  C   UNL     1       2.477   1.075  -0.016  0.00  0.00    +0.142 C 
BRANCH  29  30
ATOM     30  C   UNL     1       1.188   1.791   0.000  0.00  0.00    +0.040 A 
ATOM     31  C   UNL     1      -0.013   1.076   0.008  0.00  0.00    +0.013 A 
ATOM     32  C   UNL     1      -1.216   1.749   0.017  0.00  0.00    +0.004 A 
ATOM     33  C   UNL     1      -1.242   3.133   0.031  0.00  0.00    +0.049 A 
ATOM     34  C   UNL     1      -0.059   3.856   0.023  0.00  0.00    +0.162 A 
ATOM     35  C   UNL     1       1.161   3.191   0.008  0.00  0.00    +0.170 A 
BRANCH  35  36
ATOM     36  O   UNL     1       2.323   3.896   0.001  0.00  0.00    -0.491 OA
ATOM     37  C   UNL     1       2.866   4.240  -1.275  0.00  0.00    +0.277 C 
ENDBRANCH  35  36
BRANCH  34  38
ATOM     38  O   UNL     1      -0.093   5.215   0.031  0.00  0.00    -0.491 OA
ATOM     39  C   UNL     1      -1.382   5.832   0.047  0.00  0.00    +0.277 C 
ENDBRANCH  34  38
ENDBRANCH  29  30
ENDBRANCH  26  28
ENDBRANCH  23  24
ENDBRANCH  22  23
ENDBRANCH   4  22
TORSDOF 10
