REMARK  Name = ZINC04156165
REMARK  7 active torsions:
REMARK  status: ('A' for Active; 'I' for Inactive)
REMARK    1  A    between atoms: C_1  and  C_2
REMARK    2  A    between atoms: C_3  and  C_24
REMARK    3  A    between atoms: C_4  and  N_11
REMARK    4  A    between atoms: C_6  and  C_7
REMARK    5  A    between atoms: C_7  and  O_9
REMARK    6  A    between atoms: O_9  and  C_10
REMARK    7  A    between atoms: C_12  and  C_14
REMARK                            x       y       z     vdW  Elec       q    Type
REMARK                         _______ _______ _______ _____ _____    ______ ____
ROOT
ATOM      1  C   UNL     1       0.644   7.633  -4.821  0.00  0.00    +0.046 C 
ATOM      2  C   UNL     1       1.239   6.364  -4.268  0.00  0.00    -0.010 A 
ATOM      3  C   UNL     1       0.771   5.803  -3.092  0.00  0.00    +0.084 A 
ATOM      4  C   UNL     1       1.377   4.627  -2.642  0.00  0.00    +0.090 A 
ATOM      5  S   UNL     1       2.573   4.312  -3.856  0.00  0.00    -0.065 S 
ATOM      6  C   UNL     1       2.268   5.711  -4.918  0.00  0.00    +0.102 A 
ENDROOT
BRANCH   4   7
ATOM      7  N   UNL     1       1.089   3.891  -1.508  0.00  0.00    -0.279 N 
ATOM      8  C   UNL     1       1.785   2.768  -1.238  0.00  0.00    +0.221 C 
ATOM      9  O   UNL     1       2.663   2.404  -1.991  0.00  0.00    -0.275 OA
ATOM     10  H   UNL     1       0.387   4.183  -0.905  0.00  0.00    +0.155 HD
BRANCH   8  11
ATOM     11  C   UNL     1       1.471   1.966  -0.001  0.00  0.00    +0.079 C 
ATOM     12  C   UNL     1       1.964   0.510  -0.164  0.00  0.00    +0.016 C 
ATOM     13  C   UNL     1       3.011   0.319   0.975  0.00  0.00    -0.010 C 
ATOM     14  C   UNL     1       4.225   1.196   0.540  0.00  0.00    +0.004 C 
ATOM     15  C   UNL     1       3.732   2.652   0.703  0.00  0.00    +0.004 C 
ATOM     16  C   UNL     1       2.267   2.517   1.221  0.00  0.00    +0.001 C 
ATOM     17  C   UNL     1       2.388   1.221   2.097  0.00  0.00    +0.008 C 
ENDBRANCH   8  11
ENDBRANCH   4   7
BRANCH   6  18
ATOM     18  C   UNL     1       2.940   6.077  -6.163  0.00  0.00    +0.346 C 
ATOM     19  O   UNL     1       2.600   7.077  -6.767  0.00  0.00    -0.244 OA
BRANCH  18  20
ATOM     20  O   UNL     1       3.936   5.304  -6.644  0.00  0.00    -0.464 OA
ATOM     21  C   UNL     1       4.548   5.721  -7.867  0.00  0.00    +0.280 C 
ENDBRANCH  18  20
ENDBRANCH   6  18
BRANCH   3  22
ATOM     22  C   UNL     1      -0.298   6.410  -2.358  0.00  0.00    +0.102 C 
ATOM     23  N   UNL     1      -1.146   6.892  -1.776  0.00  0.00    -0.191 NA
ENDBRANCH   3  22
TORSDOF 5
