REMARK  Name = ZINC63491980
REMARK  9 active torsions:
REMARK  status: ('A' for Active; 'I' for Inactive)
REMARK    1  A    between atoms: C_1  and  C_2
REMARK    2  A    between atoms: C_5  and  N_27
REMARK    3  A    between atoms: C_7  and  N_8
REMARK    4  A    between atoms: C_9  and  C_11
REMARK    5  A    between atoms: C_11  and  C_12
REMARK    6  A    between atoms: C_11  and  N_13
REMARK    7  A    between atoms: C_16  and  C_19
REMARK    8  A    between atoms: C_19  and  C_20
REMARK    9  A    between atoms: C_19  and  O_26
REMARK                            x       y       z     vdW  Elec       q    Type
REMARK                         _______ _______ _______ _____ _____    ______ ____
ROOT
ATOM      1  C   UNL     1      -0.169   0.052   4.882  0.00  0.00    +0.016 C 
ATOM      2  C   UNL     1       1.027   1.003   4.973  0.00  0.00    -0.004 C 
ENDROOT
BRANCH   1   3
ATOM      3  N   UNL     1      -0.122  -0.902   5.998  0.00  0.00    +0.387 N 
ATOM      4  C   UNL     1      -0.102  -0.166   7.268  0.00  0.00    -0.077 C 
ATOM      5  C   UNL     1       0.029  -1.152   8.431  0.00  0.00    -0.012 C 
ATOM      6  C   UNL     1      -1.164  -2.113   8.415  0.00  0.00    +0.019 C 
ATOM      7  C   UNL     1      -1.218  -2.820   7.058  0.00  0.00    -0.012 C 
ATOM      8  C   UNL     1      -1.303  -1.772   5.946  0.00  0.00    -0.077 C 
ATOM      9  H   UNL     1       0.713  -1.464   5.924  0.00  0.00    -0.081 HD
BRANCH   6  10
ATOM     10  C   UNL     1      -0.999  -3.151   9.527  0.00  0.00    +0.147 C 
BRANCH  10  11
ATOM     11  C   UNL     1      -2.174  -4.095   9.509  0.00  0.00    -0.019 A 
ATOM     12  C   UNL     1      -3.374  -3.716  10.081  0.00  0.00    +0.006 A 
ATOM     13  C   UNL     1      -4.451  -4.582  10.065  0.00  0.00    +0.000 A 
ATOM     14  C   UNL     1      -4.328  -5.828   9.477  0.00  0.00    +0.000 A 
ATOM     15  C   UNL     1      -3.128  -6.206   8.905  0.00  0.00    +0.000 A 
ATOM     16  C   UNL     1      -2.052  -5.338   8.917  0.00  0.00    +0.006 A 
ENDBRANCH  10  11
BRANCH  10  17
ATOM     17  O   UNL     1      -0.939  -2.489  10.792  0.00  0.00    -0.387 OA
ATOM     18  H   UNL     1      -1.727  -1.969  11.001  0.00  0.00    +0.210 HD
ENDBRANCH  10  17
ENDBRANCH   6  10
ENDBRANCH   1   3
BRANCH   1  20
ATOM     19  N   UNL     1      -0.687  -0.176   2.474  0.00  0.00    -0.287 N 
ATOM     20  C   UNL     1      -0.115  -0.699   3.577  0.00  0.00    +0.203 C 
ATOM     21  O   UNL     1       0.443  -1.774   3.518  0.00  0.00    -0.277 OA
ATOM     22  H   UNL     1      -1.077   0.712   2.505  0.00  0.00    +0.155 HD
BRANCH  19  29
ATOM     23  C   UNL     1      -2.859   0.251   0.686  0.00  0.00    +0.045 C 
ATOM     24  C   UNL     1      -1.760  -0.736   0.385  0.00  0.00    -0.029 A 
ATOM     25  C   UNL     1      -1.786  -1.462  -0.791  0.00  0.00    +0.007 A 
ATOM     26  C   UNL     1      -0.778  -2.367  -1.068  0.00  0.00    +0.033 A 
ATOM     27  C   UNL     1       0.258  -2.549  -0.170  0.00  0.00    +0.128 A 
ATOM     28  C   UNL     1       0.289  -1.827   1.006  0.00  0.00    +0.056 A 
ATOM     29  C   UNL     1      -0.719  -0.913   1.285  0.00  0.00    +0.038 A 
BRANCH  27  30
ATOM     30  N   UNL     1       1.334  -3.520  -0.470  0.00  0.00    +0.056 N 
ATOM     31  O   UNL     1       1.307  -4.154  -1.500  0.00  0.00    -0.126 OA
ATOM     32  O   UNL     1       2.240  -3.680   0.314  0.00  0.00    -0.126 OA
ENDBRANCH  27  30
ENDBRANCH  19  29
ENDBRANCH   1  20
TORSDOF 7
