REMARK  Name = ZINC07814916
REMARK  9 active torsions:
REMARK  status: ('A' for Active; 'I' for Inactive)
REMARK    1  A    between atoms: C_1  and  C_2
REMARK    2  A    between atoms: C_6  and  C_15
REMARK    3  A    between atoms: C_10  and  C_11
REMARK    4  A    between atoms: C_11  and  O_13
REMARK    5  A    between atoms: O_13  and  C_14
REMARK    6  A    between atoms: N_16  and  C_17
REMARK    7  A    between atoms: C_17  and  C_18
REMARK    8  A    between atoms: C_18  and  C_20
REMARK    9  A    between atoms: C_18  and  N_55
REMARK                            x       y       z     vdW  Elec       q    Type
REMARK                         _______ _______ _______ _____ _____    ______ ____
ROOT
ATOM      1  C   UNL     1       3.183   1.730  -0.262  0.00  0.00    +0.046 C 
ATOM      2  C   UNL     1       3.084   0.234  -0.413  0.00  0.00    -0.017 A 
ATOM      3  C   UNL     1       1.873  -0.419  -0.151  0.00  0.00    +0.051 A 
ATOM      4  C   UNL     1       0.622   0.129   0.264  0.00  0.00    +0.131 A 
ATOM      5  N   UNL     1      -0.404  -0.681   0.460  0.00  0.00    -0.217 NA
ATOM      6  C   UNL     1      -0.318  -1.986   0.275  0.00  0.00    +0.129 A 
ATOM      7  N   UNL     1       0.809  -2.555  -0.108  0.00  0.00    -0.225 NA
ATOM      8  C   UNL     1       1.885  -1.826  -0.322  0.00  0.00    +0.115 A 
ATOM      9  S   UNL     1       3.552  -2.161  -0.829  0.00  0.00    -0.062 S 
ATOM     10  C   UNL     1       4.172  -0.487  -0.803  0.00  0.00    +0.102 A 
ATOM     11  C   UNL     1      -1.533  -2.846   0.513  0.00  0.00    +0.088 C 
ATOM     12  N   UNL     1       0.487   1.488   0.464  0.00  0.00    -0.330 N 
ATOM     13  H   UNL     1       1.264   2.066   0.407  0.00  0.00    +0.147 HD
ENDROOT
BRANCH  10  14
ATOM     14  C   UNL     1       5.519  -0.007  -1.124  0.00  0.00    +0.346 C 
ATOM     15  O   UNL     1       5.774   1.180  -1.054  0.00  0.00    -0.244 OA
BRANCH  14  16
ATOM     16  O   UNL     1       6.476  -0.881  -1.496  0.00  0.00    -0.464 OA
ATOM     17  C   UNL     1       7.787  -0.335  -1.798  0.00  0.00    +0.280 C 
ENDBRANCH  14  16
ENDBRANCH  10  14
BRANCH  12  18
ATOM     18  C   UNL     1      -0.831   2.058   0.754  0.00  0.00    +0.095 C 
BRANCH  18  19
ATOM     19  C   UNL     1      -0.728   3.584   0.795  0.00  0.00    +0.016 C 
BRANCH  19  25
ATOM     20  C   UNL     1       0.036   3.468   3.088  0.00  0.00    -0.078 C 
ATOM     21  C   UNL     1       1.217   3.773   4.013  0.00  0.00    -0.019 C 
ATOM     22  C   UNL     1       1.445   5.286   4.060  0.00  0.00    -0.004 C 
ATOM     23  C   UNL     1       1.693   5.801   2.639  0.00  0.00    -0.019 C 
ATOM     24  C   UNL     1       0.498   5.438   1.755  0.00  0.00    -0.078 C 
ATOM     25  N   UNL     1       0.347   3.967   1.732  0.00  0.00    +0.387 N 
ATOM     26  H   UNL     1       1.230   3.547   1.417  0.00  0.00    -0.081 HD
ENDBRANCH  19  25
BRANCH  19  27
ATOM     27  C   UNL     1      -0.386   4.101  -0.579  0.00  0.00    +0.093 A 
ATOM     28  C   UNL     1      -1.257   4.620  -1.464  0.00  0.00    +0.043 A 
ATOM     29  C   UNL     1      -0.511   4.976  -2.611  0.00  0.00    +0.041 A 
ATOM     30  C   UNL     1       0.769   4.647  -2.362  0.00  0.00    +0.195 A 
ATOM     31  O   UNL     1       0.839   4.117  -1.130  0.00  0.00    -0.469 OA
ENDBRANCH  19  27
ENDBRANCH  18  19
ENDBRANCH  12  18
TORSDOF 6
