REMARK  Name = ZINC39657693
REMARK  12 active torsions:
REMARK  status: ('A' for Active; 'I' for Inactive)
REMARK    1  A    between atoms: C_1  and  C_2
REMARK    2  A    between atoms: C_2  and  C_3
REMARK    3  A    between atoms: C_3  and  C_4
REMARK    4  A    between atoms: C_4  and  C_6
REMARK    5  A    between atoms: C_4  and  C_7
REMARK    6  A    between atoms: C_11  and  C_20
REMARK    7  A    between atoms: N_22  and  C_23
REMARK    8  A    between atoms: C_23  and  C_24
REMARK    9  A    between atoms: C_29  and  S_30
REMARK   10  A    between atoms: S_30  and  C_31
REMARK   11  A    between atoms: C_36  and  C_37
REMARK   12  A    between atoms: C_37  and  O_38
REMARK                            x       y       z     vdW  Elec       q    Type
REMARK                         _______ _______ _______ _____ _____    ______ ____
ROOT
ATOM      1  C   UNL     1      -2.612  -6.104   1.848  0.00  0.00    +0.218 C 
ATOM      2  O   UNL     1      -2.565  -5.058   2.460  0.00  0.00    -0.275 OA
ATOM      3  N   UNL     1      -2.689  -7.273   2.515  0.00  0.00    -0.311 N 
ATOM      4  H   UNL     1      -2.652  -8.112   2.030  0.00  0.00    +0.149 HD
ENDROOT
BRANCH   1   9
ATOM      5  C   UNL     1      -2.560  -2.517  -0.201  0.00  0.00    +0.218 C 
ATOM      6  O   UNL     1      -1.496  -2.085   0.190  0.00  0.00    -0.275 OA
ATOM      7  N   UNL     1      -2.705  -3.836  -0.440  0.00  0.00    -0.300 N 
ATOM      8  C   UNL     1      -1.730  -4.919  -0.176  0.00  0.00    +0.121 C 
ATOM      9  C   UNL     1      -2.585  -6.097   0.341  0.00  0.00    +0.100 C 
ATOM     10  C   UNL     1      -3.993  -5.837  -0.221  0.00  0.00    -0.004 C 
ATOM     11  C   UNL     1      -3.880  -4.530  -1.020  0.00  0.00    +0.115 C 
ATOM     12  C   UNL     1      -4.417  -6.981  -1.136  0.00  0.00    -0.010 C 
ATOM     13  C   UNL     1      -5.841  -6.728  -1.637  0.00  0.00    -0.082 C 
ATOM     14  N   UNL     1      -6.754  -6.627  -0.491  0.00  0.00    +0.379 N 
ATOM     15  C   UNL     1      -6.395  -5.468   0.334  0.00  0.00    -0.082 C 
ATOM     16  C   UNL     1      -4.993  -5.668   0.918  0.00  0.00    -0.010 C 
ATOM     17  H   UNL     1      -7.700  -6.521  -0.825  0.00  0.00    -0.086 HD
ATOM     18  H   UNL     1      -6.688  -7.467   0.065  0.00  0.00    -0.086 HD
BRANCH   5  19
ATOM     19  C   UNL     1      -3.720  -1.579  -0.419  0.00  0.00    +0.072 C 
ATOM     20  C   UNL     1      -3.988  -1.440  -1.919  0.00  0.00    +0.017 C 
BRANCH  19  21
ATOM     21  C   UNL     1      -3.383  -0.207   0.168  0.00  0.00    +0.012 C 
BRANCH  21  23
ATOM     22  C   UNL     1      -4.258   2.093   0.601  0.00  0.00    +0.004 C 
ATOM     23  C   UNL     1      -4.619   0.693   0.102  0.00  0.00    -0.003 C 
ENDBRANCH  21  23
ENDBRANCH  19  21
ENDBRANCH   5  19
ENDBRANCH   1   9
BRANCH   3  24
ATOM     24  C   UNL     1      -2.827  -7.276   3.973  0.00  0.00    +0.140 C 
BRANCH  24  25
ATOM     25  C   UNL     1      -2.768  -8.694   4.481  0.00  0.00    -0.017 A 
ATOM     26  C   UNL     1      -3.932  -9.353   4.825  0.00  0.00    +0.006 A 
ATOM     27  C   UNL     1      -3.879 -10.654   5.291  0.00  0.00    +0.000 A 
ATOM     28  C   UNL     1      -2.662 -11.300   5.413  0.00  0.00    +0.001 A 
ATOM     29  C   UNL     1      -1.494 -10.646   5.071  0.00  0.00    +0.015 A 
ATOM     30  C   UNL     1      -1.544  -9.341   4.597  0.00  0.00    +0.017 A 
BRANCH  30  31
ATOM     31  S   UNL     1      -0.058  -8.506   4.152  0.00  0.00    -0.089 S 
BRANCH  31  32
ATOM     32  C   UNL     1       0.265  -7.450   5.526  0.00  0.00    +0.018 A 
ATOM     33  C   UNL     1      -0.622  -7.407   6.595  0.00  0.00    +0.015 A 
ATOM     34  C   UNL     1      -0.366  -6.578   7.669  0.00  0.00    +0.001 A 
ATOM     35  C   UNL     1       0.772  -5.792   7.682  0.00  0.00    +0.000 A 
ATOM     36  C   UNL     1       1.657  -5.832   6.620  0.00  0.00    +0.007 A 
ATOM     37  C   UNL     1       1.410  -6.663   5.545  0.00  0.00    -0.008 A 
BRANCH  37  38
ATOM     38  C   UNL     1       2.378  -6.711   4.391  0.00  0.00    +0.192 C 
BRANCH  38  39
ATOM     39  O   UNL     1       3.521  -5.908   4.694  0.00  0.00    -0.390 OA
ATOM     40  H   UNL     1       4.221  -5.953   4.029  0.00  0.00    +0.210 HD
ENDBRANCH  38  39
ENDBRANCH  37  38
ENDBRANCH  31  32
ENDBRANCH  30  31
ENDBRANCH  24  25
ENDBRANCH   3  24
TORSDOF 10
