REMARK  Name = ZINC36845129
REMARK  8 active torsions:
REMARK  status: ('A' for Active; 'I' for Inactive)
REMARK    1  A    between atoms: C_1  and  C_2
REMARK    2  A    between atoms: C_7  and  C_9
REMARK    3  A    between atoms: C_7  and  C_10
REMARK    4  A    between atoms: N_13  and  C_17
REMARK    5  A    between atoms: C_17  and  C_18
REMARK    6  A    between atoms: C_23  and  C_26
REMARK    7  A    between atoms: C_29  and  S_32
REMARK    8  A    between atoms: S_32  and  C_33
REMARK                            x       y       z     vdW  Elec       q    Type
REMARK                         _______ _______ _______ _____ _____    ______ ____
ROOT
ATOM      1  C   UNL     1      -1.572  -4.133  -3.310  0.00  0.00    +0.214 C 
ENDROOT
BRANCH   1  13
ATOM      2  C   UNL     1      -0.019   1.528   0.010  0.00  0.00    +0.007 C 
ATOM      3  C   UNL     1       0.002  -0.004   0.002  0.00  0.00    -0.011 C 
ATOM      4  C   UNL     1       0.727  -0.492  -1.254  0.00  0.00    +0.038 C 
ATOM      5  C   UNL     1       0.711  -2.014  -1.298  0.00  0.00    +0.113 C 
ATOM      6  C   UNL     1       1.263  -2.646  -0.036  0.00  0.00    +0.041 C 
ATOM      7  C   UNL     1       0.787  -2.030   1.268  0.00  0.00    -0.032 C 
ATOM      8  C   UNL     1       0.763  -0.507   1.227  0.00  0.00    +0.009 C 
ATOM      9  C   UNL     1       1.769  -2.455   2.382  0.00  0.00    +0.011 C 
ATOM     10  C   UNL     1      -0.596  -2.567   1.648  0.00  0.00    +0.011 C 
ATOM     11  C   UNL     1      -0.666  -2.529  -1.638  0.00  0.00    +0.247 C 
ATOM     12  O   UNL     1      -1.717  -2.280  -1.086  0.00  0.00    -0.273 OA
ATOM     13  N   UNL     1      -0.505  -3.321  -2.720  0.00  0.00    -0.215 N 
ATOM     14  C   UNL     1       0.748  -3.270  -3.183  0.00  0.00    +0.310 C 
ATOM     15  O   UNL     1       1.136  -3.886  -4.157  0.00  0.00    -0.252 OA
ATOM     16  N   UNL     1       1.531  -2.463  -2.446  0.00  0.00    -0.285 N 
ATOM     17  H   UNL     1       2.451  -2.215  -2.619  0.00  0.00    +0.151 HD
ENDBRANCH   1  13
BRANCH   1  18
ATOM     18  C   UNL     1      -2.295  -3.328  -4.359  0.00  0.00    +0.237 C 
ATOM     19  O   UNL     1      -1.953  -2.188  -4.591  0.00  0.00    -0.274 OA
ATOM     20  N   UNL     1      -3.321  -3.876  -5.040  0.00  0.00    -0.263 N 
ATOM     21  C   UNL     1      -3.987  -3.133  -6.007  0.00  0.00    +0.165 A 
ATOM     22  N   UNL     1      -5.008  -3.480  -6.770  0.00  0.00    -0.225 NA
ATOM     23  C   UNL     1      -5.526  -2.636  -7.651  0.00  0.00    +0.080 A 
ATOM     24  C   UNL     1      -4.994  -1.383  -7.771  0.00  0.00    +0.076 A 
ATOM     25  S   UNL     1      -3.696  -1.453  -6.543  0.00  0.00    -0.060 S 
ATOM     26  H   UNL     1      -3.595  -4.788  -4.855  0.00  0.00    +0.157 HD
BRANCH  23  27
ATOM     27  C   UNL     1      -6.671  -3.049  -8.497  0.00  0.00    +0.001 A 
ATOM     28  C   UNL     1      -7.209  -2.159  -9.426  0.00  0.00    +0.011 A 
ATOM     29  C   UNL     1      -8.274  -2.543 -10.213  0.00  0.00    +0.015 A 
ATOM     30  C   UNL     1      -8.812  -3.818 -10.079  0.00  0.00    +0.008 A 
ATOM     31  C   UNL     1      -8.278  -4.708  -9.153  0.00  0.00    +0.015 A 
ATOM     32  C   UNL     1      -7.209  -4.329  -8.369  0.00  0.00    +0.011 A 
BRANCH  30  33
ATOM     33  S   UNL     1     -10.174  -4.308 -11.085  0.00  0.00    -0.129 S 
ATOM     34  C   UNL     1     -10.516  -6.011 -10.562  0.00  0.00    +0.090 C 
ENDBRANCH  30  33
ENDBRANCH  23  27
ENDBRANCH   1  18
TORSDOF 4
