REMARK  Name = ZINC15709382
REMARK  9 active torsions:
REMARK  status: ('A' for Active; 'I' for Inactive)
REMARK    1  A    between atoms: C_1  and  C_2
REMARK    2  A    between atoms: C_2  and  C_3
REMARK    3  A    between atoms: C_2  and  C_4
REMARK    4  A    between atoms: C_2  and  C_5
REMARK    5  A    between atoms: C_8  and  C_11
REMARK    6  A    between atoms: C_12  and  C_13
REMARK    7  A    between atoms: C_24  and  N_32
REMARK    8  A    between atoms: N_32  and  S_33
REMARK    9  A    between atoms: S_33  and  C_36
REMARK                            x       y       z     vdW  Elec       q    Type
REMARK                         _______ _______ _______ _____ _____    ______ ____
ROOT
ATOM      1  C   UNL     1       1.574   5.997   0.568  0.00  0.00    -0.024 A 
ATOM      2  C   UNL     1       2.448   5.076   1.159  0.00  0.00    +0.010 A 
ATOM      3  C   UNL     1       2.277   3.732   0.942  0.00  0.00    +0.024 A 
ATOM      4  C   UNL     1       1.237   3.258   0.132  0.00  0.00    +0.046 A 
ATOM      5  C   UNL     1       0.376   4.168  -0.481  0.00  0.00    +0.059 A 
ATOM      6  C   UNL     1       0.545   5.542  -0.248  0.00  0.00    +0.022 A 
ATOM      7  C   UNL     1      -0.710   3.777  -1.389  0.00  0.00    +0.249 C 
ATOM      8  O   UNL     1      -0.918   4.468  -2.367  0.00  0.00    -0.270 OA
ATOM      9  N   UNL     1      -1.490   2.692  -1.198  0.00  0.00    -0.286 N 
ATOM     10  C   UNL     1      -2.436   2.335  -2.255  0.00  0.00    +0.110 C 
ATOM     11  C   UNL     1      -3.666   1.639  -1.678  0.00  0.00    +0.039 C 
ATOM     12  C   UNL     1      -3.195   0.467  -0.809  0.00  0.00    +0.080 C 
ATOM     13  C   UNL     1      -2.475   1.036   0.412  0.00  0.00    +0.052 C 
ATOM     14  C   UNL     1      -1.327   1.932   0.019  0.00  0.00    +0.164 C 
ATOM     15  C   UNL     1      -0.014   1.209   0.009  0.00  0.00    +0.238 C 
ATOM     16  O   UNL     1       0.002  -0.004   0.002  0.00  0.00    -0.273 OA
ATOM     17  N   UNL     1       1.135   1.884   0.001  0.00  0.00    -0.283 N 
ATOM     18  H   UNL     1       1.956   1.377  -0.102  0.00  0.00    +0.155 HD
ENDROOT
BRANCH   1  20
ATOM     19  C   UNL     1       2.740   7.877   1.597  0.00  0.00    +0.008 C 
ATOM     20  C   UNL     1       1.745   7.441   0.809  0.00  0.00    +0.008 C 
BRANCH  19  24
ATOM     21  C   UNL     1       3.232  12.034   2.291  0.00  0.00    -0.042 A 
ATOM     22  C   UNL     1       4.100  11.131   2.879  0.00  0.00    +0.005 A 
ATOM     23  C   UNL     1       3.946   9.778   2.658  0.00  0.00    +0.008 A 
ATOM     24  C   UNL     1       2.911   9.320   1.838  0.00  0.00    -0.025 A 
ATOM     25  C   UNL     1       2.042  10.239   1.243  0.00  0.00    +0.008 A 
ATOM     26  C   UNL     1       2.204  11.588   1.479  0.00  0.00    +0.005 A 
BRANCH  21  28
ATOM     27  C   UNL     1       4.787  13.950   2.049  0.00  0.00    +0.015 C 
ATOM     28  C   UNL     1       3.406  13.510   2.538  0.00  0.00    -0.013 C 
ATOM     29  C   UNL     1       2.326  14.285   1.780  0.00  0.00    +0.015 C 
ATOM     30  C   UNL     1       3.281  13.795   4.036  0.00  0.00    +0.015 C 
ENDBRANCH  21  28
ENDBRANCH  19  24
ENDBRANCH   1  20
BRANCH  12  31
ATOM     31  N   UNL     1      -4.350  -0.324  -0.377  0.00  0.00    -0.192 NA
ATOM     32  H   UNL     1      -4.849  -0.063   0.412  0.00  0.00    +0.148 HD
BRANCH  31  33
ATOM     33  S   UNL     1      -4.804  -1.664  -1.238  0.00  0.00    +0.027 S 
ATOM     34  O   UNL     1      -5.951  -2.158  -0.561  0.00  0.00    -0.158 OA
ATOM     35  O   UNL     1      -4.893  -1.217  -2.584  0.00  0.00    -0.158 OA
ATOM     36  C   UNL     1      -3.422  -2.825  -1.055  0.00  0.00    +0.214 C 
ENDBRANCH  31  33
ENDBRANCH  12  31
TORSDOF 5
