REMARK  Name = ZINC43668144
REMARK  7 active torsions:
REMARK  status: ('A' for Active; 'I' for Inactive)
REMARK    1  A    between atoms: C_1  and  C_2
REMARK    2  A    between atoms: C_4  and  N_20
REMARK    3  A    between atoms: N_5  and  C_7
REMARK    4  A    between atoms: C_10  and  C_19
REMARK    5  A    between atoms: C_14  and  C_16
REMARK    6  A    between atoms: C_16  and  C_17
REMARK    7  A    between atoms: C_16  and  C_18
REMARK                            x       y       z     vdW  Elec       q    Type
REMARK                         _______ _______ _______ _____ _____    ______ ____
ROOT
ATOM      1  C   UNL     1      -0.164   1.271  -0.623  0.00  0.00    +0.069 C 
ATOM      2  C   UNL     1      -0.092  -0.223  -0.436  0.00  0.00    +0.076 A 
ATOM      3  C   UNL     1      -0.044  -1.172  -1.461  0.00  0.00    +0.080 A 
ATOM      4  C   UNL     1       0.014  -2.405  -0.884  0.00  0.00    +0.129 A 
ATOM      5  N   UNL     1       0.003  -2.227   0.462  0.00  0.00    -0.246 N 
ATOM      6  N   UNL     1      -0.059  -0.850   0.711  0.00  0.00    -0.173 NA
ATOM      7 BR   UNL     1      -0.058  -0.810  -3.317  0.00  0.00    -0.045 Br
ENDROOT
BRANCH   5   8
ATOM      8  C   UNL     1       0.051  -3.285   1.473  0.00  0.00    +0.113 C 
ATOM      9  C   UNL     1       1.375  -3.201   2.236  0.00  0.00    +0.030 C 
ATOM     10  C   UNL     1       1.426  -4.307   3.292  0.00  0.00    -0.012 C 
ATOM     11  C   UNL     1       0.262  -4.133   4.270  0.00  0.00    +0.004 C 
ATOM     12  C   UNL     1      -1.062  -4.217   3.506  0.00  0.00    +0.006 C 
ATOM     13  C   UNL     1      -1.113  -3.111   2.450  0.00  0.00    +0.016 C 
ATOM     14  C   UNL     1       2.749  -4.223   4.056  0.00  0.00    +0.007 C 
BRANCH  13  15
ATOM     15  C   UNL     1      -2.436  -3.196   1.687  0.00  0.00    -0.012 C 
ATOM     16  C   UNL     1      -2.608  -4.606   1.119  0.00  0.00    +0.007 C 
ATOM     17  C   UNL     1      -3.594  -2.885   2.638  0.00  0.00    +0.007 C 
ENDBRANCH  13  15
ENDBRANCH   5   8
BRANCH   4  18
ATOM     18  N   UNL     1       0.074  -3.625  -1.554  0.00  0.00    -0.342 N 
ATOM     19  H   UNL     1       0.078  -3.647  -2.523  0.00  0.00    +0.144 HD
ATOM     20  H   UNL     1       0.113  -4.453  -1.050  0.00  0.00    +0.144 HD
ENDBRANCH   4  18
TORSDOF 3
