REMARK  Name = ZINC37427746
REMARK  10 active torsions:
REMARK  status: ('A' for Active; 'I' for Inactive)
REMARK    1  A    between atoms: C_1  and  C_2
REMARK    2  A    between atoms: C_2  and  N_3
REMARK    3  A    between atoms: N_3  and  C_4
REMARK    4  A    between atoms: C_4  and  C_5
REMARK    5  A    between atoms: C_15  and  C_17
REMARK    6  A    between atoms: C_24  and  C_26
REMARK    7  A    between atoms: C_26  and  C_27
REMARK    8  A    between atoms: C_27  and  C_28
REMARK    9  A    between atoms: C_27  and  C_29
REMARK   10  A    between atoms: C_27  and  C_30
REMARK                            x       y       z     vdW  Elec       q    Type
REMARK                         _______ _______ _______ _____ _____    ______ ____
ROOT
ATOM      1  C   UNL     1       2.416  -2.125  -0.773  0.00  0.00    +0.234 C 
ATOM      2  O   UNL     1       1.498  -2.882  -0.537  0.00  0.00    -0.274 OA
ATOM      3  N   UNL     1       3.688  -2.560  -0.682  0.00  0.00    -0.286 N 
ATOM      4  C   UNL     1       4.813  -1.700  -1.081  0.00  0.00    +0.130 C 
ATOM      5  C   UNL     1       5.678  -1.398   0.147  0.00  0.00    +0.140 C 
ATOM      6  N   UNL     1       5.920  -2.642   0.886  0.00  0.00    -0.347 N 
ATOM      7  C   UNL     1       6.900  -2.872   1.802  0.00  0.00    +0.086 A 
ATOM      8  C   UNL     1       6.769  -4.137   2.253  0.00  0.00    +0.019 A 
ATOM      9  C   UNL     1       5.666  -4.712   1.588  0.00  0.00    +0.025 A 
ATOM     10  C   UNL     1       5.170  -3.780   0.759  0.00  0.00    +0.044 A 
ATOM     11  C   UNL     1       3.994  -3.911  -0.175  0.00  0.00    +0.155 C 
ENDROOT
BRANCH  11  12
ATOM     12  C   UNL     1       2.806  -4.462   0.571  0.00  0.00    -0.003 A 
ATOM     13  C   UNL     1       2.255  -3.747   1.618  0.00  0.00    +0.007 A 
ATOM     14  C   UNL     1       1.165  -4.252   2.302  0.00  0.00    +0.000 A 
ATOM     15  C   UNL     1       0.625  -5.472   1.938  0.00  0.00    +0.001 A 
ATOM     16  C   UNL     1       1.175  -6.187   0.891  0.00  0.00    +0.020 A 
ATOM     17  C   UNL     1       2.263  -5.679   0.203  0.00  0.00    +0.046 A 
ATOM     18 CL   UNL     1       2.950  -6.574  -1.117  0.00  0.00    -0.083 Cl
ENDBRANCH  11  12
BRANCH   1  19
ATOM     19  C   UNL     1       2.134  -0.698  -1.167  0.00  0.00    +0.203 C 
BRANCH  19  20
ATOM     20  N   UNL     1       0.686  -0.476  -1.194  0.00  0.00    -0.293 N 
ATOM     21  C   UNL     1      -0.008  -0.689  -2.329  0.00  0.00    +0.216 C 
ATOM     22  O   UNL     1       0.567  -1.065  -3.329  0.00  0.00    -0.276 OA
BRANCH  20  24
ATOM     23  C   UNL     1      -0.031   1.508   0.044  0.00  0.00    +0.024 C 
ATOM     24  C   UNL     1      -0.007  -0.021   0.014  0.00  0.00    +0.105 C 
ENDBRANCH  20  24
BRANCH  21  25
ATOM     25  C   UNL     1      -1.497  -0.461  -2.356  0.00  0.00    +0.102 C 
BRANCH  25  26
ATOM     26  C   UNL     1      -2.035  -0.773  -3.754  0.00  0.00    -0.029 C 
ATOM     27  C   UNL     1      -1.737  -2.233  -4.100  0.00  0.00    +0.011 C 
ATOM     28  C   UNL     1      -3.547  -0.541  -3.782  0.00  0.00    +0.011 C 
ATOM     29  C   UNL     1      -1.360   0.142  -4.777  0.00  0.00    +0.011 C 
ENDBRANCH  25  26
ENDBRANCH  21  25
ENDBRANCH  19  20
ENDBRANCH   1  19
TORSDOF 6
