REMARK  Name = ZINC14473899
REMARK  4 active torsions:
REMARK  status: ('A' for Active; 'I' for Inactive)
REMARK    1  A    between atoms: C_1  and  C_2
REMARK    2  A    between atoms: C_3  and  N_25
REMARK    3  A    between atoms: C_9  and  C_18
REMARK    4  A    between atoms: C_23  and  O_24
REMARK                            x       y       z     vdW  Elec       q    Type
REMARK                         _______ _______ _______ _____ _____    ______ ____
ROOT
ATOM      1  C   UNL     1      -0.911   1.560   0.363  0.00  0.00    +0.048 C 
ATOM      2  C   UNL     1       0.547   1.907   0.211  0.00  0.00    +0.001 A 
ATOM      3  C   UNL     1       1.481   0.901   0.081  0.00  0.00    +0.131 A 
ATOM      4  C   UNL     1       2.820   1.221  -0.052  0.00  0.00    +0.033 A 
ATOM      5  C   UNL     1       3.216   2.543  -0.067  0.00  0.00    +0.008 A 
ATOM      6  C   UNL     1       2.283   3.563   0.055  0.00  0.00    -0.019 A 
ATOM      7  C   UNL     1       0.943   3.243   0.197  0.00  0.00    +0.037 A 
ATOM      8  N   UNL     1      -0.043   4.220   0.331  0.00  0.00    -0.336 N 
ATOM      9  C   UNL     1       0.349   5.488  -0.286  0.00  0.00    +0.108 C 
ATOM     10  C   UNL     1       1.652   5.981   0.347  0.00  0.00    +0.029 C 
ATOM     11  C   UNL     1       2.779   4.978   0.022  0.00  0.00    +0.049 C 
ATOM     12  C   UNL     1       3.217   5.355  -1.375  0.00  0.00    -0.023 C 
ATOM     13  C   UNL     1       2.863   6.585  -1.650  0.00  0.00    -0.030 C 
ATOM     14  C   UNL     1       2.144   7.209  -0.471  0.00  0.00    +0.033 C 
ATOM     15  H   UNL     1      -0.925   3.896  -0.037  0.00  0.00    +0.147 HD
ENDROOT
BRANCH   9  16
ATOM     16  C   UNL     1       0.554   5.284  -1.765  0.00  0.00    +0.014 A 
ATOM     17  C   UNL     1       1.038   4.079  -2.237  0.00  0.00    +0.009 A 
ATOM     18  C   UNL     1       1.222   3.890  -3.594  0.00  0.00    +0.001 A 
ATOM     19  C   UNL     1       0.933   4.910  -4.482  0.00  0.00    +0.004 A 
ATOM     20  C   UNL     1       0.454   6.119  -4.015  0.00  0.00    +0.046 A 
ATOM     21  C   UNL     1       0.263   6.309  -2.654  0.00  0.00    +0.122 A 
BRANCH  21  22
ATOM     22  O   UNL     1      -0.207   7.497  -2.192  0.00  0.00    -0.506 OA
ATOM     23  H   UNL     1       0.475   8.174  -2.083  0.00  0.00    +0.292 HD
ENDBRANCH  21  22
ENDBRANCH   9  16
BRANCH   3  24
ATOM     24  N   UNL     1       1.054  -0.516   0.089  0.00  0.00    +0.057 N 
ATOM     25  O   UNL     1       1.870  -1.400  -0.097  0.00  0.00    -0.126 OA
ATOM     26  O   UNL     1      -0.116  -0.798   0.283  0.00  0.00    -0.126 OA
ENDBRANCH   3  24
TORSDOF 3
