REMARK  Name = ZINC16855132
REMARK  9 active torsions:
REMARK  status: ('A' for Active; 'I' for Inactive)
REMARK    1  A    between atoms: C_1  and  C_2
REMARK    2  A    between atoms: C_3  and  C_14
REMARK    3  A    between atoms: C_8  and  S_10
REMARK    4  A    between atoms: S_10  and  C_11
REMARK    5  A    between atoms: C_11  and  C_12
REMARK    6  A    between atoms: C_14  and  C_15
REMARK    7  A    between atoms: C_15  and  S_16
REMARK    8  A    between atoms: S_16  and  C_17
REMARK    9  A    between atoms: C_17  and  C_18
REMARK                            x       y       z     vdW  Elec       q    Type
REMARK                         _______ _______ _______ _____ _____    ______ ____
ROOT
ATOM      1  C   UNL     1      -4.111   7.519  -2.840  0.00  0.00    +0.053 C 
ENDROOT
BRANCH   1   4
ATOM      2  C   UNL     1      -4.171  10.400  -2.900  0.00  0.00    +0.066 C 
ATOM      3  C   UNL     1      -5.447   9.622  -2.706  0.00  0.00    +0.049 A 
ATOM      4  C   UNL     1      -5.415   8.257  -2.678  0.00  0.00    +0.039 A 
ATOM      5  C   UNL     1      -6.618   7.552  -2.502  0.00  0.00    +0.256 A 
ATOM      6  O   UNL     1      -6.626   6.332  -2.477  0.00  0.00    -0.267 OA
ATOM      7  N   UNL     1      -7.764   8.251  -2.357  0.00  0.00    -0.302 N 
ATOM      8  H   UNL     1      -8.606   7.785  -2.230  0.00  0.00    +0.171 HD
ATOM      9  C   UNL     1      -7.736   9.612  -2.393  0.00  0.00    +0.169 A 
ATOM     10  N   UNL     1      -6.602  10.265  -2.564  0.00  0.00    -0.228 NA
BRANCH   9  11
ATOM     11  S   UNL     1      -9.237  10.515  -2.210  0.00  0.00    -0.084 S 
BRANCH  11  12
ATOM     12  C   UNL     1      -8.604  12.206  -2.337  0.00  0.00    +0.104 C 
BRANCH  12  13
ATOM     13  C   UNL     1      -9.746  13.181  -2.205  0.00  0.00    -0.023 C 
ATOM     14  C   UNL     1      -9.797  13.995  -1.179  0.00  0.00    +0.005 C 
ENDBRANCH  12  13
ENDBRANCH  11  12
ENDBRANCH   9  11
ENDBRANCH   1   4
BRANCH   1  15
ATOM     15  C   UNL     1      -3.535   7.193  -1.460  0.00  0.00    +0.074 C 
BRANCH  15  16
ATOM     16  S   UNL     1      -1.966   6.304  -1.654  0.00  0.00    -0.156 S 
BRANCH  16  17
ATOM     17  C   UNL     1      -1.422   5.996   0.049  0.00  0.00    +0.104 C 
BRANCH  17  18
ATOM     18  C   UNL     1      -0.111   5.253   0.032  0.00  0.00    -0.030 A 
ATOM     19  C   UNL     1       1.064   5.940   0.023  0.00  0.00    +0.005 A 
ATOM     20  C   UNL     1       2.286   5.271   0.008  0.00  0.00    +0.001 A 
ATOM     21  C   UNL     1       2.340   3.910   0.000  0.00  0.00    +0.008 A 
ATOM     22  C   UNL     1       1.147   3.167   0.008  0.00  0.00    -0.018 A 
ATOM     23  C   UNL     1      -0.096   3.849   0.024  0.00  0.00    -0.014 A 
ATOM     24  C   UNL     1      -1.289   3.105   0.031  0.00  0.00    +0.009 A 
ATOM     25  C   UNL     1      -1.235   1.746   0.018  0.00  0.00    +0.001 A 
ATOM     26  C   UNL     1      -0.013   1.076   0.008  0.00  0.00    +0.001 A 
ATOM     27  C   UNL     1       1.163   1.762   0.000  0.00  0.00    +0.008 A 
ENDBRANCH  17  18
ENDBRANCH  16  17
ENDBRANCH  15  16
ENDBRANCH   1  15
TORSDOF 8
