REMARK  Name = ZINC08921735
REMARK  6 active torsions:
REMARK  status: ('A' for Active; 'I' for Inactive)
REMARK    1  A    between atoms: C_1  and  C_2
REMARK    2  A    between atoms: C_2  and  O_3
REMARK    3  A    between atoms: O_3  and  C_4
REMARK    4  A    between atoms: C_14  and  O_31
REMARK    5  A    between atoms: C_16  and  C_19
REMARK    6  A    between atoms: C_22  and  C_24
REMARK                            x       y       z     vdW  Elec       q    Type
REMARK                         _______ _______ _______ _____ _____    ______ ____
ROOT
ATOM      1  C   UNL     1       6.025  -5.745   7.854  0.00  0.00    +0.403 C 
ATOM      2  O   UNL     1       7.065  -5.626   8.471  0.00  0.00    -0.226 OA
ATOM      3  N   UNL     1       5.748  -4.910   6.833  0.00  0.00    -0.262 N 
ATOM      4  C   UNL     1       6.685  -3.846   6.441  0.00  0.00    +0.116 C 
ATOM      5  C   UNL     1       7.204  -4.114   5.028  0.00  0.00    +0.056 C 
ATOM      6  C   UNL     1       6.028  -4.436   4.113  0.00  0.00    -0.020 A 
ATOM      7  C   UNL     1       4.841  -4.844   4.618  0.00  0.00    +0.013 A 
ATOM      8  S   UNL     1       3.805  -5.105   3.203  0.00  0.00    -0.076 S 
ATOM      9  C   UNL     1       4.918  -4.678   1.977  0.00  0.00    +0.080 A 
ATOM     10  C   UNL     1       6.090  -4.339   2.665  0.00  0.00    +0.068 A 
ATOM     11  C   UNL     1       7.260  -3.923   1.849  0.00  0.00    +0.220 C 
ATOM     12  N   UNL     1       7.058  -3.669   0.585  0.00  0.00    -0.220 NA
ATOM     13  C   UNL     1       5.757  -3.700  -0.071  0.00  0.00    +0.260 C 
ATOM     14  N   UNL     1       4.829  -4.625   0.608  0.00  0.00    -0.311 N 
ATOM     15  C   UNL     1       4.493  -5.028   6.064  0.00  0.00    +0.153 C 
ATOM     16  H   UNL     1       4.192  -5.165   0.116  0.00  0.00    +0.149 HD
ENDROOT
BRANCH  13  17
ATOM     17  C   UNL     1       5.166  -2.314  -0.058  0.00  0.00    +0.148 A 
ATOM     18  C   UNL     1       5.865  -1.163  -0.059  0.00  0.00    +0.049 A 
ATOM     19  C   UNL     1       4.927  -0.110  -0.045  0.00  0.00    +0.050 A 
ATOM     20  C   UNL     1       3.695  -0.684  -0.036  0.00  0.00    +0.135 A 
ATOM     21  O   UNL     1       3.855  -2.022  -0.039  0.00  0.00    -0.456 OA
BRANCH  20  22
ATOM     22  C   UNL     1       2.404   0.035  -0.021  0.00  0.00    +0.017 A 
ATOM     23  C   UNL     1       1.204  -0.680  -0.013  0.00  0.00    +0.014 A 
ATOM     24  C   UNL     1       0.002  -0.004   0.002  0.00  0.00    +0.039 A 
ATOM     25  C   UNL     1      -0.017   1.382   0.010  0.00  0.00    +0.123 A 
ATOM     26  C   UNL     1       1.171   2.096   0.002  0.00  0.00    +0.039 A 
ATOM     27  C   UNL     1       2.379   1.430  -0.013  0.00  0.00    +0.014 A 
ATOM     28  F   UNL     1      -1.197   2.039   0.019  0.00  0.00    -0.205 F 
ENDBRANCH  20  22
ENDBRANCH  13  17
BRANCH  11  29
ATOM     29  O   UNL     1       8.492  -3.811   2.397  0.00  0.00    -0.492 OA
ATOM     30  H   UNL     1       9.177  -3.534   1.773  0.00  0.00    +0.294 HD
ENDBRANCH  11  29
BRANCH   1  31
ATOM     31  O   UNL     1       5.148  -6.710   8.191  0.00  0.00    -0.451 OA
BRANCH  31  33
ATOM     32  C   UNL     1       4.402  -8.599   9.534  0.00  0.00    +0.048 C 
ATOM     33  C   UNL     1       5.512  -7.572   9.301  0.00  0.00    +0.230 C 
ENDBRANCH  31  33
ENDBRANCH   1  31
TORSDOF 5
