REMARK  Name = ZINC36028927
REMARK  9 active torsions:
REMARK  status: ('A' for Active; 'I' for Inactive)
REMARK    1  A    between atoms: C_1  and  C_2
REMARK    2  A    between atoms: C_2  and  C_3
REMARK    3  A    between atoms: C_3  and  C_5
REMARK    4  A    between atoms: C_3  and  C_6
REMARK    5  A    between atoms: N_10  and  C_24
REMARK    6  A    between atoms: N_20  and  C_21
REMARK    7  A    between atoms: C_21  and  C_22
REMARK    8  A    between atoms: C_21  and  C_23
REMARK    9  A    between atoms: C_24  and  C_25
REMARK                            x       y       z     vdW  Elec       q    Type
REMARK                         _______ _______ _______ _____ _____    ______ ____
ROOT
ATOM      1  C   UNL     1      -2.556  -2.529  -0.360  0.00  0.00    +0.022 C 
ATOM      2  C   UNL     1      -1.544  -3.027   0.648  0.00  0.00    +0.201 C 
ATOM      3  O   UNL     1      -0.369  -2.729   0.680  0.00  0.00    -0.277 OA
ATOM      4  N   UNL     1      -2.170  -3.859   1.507  0.00  0.00    -0.309 N 
ATOM      5  C   UNL     1      -3.583  -3.971   1.138  0.00  0.00    +0.006 C 
ATOM      6  N   UNL     1      -3.876  -2.827   0.246  0.00  0.00    +0.401 N 
ATOM      7  C   UNL     1      -3.832  -5.281   0.392  0.00  0.00    +0.025 C 
ATOM      8  C   UNL     1      -3.488  -6.460   1.309  0.00  0.00    +0.109 C 
ATOM      9  N   UNL     1      -4.239  -6.317   2.564  0.00  0.00    -0.286 N 
ATOM     10  C   UNL     1      -4.124  -5.061   3.317  0.00  0.00    +0.109 C 
ATOM     11  C   UNL     1      -4.463  -3.894   2.384  0.00  0.00    +0.025 C 
ATOM     12  C   UNL     1      -5.017  -7.320   3.016  0.00  0.00    +0.302 C 
ATOM     13  O   UNL     1      -5.708  -7.156   4.002  0.00  0.00    -0.253 OA
ATOM     14  N   UNL     1      -5.030  -8.505   2.373  0.00  0.00    -0.297 N 
ATOM     15  H   UNL     1      -4.211  -2.038   0.778  0.00  0.00    -0.082 HD
ATOM     16  H   UNL     1      -4.423  -8.662   1.633  0.00  0.00    +0.150 HD
ATOM     17  H   UNL     1      -4.544  -3.089  -0.464  0.00  0.00    -0.082 HD
ENDROOT
BRANCH  14  18
ATOM     18  C   UNL     1      -5.959  -9.557   2.795  0.00  0.00    +0.068 C 
ATOM     19  C   UNL     1      -7.314  -9.341   2.117  0.00  0.00    +0.027 C 
ATOM     20  C   UNL     1      -5.399 -10.923   2.393  0.00  0.00    +0.027 C 
ENDBRANCH  14  18
BRANCH   1  21
ATOM     21  C   UNL     1      -2.397  -1.023  -0.576  0.00  0.00    -0.020 C 
ATOM     22  C   UNL     1      -2.416  -0.309   0.777  0.00  0.00    +0.006 C 
BRANCH  21  24
ATOM     23  C   UNL     1      -0.963   0.745  -1.607  0.00  0.00    +0.004 C 
ATOM     24  C   UNL     1      -1.067  -0.747  -1.280  0.00  0.00    -0.001 C 
ENDBRANCH  21  24
ENDBRANCH   1  21
BRANCH   4  25
ATOM     25  C   UNL     1      -1.533  -4.545   2.635  0.00  0.00    +0.141 C 
BRANCH  25  26
ATOM     26  C   UNL     1      -1.354  -3.576   3.775  0.00  0.00    -0.026 A 
ATOM     27  C   UNL     1      -0.088  -3.137   4.115  0.00  0.00    +0.009 A 
ATOM     28  C   UNL     1       0.081  -2.249   5.160  0.00  0.00    +0.050 A 
ATOM     29  C   UNL     1      -1.019  -1.796   5.871  0.00  0.00    +0.166 A 
ATOM     30  C   UNL     1      -2.295  -2.239   5.529  0.00  0.00    +0.167 A 
ATOM     31  C   UNL     1      -2.457  -3.125   4.476  0.00  0.00    +0.054 A 
ATOM     32  O   UNL     1      -3.199  -1.655   6.368  0.00  0.00    -0.453 OA
ATOM     33  C   UNL     1      -2.429  -1.171   7.485  0.00  0.00    +0.466 C 
ATOM     34  O   UNL     1      -1.124  -0.935   6.925  0.00  0.00    -0.453 OA
ENDBRANCH  25  26
ENDBRANCH   4  25
TORSDOF 5
