REMARK  Name = ZINC36493799
REMARK  13 active torsions:
REMARK  status: ('A' for Active; 'I' for Inactive)
REMARK    1  A    between atoms: C_1  and  C_2
REMARK    2  A    between atoms: C_2  and  C_3
REMARK    3  A    between atoms: C_2  and  C_4
REMARK    4  A    between atoms: C_2  and  N_5
REMARK    5  A    between atoms: C_6  and  C_8
REMARK    6  A    between atoms: C_8  and  C_10
REMARK    7  A    between atoms: C_8  and  N_17
REMARK    8  A    between atoms: C_13  and  O_16
REMARK    9  A    between atoms: N_17  and  C_18
REMARK   10  A    between atoms: C_18  and  C_19
REMARK   11  A    between atoms: C_24  and  C_26
REMARK   12  A    between atoms: C_26  and  C_34
REMARK   13  A    between atoms: C_27  and  C_28
REMARK                            x       y       z     vdW  Elec       q    Type
REMARK                         _______ _______ _______ _____ _____    ______ ____
ROOT
ATOM      1  N   UNL     1       4.448   0.079  -3.156  0.00  0.00    -0.275 N 
ATOM      2  C   UNL     1       3.755   1.129  -3.639  0.00  0.00    +0.248 C 
ATOM      3  O   UNL     1       3.899   2.231  -3.144  0.00  0.00    -0.270 OA
ENDROOT
BRANCH   2   4
ATOM      4  C   UNL     1       2.825   0.943  -4.764  0.00  0.00    +0.045 C 
ATOM      5  C   UNL     1       2.986   1.663  -5.906  0.00  0.00    +0.021 C 
BRANCH   5   6
ATOM      6  C   UNL     1       1.973   1.593  -6.967  0.00  0.00    -0.024 A 
ATOM      7  C   UNL     1       0.622   1.430  -6.641  0.00  0.00    +0.008 A 
ATOM      8  C   UNL     1      -0.323   1.366  -7.643  0.00  0.00    +0.001 A 
ATOM      9  C   UNL     1       0.062   1.463  -8.969  0.00  0.00    +0.000 A 
ATOM     10  C   UNL     1       1.396   1.624  -9.301  0.00  0.00    +0.001 A 
ATOM     11  C   UNL     1       2.353   1.695  -8.311  0.00  0.00    +0.008 A 
ENDBRANCH   5   6
BRANCH   4  12
ATOM     12  C   UNL     1       1.713  -0.029  -4.652  0.00  0.00    -0.013 A 
ATOM     13  C   UNL     1       0.768   0.102  -3.635  0.00  0.00    +0.008 A 
ATOM     14  C   UNL     1      -0.266  -0.807  -3.536  0.00  0.00    +0.001 A 
ATOM     15  C   UNL     1      -0.365  -1.847  -4.443  0.00  0.00    +0.000 A 
ATOM     16  C   UNL     1       0.570  -1.983  -5.454  0.00  0.00    +0.001 A 
ATOM     17  C   UNL     1       1.605  -1.077  -5.567  0.00  0.00    +0.008 A 
ENDBRANCH   4  12
ENDBRANCH   2   4
BRANCH   1  18
ATOM     18  C   UNL     1       4.189  -1.268  -3.670  0.00  0.00    +0.193 C 
BRANCH  18  19
ATOM     19  C   UNL     1       5.392  -1.754  -4.436  0.00  0.00    -0.018 A 
ATOM     20  C   UNL     1       6.658  -1.609  -3.897  0.00  0.00    +0.009 A 
ATOM     21  C   UNL     1       7.763  -2.053  -4.597  0.00  0.00    +0.046 A 
ATOM     22  C   UNL     1       7.602  -2.645  -5.842  0.00  0.00    +0.117 A 
ATOM     23  C   UNL     1       6.331  -2.789  -6.380  0.00  0.00    +0.046 A 
ATOM     24  C   UNL     1       5.229  -2.348  -5.673  0.00  0.00    +0.009 A 
BRANCH  22  25
ATOM     25  O   UNL     1       8.687  -3.082  -6.533  0.00  0.00    -0.507 OA
ATOM     26  H   UNL     1       8.928  -4.000  -6.347  0.00  0.00    +0.292 HD
ENDBRANCH  22  25
ENDBRANCH  18  19
BRANCH  18  28
ATOM     27  N   UNL     1       3.650  -3.502  -2.753  0.00  0.00    -0.309 N 
ATOM     28  C   UNL     1       3.916  -2.201  -2.518  0.00  0.00    +0.239 C 
ATOM     29  O   UNL     1       3.936  -1.782  -1.380  0.00  0.00    -0.273 OA
ATOM     30  H   UNL     1       3.634  -3.837  -3.663  0.00  0.00    +0.149 HD
BRANCH  27  32
ATOM     31  C   UNL     1       2.163  -3.916  -0.856  0.00  0.00    +0.031 C 
ATOM     32  C   UNL     1       3.385  -4.409  -1.634  0.00  0.00    +0.026 C 
ATOM     33  C   UNL     1       4.601  -4.442  -0.705  0.00  0.00    +0.031 C 
ATOM     34  C   UNL     1       3.114  -5.816  -2.170  0.00  0.00    +0.031 C 
ENDBRANCH  27  32
ENDBRANCH  18  28
ENDBRANCH   1  18
BRANCH   1  35
ATOM     35  C   UNL     1       5.460   0.284  -2.117  0.00  0.00    +0.183 C 
BRANCH  35  36
ATOM     36  C   UNL     1       6.649   0.999  -2.707  0.00  0.00    +0.122 A 
ATOM     37  C   UNL     1       6.866   2.325  -2.673  0.00  0.00    +0.046 A 
ATOM     38  C   UNL     1       8.090   2.558  -3.341  0.00  0.00    +0.041 A 
ATOM     39  C   UNL     1       8.547   1.359  -3.744  0.00  0.00    +0.195 A 
ATOM     40  O   UNL     1       7.673   0.417  -3.352  0.00  0.00    -0.466 OA
ENDBRANCH  35  36
ENDBRANCH   1  35
TORSDOF 10
