REMARK  Name = ZINC58085644
REMARK  11 active torsions:
REMARK  status: ('A' for Active; 'I' for Inactive)
REMARK    1  A    between atoms: C_1  and  C_2
REMARK    2  A    between atoms: C_2  and  N_3
REMARK    3  A    between atoms: N_3  and  S_4
REMARK    4  A    between atoms: S_4  and  C_7
REMARK    5  A    between atoms: C_10  and  C_31
REMARK    6  A    between atoms: C_11  and  C_13
REMARK    7  A    between atoms: N_15  and  C_16
REMARK    8  A    between atoms: C_16  and  C_17
REMARK    9  A    between atoms: C_17  and  C_19
REMARK   10  A    between atoms: C_17  and  N_26
REMARK   11  A    between atoms: C_22  and  C_25
REMARK                            x       y       z     vdW  Elec       q    Type
REMARK                         _______ _______ _______ _____ _____    ______ ____
ROOT
ATOM      1  C   UNL     1      -2.904  -3.732  -3.628  0.00  0.00    +0.244 C 
ATOM      2  O   UNL     1      -3.931  -4.380  -3.697  0.00  0.00    -0.270 OA
ATOM      3  N   UNL     1      -2.376  -3.186  -4.741  0.00  0.00    -0.313 N 
ATOM      4  H   UNL     1      -1.556  -2.670  -4.686  0.00  0.00    +0.149 HD
ENDROOT
BRANCH   1   9
ATOM      5  C   UNL     1      -0.510  -2.527  -0.997  0.00  0.00    +0.106 A 
ATOM      6  C   UNL     1      -0.982  -3.192   0.121  0.00  0.00    +0.029 A 
ATOM      7  C   UNL     1      -2.078  -4.031   0.024  0.00  0.00    +0.006 A 
ATOM      8  C   UNL     1      -2.707  -4.211  -1.191  0.00  0.00    -0.038 A 
ATOM      9  C   UNL     1      -2.236  -3.544  -2.323  0.00  0.00    +0.041 A 
ATOM     10  C   UNL     1      -1.133  -2.694  -2.217  0.00  0.00    +0.041 A 
ATOM     11  C   UNL     1      -3.900  -5.126  -1.296  0.00  0.00    +0.044 C 
BRANCH   5  12
ATOM     12  S   UNL     1       0.886  -1.461  -0.862  0.00  0.00    +0.058 S 
ATOM     13  O   UNL     1       1.461  -1.378  -2.159  0.00  0.00    -0.153 OA
ATOM     14  O   UNL     1       1.623  -1.898   0.272  0.00  0.00    -0.153 OA
BRANCH  12  15
ATOM     15  N   UNL     1       0.314   0.051  -0.500  0.00  0.00    -0.190 NA
ATOM     16  H   UNL     1       0.429   0.777  -1.132  0.00  0.00    +0.148 HD
BRANCH  15  18
ATOM     17  C   UNL     1      -0.458   1.796   1.029  0.00  0.00    +0.022 C 
ATOM     18  C   UNL     1      -0.366   0.290   0.775  0.00  0.00    +0.102 C 
ENDBRANCH  15  18
ENDBRANCH  12  15
ENDBRANCH   5  12
ENDBRANCH   1   9
BRANCH   3  19
ATOM     19  C   UNL     1      -3.038  -3.373  -6.035  0.00  0.00    +0.094 C 
BRANCH  19  20
ATOM     20  C   UNL     1      -2.173  -2.770  -7.143  0.00  0.00    -0.020 C 
BRANCH  20  21
ATOM     21  C   UNL     1      -0.889  -3.551  -7.258  0.00  0.00    -0.059 A 
ATOM     22  C   UNL     1      -0.868  -4.749  -7.948  0.00  0.00    +0.002 A 
ATOM     23  C   UNL     1       0.310  -5.465  -8.054  0.00  0.00    +0.003 A 
ATOM     24  C   UNL     1       1.466  -4.983  -7.471  0.00  0.00    -0.050 A 
ATOM     25  C   UNL     1       1.446  -3.785  -6.782  0.00  0.00    +0.003 A 
ATOM     26  C   UNL     1       0.269  -3.067  -6.679  0.00  0.00    +0.002 A 
ATOM     27  C   UNL     1       2.750  -5.764  -7.586  0.00  0.00    +0.044 C 
ENDBRANCH  20  21
BRANCH  20  28
ATOM     28  N   UNL     1      -2.899  -2.830  -8.418  0.00  0.00    +0.385 N 
ATOM     29  C   UNL     1      -4.094  -1.949  -8.369  0.00  0.00    -0.078 C 
ATOM     30  C   UNL     1      -4.397  -1.680  -9.865  0.00  0.00    -0.020 C 
ATOM     31  C   UNL     1      -2.987  -1.564 -10.488  0.00  0.00    -0.020 C 
ATOM     32  C   UNL     1      -2.054  -2.303  -9.511  0.00  0.00    -0.078 C 
ATOM     33  H   UNL     1      -3.174  -3.780  -8.618  0.00  0.00    -0.081 HD
ENDBRANCH  20  28
ENDBRANCH  19  20
ENDBRANCH   3  19
TORSDOF 8
