REMARK  Name = ZINC54643543
REMARK  4 active torsions:
REMARK  status: ('A' for Active; 'I' for Inactive)
REMARK    1  A    between atoms: C_4  and  C_7
REMARK    2  A    between atoms: C_7  and  S_8
REMARK    3  A    between atoms: S_8  and  C_9
REMARK    4  A    between atoms: C_14  and  C_24
REMARK                            x       y       z     vdW  Elec       q    Type
REMARK                         _______ _______ _______ _____ _____    ______ ____
ROOT
ATOM      1  C   UNL     1       5.786  -1.866   1.477  0.00  0.00    +0.211 A 
ATOM      2  N   UNL     1       6.362  -2.183   0.308  0.00  0.00    -0.187 NA
ATOM      3  C   UNL     1       7.482  -2.814   0.532  0.00  0.00    +0.219 A 
ATOM      4  N   UNL     1       7.652  -2.911   1.873  0.00  0.00    -0.220 N 
ATOM      5  N   UNL     1       6.549  -2.292   2.461  0.00  0.00    -0.141 NA
ATOM      6  C   UNL     1       8.807  -3.549   2.492  0.00  0.00    +0.177 C 
ATOM      7  C   UNL     1       9.567  -4.355   1.462  0.00  0.00    +0.041 C 
ATOM      8  C   UNL     1       9.344  -4.220   0.137  0.00  0.00    +0.020 C 
ATOM      9  N   UNL     1       8.409  -3.339  -0.353  0.00  0.00    -0.287 N 
ATOM     10  C   UNL     1      10.113  -5.044  -0.868  0.00  0.00    +0.052 C 
ATOM     11  C   UNL     1      11.510  -5.348  -0.323  0.00  0.00    +0.014 C 
ATOM     12  C   UNL     1      11.357  -6.097   1.005  0.00  0.00    +0.080 C 
ATOM     13  C   UNL     1      10.529  -5.262   1.942  0.00  0.00    +0.163 C 
ATOM     14  O   UNL     1      10.694  -5.374   3.141  0.00  0.00    -0.292 OA
ATOM     15  H   UNL     1       8.400  -3.092  -1.291  0.00  0.00    +0.155 HD
ENDROOT
BRANCH   6  16
ATOM     16  C   UNL     1       9.715  -2.492   3.065  0.00  0.00    +0.007 A 
ATOM     17  C   UNL     1      10.312  -1.499   2.387  0.00  0.00    +0.089 A 
ATOM     18  N   UNL     1      11.061  -0.735   3.241  0.00  0.00    -0.360 N 
ATOM     19  H   UNL     1      11.584   0.040   2.982  0.00  0.00    +0.165 HD
ATOM     20  C   UNL     1      10.960  -1.230   4.522  0.00  0.00    +0.047 A 
ATOM     21  C   UNL     1      10.108  -2.348   4.469  0.00  0.00    +0.005 A 
ATOM     22  C   UNL     1       9.816  -3.057   5.636  0.00  0.00    +0.010 A 
ATOM     23  C   UNL     1      10.357  -2.658   6.825  0.00  0.00    +0.001 A 
ATOM     24  C   UNL     1      11.195  -1.553   6.883  0.00  0.00    +0.002 A 
ATOM     25  C   UNL     1      11.504  -0.845   5.743  0.00  0.00    +0.026 A 
ENDBRANCH   6  16
BRANCH   1  26
ATOM     26  S   UNL     1       4.257  -1.011   1.666  0.00  0.00    -0.080 S 
BRANCH  26  27
ATOM     27  C   UNL     1       3.711  -0.707  -0.038  0.00  0.00    +0.112 C 
BRANCH  27  31
ATOM     28  C   UNL     1      -0.017   1.378   0.010  0.00  0.00    +0.000 A 
ATOM     29  C   UNL     1       1.171   2.086   0.002  0.00  0.00    +0.000 A 
ATOM     30  C   UNL     1       2.377   1.411  -0.013  0.00  0.00    +0.004 A 
ATOM     31  C   UNL     1       2.396   0.029  -0.020  0.00  0.00    -0.037 A 
ATOM     32  C   UNL     1       1.208  -0.679  -0.012  0.00  0.00    +0.004 A 
ATOM     33  C   UNL     1       0.002  -0.004   0.002  0.00  0.00    +0.000 A 
ENDBRANCH  27  31
ENDBRANCH  26  27
ENDBRANCH   1  26
TORSDOF 4
