REMARK  Name = ZINC12296351
REMARK  6 active torsions:
REMARK  status: ('A' for Active; 'I' for Inactive)
REMARK    1  A    between atoms: C_7  and  C_11
REMARK    2  A    between atoms: C_11  and  C_12
REMARK    3  A    between atoms: C_12  and  N_13
REMARK    4  A    between atoms: C_14  and  C_16
REMARK    5  A    between atoms: C_18  and  C_21
REMARK    6  A    between atoms: C_21  and  C_22
REMARK                            x       y       z     vdW  Elec       q    Type
REMARK                         _______ _______ _______ _____ _____    ______ ____
ROOT
ATOM      1  N   UNL     1       2.919  -3.513  -5.727  0.00  0.00    -0.307 N 
ATOM      2  C   UNL     1       3.448  -2.887  -4.657  0.00  0.00    +0.302 C 
ATOM      3  O   UNL     1       4.572  -2.429  -4.717  0.00  0.00    -0.265 OA
ATOM      4  H   UNL     1       2.022  -3.879  -5.680  0.00  0.00    +0.149 HD
ENDROOT
BRANCH   2   5
ATOM      5  C   UNL     1       2.660  -2.758  -3.409  0.00  0.00    +0.313 A 
ATOM      6  N   UNL     1       3.046  -2.175  -2.292  0.00  0.00    -0.188 NA
ATOM      7  C   UNL     1       2.014  -2.300  -1.444  0.00  0.00    +0.177 A 
ATOM      8  N   UNL     1       1.069  -2.943  -2.066  0.00  0.00    -0.060 NA
ATOM      9  O   UNL     1       1.415  -3.212  -3.197  0.00  0.00    -0.328 OA
BRANCH   7  10
ATOM     10  C   UNL     1       1.961  -1.794  -0.025  0.00  0.00    +0.117 C 
BRANCH  10  11
ATOM     11  C   UNL     1       1.415  -0.390  -0.013  0.00  0.00    -0.015 A 
ATOM     12  C   UNL     1       2.132   0.746  -0.014  0.00  0.00    +0.087 A 
ATOM     13  N   UNL     1       1.293   1.827  -0.001  0.00  0.00    -0.360 N 
ATOM     14  H   UNL     1       1.579   2.754   0.002  0.00  0.00    +0.165 HD
ATOM     15  C   UNL     1      -0.017   1.403   0.010  0.00  0.00    +0.047 A 
ATOM     16  C   UNL     1       0.002  -0.004   0.002  0.00  0.00    +0.003 A 
ATOM     17  C   UNL     1      -1.198  -0.717   0.010  0.00  0.00    +0.010 A 
ATOM     18  C   UNL     1      -2.387  -0.043   0.025  0.00  0.00    +0.001 A 
ATOM     19  C   UNL     1      -2.411   1.344   0.033  0.00  0.00    +0.002 A 
ATOM     20  C   UNL     1      -1.238   2.068   0.030  0.00  0.00    +0.026 A 
ENDBRANCH  10  11
ENDBRANCH   7  10
ENDBRANCH   2   5
BRANCH   1  21
ATOM     21  C   UNL     1       3.698  -3.641  -6.961  0.00  0.00    +0.109 C 
BRANCH  21  22
ATOM     22  C   UNL     1       2.872  -4.387  -8.011  0.00  0.00    +0.056 C 
BRANCH  22  29
ATOM     23  C   UNL     1       6.071  -7.483  -9.477  0.00  0.00    +0.001 A 
ATOM     24  C   UNL     1       6.554  -7.202 -10.748  0.00  0.00    +0.002 A 
ATOM     25  C   UNL     1       6.095  -6.107 -11.447  0.00  0.00    +0.026 A 
ATOM     26  C   UNL     1       5.137  -5.275 -10.877  0.00  0.00    +0.047 A 
ATOM     27  C   UNL     1       4.651  -5.564  -9.589  0.00  0.00    +0.003 A 
ATOM     28  C   UNL     1       5.131  -6.679  -8.898  0.00  0.00    +0.010 A 
ATOM     29  C   UNL     1       3.674  -4.518  -9.280  0.00  0.00    -0.021 A 
ATOM     30  C   UNL     1       3.623  -3.702 -10.345  0.00  0.00    +0.087 A 
ATOM     31  N   UNL     1       4.494  -4.135 -11.307  0.00  0.00    -0.360 N 
ATOM     32  H   UNL     1       4.635  -3.706 -12.165  0.00  0.00    +0.165 HD
ENDBRANCH  22  29
ENDBRANCH  21  22
ENDBRANCH   1  21
TORSDOF 6
