REMARK  Name = ZINC15495129
REMARK  5 active torsions:
REMARK  status: ('A' for Active; 'I' for Inactive)
REMARK    1  A    between atoms: C_1  and  C_2
REMARK    2  A    between atoms: C_2  and  C_4
REMARK    3  A    between atoms: C_2  and  S_13
REMARK    4  A    between atoms: S_13  and  C_14
REMARK    5  A    between atoms: C_14  and  C_15
REMARK                            x       y       z     vdW  Elec       q    Type
REMARK                         _______ _______ _______ _____ _____    ______ ____
ROOT
ATOM      1  C   UNL     1       2.856   7.992   1.215  0.00  0.00    +0.146 C 
ENDROOT
BRANCH   1   2
ATOM      2  C   UNL     1       3.718   9.147   0.773  0.00  0.00    +0.146 A 
ATOM      3  N   UNL     1       5.027   9.097   0.951  0.00  0.00    -0.199 NA
ATOM      4  C   UNL     1       5.792  10.113   0.559  0.00  0.00    +0.217 A 
ATOM      5  N   UNL     1       5.238  11.182  -0.003  0.00  0.00    -0.181 NA
ATOM      6  C   UNL     1       3.921  11.230  -0.175  0.00  0.00    +0.217 A 
ATOM      7  N   UNL     1       3.163  10.208   0.215  0.00  0.00    -0.199 NA
ATOM      8  N   UNL     1       3.341  12.338  -0.758  0.00  0.00    -0.327 N 
ATOM      9  N   UNL     1       7.159  10.059   0.740  0.00  0.00    -0.327 N 
ATOM     10  H   UNL     1       2.380  12.373  -0.883  0.00  0.00    +0.145 HD
ATOM     11  H   UNL     1       3.894  13.082  -1.042  0.00  0.00    +0.145 HD
ATOM     12  H   UNL     1       7.716  10.801   0.457  0.00  0.00    +0.145 HD
ATOM     13  H   UNL     1       7.563   9.278   1.150  0.00  0.00    +0.145 HD
ENDBRANCH   1   2
BRANCH   1  14
ATOM     14  S   UNL     1       2.685   6.809  -0.150  0.00  0.00    -0.140 S 
BRANCH  14  16
ATOM     15  C   UNL     1       2.373   4.795   1.674  0.00  0.00    +0.029 C 
ATOM     16  C   UNL     1       1.634   5.499   0.534  0.00  0.00    +0.130 C 
BRANCH  16  17
ATOM     17  C   UNL     1       1.309   4.500  -0.546  0.00  0.00    +0.228 C 
ATOM     18  O   UNL     1       2.043   4.383  -1.505  0.00  0.00    -0.274 OA
ATOM     19  N   UNL     1       0.203   3.736  -0.447  0.00  0.00    -0.301 N 
ATOM     20  C   UNL     1      -0.610   3.823   0.782  0.00  0.00    +0.108 C 
ATOM     21  C   UNL     1      -2.119   3.841   0.479  0.00  0.00    +0.019 C 
ATOM     22  C   UNL     1      -2.396   4.703  -0.727  0.00  0.00    +0.002 C 
ATOM     23  C   UNL     1      -2.377   3.837  -1.983  0.00  0.00    +0.002 C 
ATOM     24  C   UNL     1      -1.038   3.627  -2.554  0.00  0.00    +0.019 C 
ATOM     25  C   UNL     1      -0.139   2.865  -1.550  0.00  0.00    +0.108 C 
ENDBRANCH  16  17
ENDBRANCH  14  16
ENDBRANCH   1  14
TORSDOF 4
