REMARK  Name = ZINC16232110
REMARK  10 active torsions:
REMARK  status: ('A' for Active; 'I' for Inactive)
REMARK    1  A    between atoms: C_1  and  C_2
REMARK    2  A    between atoms: C_5  and  N_9
REMARK    3  A    between atoms: C_6  and  C_8
REMARK    4  A    between atoms: N_9  and  C_10
REMARK    5  A    between atoms: C_10  and  N_12
REMARK    6  A    between atoms: N_12  and  N_13
REMARK    7  A    between atoms: C_14  and  C_16
REMARK    8  A    between atoms: C_18  and  S_25
REMARK    9  A    between atoms: C_21  and  N_22
REMARK   10  A    between atoms: S_25  and  C_26
REMARK                            x       y       z     vdW  Elec       q    Type
REMARK                         _______ _______ _______ _____ _____    ______ ____
ROOT
ATOM      1  N   UNL     1      -0.043  -6.948  -0.040  0.00  0.00    -0.231 N 
ATOM      2  C   UNL     1      -0.151  -8.291  -0.009  0.00  0.00    +0.262 C 
ATOM      3  O   UNL     1      -0.246  -8.917  -1.046  0.00  0.00    -0.269 OA
ATOM      4  H   UNL     1       0.033  -6.448   0.788  0.00  0.00    +0.173 HD
ENDROOT
BRANCH   2   5
ATOM      5  C   UNL     1      -0.154  -9.002   1.287  0.00  0.00    +0.069 A 
ATOM      6  C   UNL     1       0.893  -8.817   2.189  0.00  0.00    +0.030 A 
ATOM      7  C   UNL     1       0.883  -9.488   3.403  0.00  0.00    +0.008 A 
ATOM      8  C   UNL     1      -0.169 -10.342   3.716  0.00  0.00    +0.017 A 
ATOM      9  C   UNL     1      -1.206 -10.525   2.822  0.00  0.00    +0.034 A 
ATOM     10  C   UNL     1      -1.208  -9.857   1.614  0.00  0.00    +0.138 A 
BRANCH  10  11
ATOM     11  N   UNL     1      -2.325 -10.053   0.662  0.00  0.00    +0.057 N 
ATOM     12  O   UNL     1      -3.174 -10.883   0.888  0.00  0.00    -0.126 OA
ATOM     13  O   UNL     1      -2.388  -9.382  -0.342  0.00  0.00    -0.126 OA
ENDBRANCH  10  11
BRANCH   7  14
ATOM     14  S   UNL     1       2.203  -9.259   4.548  0.00  0.00    -0.129 S 
ATOM     15  C   UNL     1       1.755 -10.318   5.951  0.00  0.00    +0.090 C 
ENDBRANCH   7  14
ENDBRANCH   2   5
BRANCH   1  16
ATOM     16  N   UNL     1      -0.039  -6.274  -1.268  0.00  0.00    -0.245 N 
ATOM     17  H   UNL     1      -0.115  -6.773  -2.096  0.00  0.00    +0.172 HD
BRANCH  16  18
ATOM     18  C   UNL     1       0.069  -4.930  -1.300  0.00  0.00    +0.151 C 
ATOM     19  S   UNL     1       0.073  -4.106  -2.800  0.00  0.00    -0.017 S 
BRANCH  18  20
ATOM     20  N   UNL     1       0.174  -4.236  -0.149  0.00  0.00    -0.296 N 
ATOM     21  H   UNL     1       0.239  -4.706   0.697  0.00  0.00    +0.154 HD
BRANCH  20  26
ATOM     22  C   UNL     1       0.237   1.435  -0.256  0.00  0.00    +0.044 C 
ATOM     23  C   UNL     1       0.220  -0.071  -0.228  0.00  0.00    -0.050 A 
ATOM     24  C   UNL     1       1.014  -0.787  -1.106  0.00  0.00    +0.005 A 
ATOM     25  C   UNL     1       1.001  -2.167  -1.082  0.00  0.00    +0.024 A 
ATOM     26  C   UNL     1       0.190  -2.837  -0.175  0.00  0.00    +0.036 A 
ATOM     27  C   UNL     1      -0.606  -2.116   0.705  0.00  0.00    -0.029 A 
ATOM     28  C   UNL     1      -0.584  -0.735   0.679  0.00  0.00    +0.008 A 
ATOM     29  C   UNL     1      -1.488  -2.839   1.690  0.00  0.00    +0.045 C 
ENDBRANCH  20  26
ENDBRANCH  18  20
ENDBRANCH  16  18
ENDBRANCH   1  16
TORSDOF 7
