REMARK  Name = ZINC13976476
REMARK  12 active torsions:
REMARK  status: ('A' for Active; 'I' for Inactive)
REMARK    1  A    between atoms: C_1  and  C_2
REMARK    2  A    between atoms: C_2  and  C_3
REMARK    3  A    between atoms: C_2  and  C_4
REMARK    4  A    between atoms: C_2  and  C_5
REMARK    5  A    between atoms: C_8  and  O_11
REMARK    6  A    between atoms: O_11  and  C_12
REMARK    7  A    between atoms: C_12  and  C_13
REMARK    8  A    between atoms: N_15  and  C_16
REMARK    9  A    between atoms: C_16  and  N_18
REMARK   10  A    between atoms: N_18  and  N_19
REMARK   11  A    between atoms: C_20  and  C_22
REMARK   12  A    between atoms: C_22  and  C_23
REMARK                            x       y       z     vdW  Elec       q    Type
REMARK                         _______ _______ _______ _____ _____    ______ ____
ROOT
ATOM      1  C   UNL     1       3.524   1.904  -0.021  0.00  0.00    +0.153 C 
ATOM      2  S   UNL     1       5.018   1.068  -0.040  0.00  0.00    -0.017 S 
ENDROOT
BRANCH   1   5
ATOM      3  C   UNL     1       4.664   3.941  -0.021  0.00  0.00    +0.256 C 
ATOM      4  O   UNL     1       5.722   3.350  -0.035  0.00  0.00    -0.272 OA
ATOM      5  N   UNL     1       3.506   3.252  -0.014  0.00  0.00    -0.264 N 
ATOM      6  H   UNL     1       2.659   3.725  -0.003  0.00  0.00    +0.157 HD
BRANCH   3   7
ATOM      7  C   UNL     1       4.643   5.448  -0.013  0.00  0.00    +0.324 C 
BRANCH   7   8
ATOM      8  O   UNL     1       5.984   5.943  -0.023  0.00  0.00    -0.483 OA
BRANCH   8  12
ATOM      9  C   UNL     1       6.469  10.040  -0.006  0.00  0.00    -0.042 A 
ATOM     10  C   UNL     1       7.577   9.213  -0.021  0.00  0.00    +0.008 A 
ATOM     11  C   UNL     1       7.418   7.841  -0.027  0.00  0.00    +0.046 A 
ATOM     12  C   UNL     1       6.144   7.292  -0.017  0.00  0.00    +0.121 A 
ATOM     13  C   UNL     1       5.033   8.124  -0.008  0.00  0.00    +0.046 A 
ATOM     14  C   UNL     1       5.198   9.495   0.004  0.00  0.00    +0.008 A 
BRANCH   9  16
ATOM     15  C   UNL     1       7.410  11.965  -1.254  0.00  0.00    +0.015 C 
ATOM     16  C   UNL     1       6.646  11.536   0.001  0.00  0.00    -0.013 C 
ATOM     17  C   UNL     1       5.274  12.212   0.018  0.00  0.00    +0.015 C 
ATOM     18  C   UNL     1       7.434  11.951   1.245  0.00  0.00    +0.015 C 
ENDBRANCH   9  16
ENDBRANCH   8  12
ENDBRANCH   7   8
ENDBRANCH   3   7
ENDBRANCH   1   5
BRANCH   1  19
ATOM     19  N   UNL     1       2.366   1.214  -0.014  0.00  0.00    -0.246 N 
ATOM     20  H   UNL     1       2.379   0.244  -0.019  0.00  0.00    +0.172 HD
BRANCH  19  21
ATOM     21  N   UNL     1       1.143   1.898   0.001  0.00  0.00    -0.235 N 
ATOM     22  C   UNL     1      -0.014   1.209   0.009  0.00  0.00    +0.233 C 
ATOM     23  O   UNL     1       0.002  -0.004   0.002  0.00  0.00    -0.274 OA
ATOM     24  H   UNL     1       1.130   2.868   0.007  0.00  0.00    +0.173 HD
BRANCH  22  25
ATOM     25  C   UNL     1      -1.330   1.944   0.019  0.00  0.00    +0.133 C 
BRANCH  25  26
ATOM     26  C   UNL     1      -2.462   0.950   0.019  0.00  0.00    -0.031 A 
ATOM     27  C   UNL     1      -3.049   0.581  -1.153  0.00  0.00    +0.005 A 
ATOM     28  C   UNL     1      -4.097  -0.337  -1.173  0.00  0.00    +0.001 A 
ATOM     29  C   UNL     1      -4.563  -0.893  -0.021  0.00  0.00    +0.008 A 
ATOM     30  C   UNL     1      -3.982  -0.537   1.208  0.00  0.00    -0.018 A 
ATOM     31  C   UNL     1      -2.913   0.393   1.228  0.00  0.00    -0.014 A 
ATOM     32  C   UNL     1      -2.334   0.751   2.457  0.00  0.00    +0.009 A 
ATOM     33  C   UNL     1      -2.801   0.196   3.608  0.00  0.00    +0.001 A 
ATOM     34  C   UNL     1      -3.849  -0.722   3.589  0.00  0.00    +0.001 A 
ATOM     35  C   UNL     1      -4.437  -1.090   2.418  0.00  0.00    +0.008 A 
ENDBRANCH  25  26
ENDBRANCH  22  25
ENDBRANCH  19  21
ENDBRANCH   1  19
TORSDOF 9
