REMARK  Name = ZINC06965908
REMARK  4 active torsions:
REMARK  status: ('A' for Active; 'I' for Inactive)
REMARK    1  A    between atoms: C_1  and  C_2
REMARK    2  A    between atoms: C_5  and  C_28
REMARK    3  A    between atoms: C_15  and  C_18
REMARK    4  A    between atoms: C_22  and  N_24
REMARK                            x       y       z     vdW  Elec       q    Type
REMARK                         _______ _______ _______ _____ _____    ______ ____
ROOT
ATOM      1  C   UNL     1       2.906  -0.871  -0.050  0.00  0.00    +0.044 C 
ATOM      2  C   UNL     1       1.727   0.064   0.024  0.00  0.00    -0.045 A 
ATOM      3  C   UNL     1       0.449  -0.452   0.098  0.00  0.00    +0.004 A 
ATOM      4  C   UNL     1      -0.638   0.400   0.165  0.00  0.00    +0.005 A 
ATOM      5  C   UNL     1      -0.441   1.765   0.156  0.00  0.00    -0.029 A 
ATOM      6  C   UNL     1       0.849   2.288   0.081  0.00  0.00    +0.035 A 
ATOM      7  C   UNL     1       1.936   1.437   0.016  0.00  0.00    -0.016 A 
ATOM      8  C   UNL     1       3.357   1.927  -0.062  0.00  0.00    +0.049 C 
ATOM      9  C   UNL     1       3.935   1.487  -1.398  0.00  0.00    -0.023 C 
ATOM     10  C   UNL     1       3.849   2.453  -2.277  0.00  0.00    -0.030 C 
ATOM     11  C   UNL     1       3.201   3.678  -1.659  0.00  0.00    +0.033 C 
ATOM     12  C   UNL     1       3.418   3.466  -0.141  0.00  0.00    +0.029 C 
ATOM     13  C   UNL     1       2.276   4.087   0.647  0.00  0.00    +0.105 C 
ATOM     14  N   UNL     1       0.993   3.676   0.075  0.00  0.00    -0.336 N 
ATOM     15  C   UNL     1      -1.625   2.694   0.222  0.00  0.00    +0.045 C 
ATOM     16  H   UNL     1       0.876   4.048  -0.856  0.00  0.00    +0.147 HD
ENDROOT
BRANCH  13  17
ATOM     17  C   UNL     1       2.353   3.631   2.082  0.00  0.00    -0.025 A 
ATOM     18  C   UNL     1       3.577   3.313   2.641  0.00  0.00    +0.007 A 
ATOM     19  C   UNL     1       3.648   2.895   3.957  0.00  0.00    +0.022 A 
ATOM     20  C   UNL     1       2.495   2.795   4.714  0.00  0.00    +0.071 A 
ATOM     21  C   UNL     1       1.270   3.113   4.154  0.00  0.00    +0.145 A 
ATOM     22  C   UNL     1       1.201   3.537   2.840  0.00  0.00    +0.039 A 
ATOM     23 CL   UNL     1       2.583   2.271   6.367  0.00  0.00    -0.081 Cl
BRANCH  21  24
ATOM     24  N   UNL     1       0.036   3.006   4.963  0.00  0.00    +0.058 N 
ATOM     25  O   UNL     1      -1.042   3.287   4.470  0.00  0.00    -0.126 OA
ATOM     26  O   UNL     1       0.098   2.638   6.122  0.00  0.00    -0.126 OA
ENDBRANCH  21  24
ENDBRANCH  13  17
TORSDOF 2
