REMARK  Name = ZINC20246289
REMARK  7 active torsions:
REMARK  status: ('A' for Active; 'I' for Inactive)
REMARK    1  A    between atoms: C_1  and  C_2
REMARK    2  A    between atoms: C_2  and  C_4
REMARK    3  A    between atoms: C_2  and  S_18
REMARK    4  A    between atoms: N_6  and  N_7
REMARK    5  A    between atoms: C_8  and  C_9
REMARK    6  A    between atoms: C_14  and  C_15
REMARK    7  A    between atoms: S_18  and  C_19
REMARK                            x       y       z     vdW  Elec       q    Type
REMARK                         _______ _______ _______ _____ _____    ______ ____
ROOT
ATOM      1  C   UNL     1      -0.752  -0.634  -0.032  0.00  0.00    +0.245 C 
ATOM      2  O   UNL     1      -1.016  -1.071   1.068  0.00  0.00    -0.273 OA
ATOM      3  N   UNL     1      -1.653  -0.732  -1.029  0.00  0.00    -0.206 N 
ATOM      4  H   UNL     1      -1.443  -0.382  -1.909  0.00  0.00    +0.177 HD
ENDROOT
BRANCH   1   6
ATOM      5  C   UNL     1       0.450   1.533  -0.115  0.00  0.00    +0.029 C 
ATOM      6  C   UNL     1       0.583   0.018  -0.284  0.00  0.00    +0.136 C 
BRANCH   6   7
ATOM      7  S   UNL     1       1.800  -0.618   0.901  0.00  0.00    -0.113 S 
BRANCH   7   8
ATOM      8  C   UNL     1       2.040  -2.293   0.408  0.00  0.00    +0.009 A 
ATOM      9  C   UNL     1       1.439  -2.770  -0.750  0.00  0.00    +0.016 A 
ATOM     10  C   UNL     1       1.629  -4.083  -1.134  0.00  0.00    +0.021 A 
ATOM     11  C   UNL     1       2.416  -4.923  -0.366  0.00  0.00    +0.041 A 
ATOM     12  C   UNL     1       3.015  -4.450   0.789  0.00  0.00    +0.021 A 
ATOM     13  C   UNL     1       2.834  -3.137   1.175  0.00  0.00    +0.016 A 
ATOM     14 CL   UNL     1       2.652  -6.573  -0.851  0.00  0.00    -0.084 Cl
ENDBRANCH   7   8
ENDBRANCH   6   7
ENDBRANCH   1   6
BRANCH   3  15
ATOM     15  N   UNL     1      -2.894  -1.338  -0.795  0.00  0.00    -0.188 NA
ATOM     16  C   UNL     1      -3.763  -1.433  -1.756  0.00  0.00    +0.139 C 
BRANCH  16  17
ATOM     17  C   UNL     1      -5.067  -2.069  -1.511  0.00  0.00    +0.009 A 
ATOM     18  C   UNL     1      -5.425  -2.461  -0.220  0.00  0.00    +0.010 A 
ATOM     19  C   UNL     1      -6.648  -3.058   0.005  0.00  0.00    +0.001 A 
ATOM     20  C   UNL     1      -7.529  -3.274  -1.044  0.00  0.00    +0.001 A 
ATOM     21  C   UNL     1      -7.196  -2.895  -2.327  0.00  0.00    +0.016 A 
ATOM     22  C   UNL     1      -5.966  -2.283  -2.577  0.00  0.00    +0.072 A 
BRANCH  22  23
ATOM     23  C   UNL     1      -5.607  -1.870  -3.943  0.00  0.00    +0.387 C 
ATOM     24  O   UNL     1      -6.333  -2.167  -4.883  0.00  0.00    -0.241 OA
ATOM     25  O   UNL     1      -4.583  -1.231  -4.140  0.00  0.00    -0.241 OA
ENDBRANCH  22  23
ENDBRANCH  16  17
ENDBRANCH   3  15
TORSDOF 6
