REMARK  Name = ZINC66993135
REMARK  5 active torsions:
REMARK  status: ('A' for Active; 'I' for Inactive)
REMARK    1  A    between atoms: C_1  and  C_2
REMARK    2  A    between atoms: C_5  and  C_8
REMARK    3  A    between atoms: C_13  and  N_16
REMARK    4  A    between atoms: N_16  and  C_17
REMARK    5  A    between atoms: C_17  and  C_18
REMARK                            x       y       z     vdW  Elec       q    Type
REMARK                         _______ _______ _______ _____ _____    ______ ____
ROOT
ATOM      1  C   UNL     1       0.059  -4.251  -0.021  0.00  0.00    +0.247 C 
ATOM      2  O   UNL     1       0.150  -3.039  -0.013  0.00  0.00    -0.270 OA
ATOM      3  N   UNL     1      -0.028  -4.929   1.140  0.00  0.00    -0.298 N 
ATOM      4  C   UNL     1      -0.149  -4.213   2.418  0.00  0.00    +0.106 C 
ATOM      5  C   UNL     1       0.951  -4.704   3.364  0.00  0.00    +0.003 C 
ATOM      6  C   UNL     1       0.869  -6.227   3.488  0.00  0.00    -0.068 C 
ATOM      7  C   UNL     1       1.094  -6.865   2.115  0.00  0.00    +0.003 C 
ATOM      8  C   UNL     1      -0.010  -6.398   1.153  0.00  0.00    +0.106 C 
ENDROOT
BRANCH   1  13
ATOM      9  C   UNL     1       0.000  -7.097  -5.023  0.00  0.00    +0.044 C 
ATOM     10  C   UNL     1       0.015  -6.352  -3.713  0.00  0.00    -0.050 A 
ATOM     11  C   UNL     1       0.886  -5.291  -3.534  0.00  0.00    +0.004 A 
ATOM     12  C   UNL     1       0.905  -4.604  -2.338  0.00  0.00    +0.013 A 
ATOM     13  C   UNL     1       0.044  -4.982  -1.306  0.00  0.00    +0.037 A 
ATOM     14  C   UNL     1      -0.832  -6.053  -1.493  0.00  0.00    +0.013 A 
ATOM     15  C   UNL     1      -0.845  -6.728  -2.697  0.00  0.00    +0.004 A 
ENDBRANCH   1  13
BRANCH   6  16
ATOM     16  N   UNL     1       1.901  -6.699   4.421  0.00  0.00    +0.384 N 
ATOM     17  H   UNL     1       2.815  -6.511   4.035  0.00  0.00    -0.085 HD
ATOM     18  H   UNL     1       1.803  -6.218   5.302  0.00  0.00    -0.085 HD
BRANCH  16  19
ATOM     19  C   UNL     1       1.747  -8.144   4.632  0.00  0.00    -0.043 C 
BRANCH  19  20
ATOM     20  C   UNL     1       2.806  -8.628   5.589  0.00  0.00    -0.019 A 
ATOM     21  C   UNL     1       3.943  -9.248   5.105  0.00  0.00    +0.005 A 
ATOM     22  C   UNL     1       4.916  -9.693   5.981  0.00  0.00    +0.004 A 
ATOM     23  C   UNL     1       4.754  -9.521   7.343  0.00  0.00    +0.049 A 
ATOM     24  C   UNL     1       3.616  -8.901   7.834  0.00  0.00    +0.162 A 
ATOM     25  C   UNL     1       2.641  -8.446   6.954  0.00  0.00    +0.163 A 
ATOM     26  O   UNL     1       1.522  -7.823   7.415  0.00  0.00    -0.485 OA
ATOM     27  C   UNL     1       1.217  -7.992   8.803  0.00  0.00    +0.270 C 
ATOM     28  C   UNL     1       2.505  -7.770   9.608  0.00  0.00    +0.270 C 
ATOM     29  O   UNL     1       3.469  -8.742   9.178  0.00  0.00    -0.485 OA
ENDBRANCH  19  20
ENDBRANCH  16  19
ENDBRANCH   6  16
TORSDOF 4
