REMARK  Name = ZINC39658882
REMARK  6 active torsions:
REMARK  status: ('A' for Active; 'I' for Inactive)
REMARK    1  A    between atoms: C_1  and  C_2
REMARK    2  A    between atoms: C_2  and  C_33
REMARK    3  A    between atoms: C_5  and  C_8
REMARK    4  A    between atoms: C_8  and  N_9
REMARK    5  A    between atoms: C_10  and  C_12
REMARK    6  A    between atoms: C_23  and  C_25
REMARK                            x       y       z     vdW  Elec       q    Type
REMARK                         _______ _______ _______ _____ _____    ______ ____
ROOT
ATOM      1  C   UNL     1       3.355  -2.245   5.751  0.00  0.00    +0.100 C 
ATOM      2  C   UNL     1       2.283  -1.679   6.708  0.00  0.00    +0.121 C 
ATOM      3  N   UNL     1       1.970  -2.800   7.625  0.00  0.00    -0.296 N 
ATOM      4  C   UNL     1       3.281  -3.440   7.887  0.00  0.00    +0.115 C 
ATOM      5  C   UNL     1       4.011  -3.398   6.529  0.00  0.00    -0.004 C 
ATOM      6  C   UNL     1       5.496  -3.118   6.736  0.00  0.00    -0.010 C 
ATOM      7  C   UNL     1       6.138  -4.305   7.461  0.00  0.00    -0.082 C 
ATOM      8  N   UNL     1       5.955  -5.524   6.664  0.00  0.00    +0.379 N 
ATOM      9  C   UNL     1       4.526  -5.837   6.549  0.00  0.00    -0.082 C 
ATOM     10  C   UNL     1       3.816  -4.715   5.785  0.00  0.00    -0.010 C 
ATOM     11  C   UNL     1       0.764  -3.158   8.111  0.00  0.00    +0.247 C 
ATOM     12  O   UNL     1      -0.242  -2.611   7.703  0.00  0.00    -0.270 OA
ATOM     13  H   UNL     1       6.343  -5.384   5.743  0.00  0.00    -0.086 HD
ATOM     14  H   UNL     1       6.431  -6.292   7.113  0.00  0.00    -0.086 HD
ENDROOT
BRANCH  11  15
ATOM     15  C   UNL     1       0.666  -4.216   9.138  0.00  0.00    +0.038 A 
ATOM     16  C   UNL     1       1.778  -4.540   9.918  0.00  0.00    +0.014 A 
ATOM     17  C   UNL     1       1.681  -5.528  10.876  0.00  0.00    +0.022 A 
ATOM     18  C   UNL     1       0.484  -6.199  11.065  0.00  0.00    +0.059 A 
ATOM     19  C   UNL     1      -0.623  -5.881  10.294  0.00  0.00    +0.060 A 
ATOM     20  C   UNL     1      -0.539  -4.890   9.337  0.00  0.00    +0.034 A 
ATOM     21 CL   UNL     1      -2.119  -6.727  10.537  0.00  0.00    -0.082 Cl
ATOM     22 CL   UNL     1       0.371  -7.441  12.271  0.00  0.00    -0.082 Cl
ENDBRANCH  11  15
BRANCH   1  24
ATOM     23  N   UNL     1       3.433  -2.852   3.354  0.00  0.00    -0.312 N 
ATOM     24  C   UNL     1       2.712  -2.762   4.490  0.00  0.00    +0.218 C 
ATOM     25  O   UNL     1       1.547  -3.097   4.497  0.00  0.00    -0.275 OA
ATOM     26  H   UNL     1       4.365  -2.585   3.349  0.00  0.00    +0.149 HD
BRANCH  23  27
ATOM     27  C   UNL     1       2.808  -3.355   2.128  0.00  0.00    +0.138 C 
BRANCH  27  32
ATOM     28  C   UNL     1       6.578  -4.813  -0.416  0.00  0.00    +0.074 C 
ATOM     29  C   UNL     1       5.094  -4.976  -0.081  0.00  0.00    +0.165 C 
ATOM     30  O   UNL     1       4.298  -4.309  -1.075  0.00  0.00    -0.347 OA
ATOM     31  C   UNL     1       3.174  -3.764  -0.345  0.00  0.00    +0.196 C 
ATOM     32  C   UNL     1       3.836  -3.356   0.995  0.00  0.00    +0.164 C 
ATOM     33  O   UNL     1       4.823  -4.388   1.198  0.00  0.00    -0.342 OA
ATOM     34  C   UNL     1       4.734  -6.462  -0.050  0.00  0.00    +0.074 C 
ENDBRANCH  27  32
ENDBRANCH  23  27
ENDBRANCH   1  24
TORSDOF 4
