REMARK  Name = ZINC01026941
REMARK  7 active torsions:
REMARK  status: ('A' for Active; 'I' for Inactive)
REMARK    1  A    between atoms: C_1  and  C_2
REMARK    2  A    between atoms: C_9  and  N_32
REMARK    3  A    between atoms: C_10  and  C_30
REMARK    4  A    between atoms: C_11  and  C_13
REMARK    5  A    between atoms: C_16  and  O_19
REMARK    6  A    between atoms: O_19  and  C_20
REMARK    7  A    between atoms: C_20  and  C_22
REMARK                            x       y       z     vdW  Elec       q    Type
REMARK                         _______ _______ _______ _____ _____    ______ ____
ROOT
ATOM      1  C   UNL     1      -0.009   4.122   0.003  0.00  0.00    -0.034 A 
ATOM      2  C   UNL     1       1.186   3.435  -0.100  0.00  0.00    +0.008 A 
ATOM      3  C   UNL     1       1.193   2.053  -0.101  0.00  0.00    +0.046 A 
ATOM      4  C   UNL     1      -0.002   1.355   0.002  0.00  0.00    +0.132 A 
ATOM      5  C   UNL     1      -1.200   2.047   0.100  0.00  0.00    +0.046 A 
ATOM      6  C   UNL     1      -1.201   3.428   0.106  0.00  0.00    +0.008 A 
ENDROOT
BRANCH   1  17
ATOM      7  C   UNL     1       0.739   5.590  -3.135  0.00  0.00    +0.068 C 
ATOM      8  C   UNL     1      -0.524   6.128  -2.514  0.00  0.00    +0.068 A 
ATOM      9  C   UNL     1      -0.827   6.135  -1.159  0.00  0.00    +0.049 A 
ATOM     10  C   UNL     1      -2.059   6.707  -1.003  0.00  0.00    +0.222 A 
ATOM     11  N   UNL     1      -2.508   7.043  -2.223  0.00  0.00    -0.246 N 
ATOM     12  H   UNL     1      -3.383   7.481  -2.429  0.00  0.00    +0.192 HD
ATOM     13  N   UNL     1      -1.529   6.672  -3.159  0.00  0.00    -0.176 NA
ATOM     14  O   UNL     1      -2.644   6.867   0.210  0.00  0.00    -0.423 OA
ATOM     15  C   UNL     1      -1.872   6.699   1.303  0.00  0.00    +0.200 C 
ATOM     16  C   UNL     1      -0.644   6.135   1.277  0.00  0.00    +0.098 C 
ATOM     17  C   UNL     1      -0.013   5.628   0.004  0.00  0.00    +0.101 C 
BRANCH  15  18
ATOM     18  N   UNL     1      -2.362   7.125   2.512  0.00  0.00    -0.328 N 
ATOM     19  H   UNL     1      -3.241   7.534   2.562  0.00  0.00    +0.145 HD
ATOM     20  H   UNL     1      -1.830   7.018   3.316  0.00  0.00    +0.145 HD
ENDBRANCH  15  18
BRANCH  16  21
ATOM     21  C   UNL     1       0.085   6.014   2.503  0.00  0.00    +0.101 C 
ATOM     22  N   UNL     1       0.663   5.919   3.476  0.00  0.00    -0.191 NA
ENDBRANCH  16  21
ENDBRANCH   1  17
BRANCH   4  23
ATOM     23  O   UNL     1       0.002  -0.004   0.002  0.00  0.00    -0.422 OA
BRANCH  23  24
ATOM     24  C   UNL     1       0.528  -0.615   1.082  0.00  0.00    +0.344 C 
ATOM     25  O   UNL     1       0.875   0.043   2.043  0.00  0.00    -0.245 OA
BRANCH  24  26
ATOM     26  C   UNL     1       0.683  -2.083   1.097  0.00  0.00    +0.061 A 
ATOM     27  C   UNL     1       0.280  -2.842  -0.004  0.00  0.00    +0.016 A 
ATOM     28  C   UNL     1       0.432  -4.212   0.014  0.00  0.00    +0.022 A 
ATOM     29  C   UNL     1       0.973  -4.838   1.125  0.00  0.00    +0.059 A 
ATOM     30  C   UNL     1       1.370  -4.091   2.223  0.00  0.00    +0.060 A 
ATOM     31  C   UNL     1       1.228  -2.719   2.215  0.00  0.00    +0.036 A 
ATOM     32 CL   UNL     1       2.047  -4.884   3.611  0.00  0.00    -0.082 Cl
ATOM     33 CL   UNL     1       1.156  -6.564   1.142  0.00  0.00    -0.082 Cl
ENDBRANCH  24  26
ENDBRANCH  23  24
ENDBRANCH   4  23
TORSDOF 6
