REMARK  Name = ZINC36029080
REMARK  10 active torsions:
REMARK  status: ('A' for Active; 'I' for Inactive)
REMARK    1  A    between atoms: C_1  and  C_2
REMARK    2  A    between atoms: C_2  and  C_3
REMARK    3  A    between atoms: C_3  and  C_5
REMARK    4  A    between atoms: C_3  and  C_6
REMARK    5  A    between atoms: N_10  and  C_29
REMARK    6  A    between atoms: N_15  and  S_18
REMARK    7  A    between atoms: S_18  and  C_21
REMARK    8  A    between atoms: C_29  and  C_30
REMARK    9  A    between atoms: C_30  and  O_31
REMARK   10  A    between atoms: O_31  and  C_32
REMARK                            x       y       z     vdW  Elec       q    Type
REMARK                         _______ _______ _______ _____ _____    ______ ____
ROOT
ATOM      1  C   UNL     1       0.480  -2.050  -0.841  0.00  0.00    +0.022 C 
ATOM      2  C   UNL     1       1.368  -2.683   0.207  0.00  0.00    +0.201 C 
ATOM      3  O   UNL     1       1.481  -2.315   1.357  0.00  0.00    -0.277 OA
ATOM      4  N   UNL     1       2.013  -3.728  -0.352  0.00  0.00    -0.311 N 
ATOM      5  C   UNL     1       1.607  -3.858  -1.755  0.00  0.00    +0.006 C 
ATOM      6  N   UNL     1       0.986  -2.570  -2.134  0.00  0.00    +0.401 N 
ATOM      7  C   UNL     1       2.827  -4.124  -2.635  0.00  0.00    +0.023 C 
ATOM      8  C   UNL     1       3.483  -5.441  -2.211  0.00  0.00    +0.109 C 
ATOM      9  N   UNL     1       2.469  -6.504  -2.233  0.00  0.00    -0.177 NA
ATOM     10  C   UNL     1       1.225  -6.310  -1.476  0.00  0.00    +0.109 C 
ATOM     11  C   UNL     1       0.587  -4.985  -1.907  0.00  0.00    +0.023 C 
ATOM     12  H   UNL     1       0.226  -2.716  -2.782  0.00  0.00    -0.082 HD
ATOM     13  H   UNL     1       1.674  -1.944  -2.525  0.00  0.00    -0.082 HD
ENDROOT
BRANCH   9  14
ATOM     14  S   UNL     1       2.722  -7.894  -3.097  0.00  0.00    +0.061 S 
ATOM     15  O   UNL     1       1.439  -8.431  -3.389  0.00  0.00    -0.153 OA
ATOM     16  O   UNL     1       3.663  -7.575  -4.112  0.00  0.00    -0.153 OA
BRANCH  14  17
ATOM     17  C   UNL     1       3.514  -9.040  -2.018  0.00  0.00    +0.107 A 
ATOM     18  C   UNL     1       4.894  -9.074  -1.939  0.00  0.00    +0.030 A 
ATOM     19  C   UNL     1       5.517  -9.973  -1.094  0.00  0.00    +0.023 A 
ATOM     20  C   UNL     1       4.759 -10.839  -0.326  0.00  0.00    +0.059 A 
ATOM     21  C   UNL     1       3.377 -10.805  -0.405  0.00  0.00    +0.061 A 
ATOM     22  C   UNL     1       2.756  -9.901  -1.247  0.00  0.00    +0.050 A 
ATOM     23 CL   UNL     1       2.425 -11.891   0.558  0.00  0.00    -0.082 Cl
ATOM     24 CL   UNL     1       5.540 -11.969   0.736  0.00  0.00    -0.082 Cl
ENDBRANCH  14  17
ENDBRANCH   9  14
BRANCH   1  25
ATOM     25  C   UNL     1       0.605  -0.525  -0.795  0.00  0.00    -0.020 C 
ATOM     26  C   UNL     1       2.069  -0.128  -0.989  0.00  0.00    +0.006 C 
BRANCH  25  28
ATOM     27  C   UNL     1       0.121   1.516   0.563  0.00  0.00    +0.004 C 
ATOM     28  C   UNL     1       0.113  -0.014   0.561  0.00  0.00    -0.001 C 
ENDBRANCH  25  28
ENDBRANCH   1  25
BRANCH   4  29
ATOM     29  C   UNL     1       2.970  -4.598   0.335  0.00  0.00    +0.134 C 
BRANCH  29  30
ATOM     30  C   UNL     1       4.376  -4.006   0.211  0.00  0.00    +0.178 C 
BRANCH  30  31
ATOM     31  O   UNL     1       4.439  -2.773   0.932  0.00  0.00    -0.381 OA
ATOM     32  C   UNL     1       5.716  -2.135   0.879  0.00  0.00    +0.194 C 
ENDBRANCH  30  31
ENDBRANCH  29  30
ENDBRANCH   4  29
TORSDOF 7
