REMARK  Name = ZINC10241722
REMARK  12 active torsions:
REMARK  status: ('A' for Active; 'I' for Inactive)
REMARK    1  A    between atoms: C_1  and  C_2
REMARK    2  A    between atoms: C_2  and  N_3
REMARK    3  A    between atoms: N_3  and  C_4
REMARK    4  A    between atoms: C_4  and  C_5
REMARK    5  A    between atoms: N_7  and  C_8
REMARK    6  A    between atoms: C_16  and  C_18
REMARK    7  A    between atoms: C_18  and  S_19
REMARK    8  A    between atoms: S_19  and  C_20
REMARK    9  A    between atoms: C_23  and  C_26
REMARK   10  A    between atoms: N_24  and  C_25
REMARK   11  A    between atoms: C_31  and  O_32
REMARK   12  A    between atoms: O_32  and  C_33
REMARK                            x       y       z     vdW  Elec       q    Type
REMARK                         _______ _______ _______ _____ _____    ______ ____
ROOT
ATOM      1  N   UNL     1       1.173  10.755  -0.977  0.00  0.00    -0.292 N 
ATOM      2  C   UNL     1       0.366   9.678  -0.904  0.00  0.00    +0.226 C 
ATOM      3  O   UNL     1      -0.828   9.803  -1.079  0.00  0.00    -0.275 OA
ENDROOT
BRANCH   1   5
ATOM      4  C   UNL     1       3.300  10.320  -2.104  0.00  0.00    +0.024 C 
ATOM      5  C   UNL     1       2.615  10.604  -0.765  0.00  0.00    +0.105 C 
ENDBRANCH   1   5
BRANCH   1   6
ATOM      6  C   UNL     1       0.609  12.075  -1.267  0.00  0.00    +0.203 C 
BRANCH   6   7
ATOM      7  C   UNL     1       0.236  12.757   0.025  0.00  0.00    +0.231 C 
ATOM      8  O   UNL     1       0.423  12.194   1.083  0.00  0.00    -0.274 OA
ATOM      9  N   UNL     1      -0.305  13.991   0.003  0.00  0.00    -0.310 N 
ATOM     10  H   UNL     1      -0.455  14.440  -0.843  0.00  0.00    +0.149 HD
BRANCH   9  11
ATOM     11  C   UNL     1      -0.668  14.653   1.259  0.00  0.00    +0.095 C 
ATOM     12  C   UNL     1       0.570  15.354   1.842  0.00  0.00    +0.046 C 
ATOM     13  C   UNL     1       0.098  16.297   2.986  0.00  0.00    +0.168 C 
ATOM     14  S   UNL     1      -1.434  16.995   2.237  0.00  0.00    -0.029 S 
ATOM     15  O   UNL     1      -1.111  18.204   1.564  0.00  0.00    -0.174 OA
ATOM     16  O   UNL     1      -2.468  16.991   3.211  0.00  0.00    -0.174 OA
ATOM     17  C   UNL     1      -1.784  15.691   0.988  0.00  0.00    +0.188 C 
ENDBRANCH   9  11
ENDBRANCH   6   7
ENDBRANCH   1   6
BRANCH   2  18
ATOM     18  C   UNL     1       0.946   8.320  -0.606  0.00  0.00    +0.173 C 
BRANCH  18  19
ATOM     19  S   UNL     1      -0.382   7.090  -0.575  0.00  0.00    -0.077 S 
BRANCH  19  20
ATOM     20  C   UNL     1       0.552   5.640  -0.216  0.00  0.00    +0.192 A 
ATOM     21  N   UNL     1       1.852   5.575  -0.037  0.00  0.00    -0.122 NA
ATOM     22  N   UNL     1       2.203   4.364   0.214  0.00  0.00    -0.128 NA
ATOM     23  C   UNL     1       1.150   3.580   0.201  0.00  0.00    +0.168 A 
ATOM     24  N   UNL     1       0.060   4.373  -0.071  0.00  0.00    -0.305 N 
ATOM     25  C   UNL     1      -1.338   3.949  -0.183  0.00  0.00    +0.153 C 
BRANCH  23  26
ATOM     26  C   UNL     1       1.138   2.122   0.439  0.00  0.00    +0.061 A 
ATOM     27  C   UNL     1       0.203   1.561   1.310  0.00  0.00    +0.015 A 
ATOM     28  C   UNL     1       0.197   0.199   1.529  0.00  0.00    +0.001 A 
ATOM     29  C   UNL     1       1.114  -0.615   0.886  0.00  0.00    +0.004 A 
ATOM     30  C   UNL     1       2.044  -0.071   0.021  0.00  0.00    +0.046 A 
ATOM     31  C   UNL     1       2.064   1.295  -0.209  0.00  0.00    +0.131 A 
BRANCH  31  32
ATOM     32  O   UNL     1       2.978   1.830  -1.060  0.00  0.00    -0.494 OA
ATOM     33  C   UNL     1       3.891   0.925  -1.684  0.00  0.00    +0.277 C 
ENDBRANCH  31  32
ENDBRANCH  23  26
ENDBRANCH  19  20
ENDBRANCH  18  19
ENDBRANCH   2  18
TORSDOF 9
