REMARK  Name = ZINC13148058
REMARK  7 active torsions:
REMARK  status: ('A' for Active; 'I' for Inactive)
REMARK    1  A    between atoms: C_1  and  C_2
REMARK    2  A    between atoms: C_5  and  N_8
REMARK    3  A    between atoms: N_15  and  C_18
REMARK    4  A    between atoms: C_18  and  C_19
REMARK    5  A    between atoms: N_21  and  C_22
REMARK    6  A    between atoms: C_23  and  C_33
REMARK    7  A    between atoms: C_28  and  C_32
REMARK                            x       y       z     vdW  Elec       q    Type
REMARK                         _______ _______ _______ _____ _____    ______ ____
ROOT
ATOM      1  C   UNL     1      -5.396   2.424  -1.356  0.00  0.00    +0.237 C 
ATOM      2  O   UNL     1      -4.624   2.538  -2.284  0.00  0.00    -0.273 OA
ATOM      3  N   UNL     1      -6.710   2.241  -1.591  0.00  0.00    -0.278 N 
ATOM      4  H   UNL     1      -7.328   2.149  -0.848  0.00  0.00    +0.155 HD
ENDROOT
BRANCH   3   5
ATOM      5  C   UNL     1      -7.180   2.183  -2.894  0.00  0.00    +0.084 A 
ATOM      6  C   UNL     1      -8.484   2.003  -3.334  0.00  0.00    +0.068 A 
ATOM      7  C   UNL     1      -8.712   1.981  -4.769  0.00  0.00    -0.023 A 
ATOM      8  C   UNL     1      -7.607   2.140  -5.529  0.00  0.00    -0.004 A 
ATOM      9  S   UNL     1      -6.282   2.327  -4.369  0.00  0.00    -0.077 S 
ATOM     10  C   UNL     1      -7.535   2.159  -7.025  0.00  0.00    +0.046 C 
ATOM     11  C   UNL     1      -8.852   1.595  -7.579  0.00  0.00    -0.009 C 
ATOM     12  C   UNL     1     -10.021   2.272  -6.857  0.00  0.00    +0.008 C 
ATOM     13  C   UNL     1     -10.083   1.793  -5.406  0.00  0.00    +0.037 C 
ATOM     14  C   UNL     1      -8.941   1.881  -9.080  0.00  0.00    +0.008 C 
BRANCH   6  15
ATOM     15  C   UNL     1      -9.590   1.841  -2.385  0.00  0.00    +0.244 C 
ATOM     16  O   UNL     1     -10.196   2.818  -1.985  0.00  0.00    -0.270 OA
ATOM     17  N   UNL     1      -9.936   0.611  -1.957  0.00  0.00    -0.325 N 
ATOM     18  H   UNL     1      -9.453  -0.167  -2.276  0.00  0.00    +0.145 HD
ATOM     19  H   UNL     1     -10.668   0.504  -1.330  0.00  0.00    +0.145 HD
ENDBRANCH   6  15
ENDBRANCH   3   5
BRANCH   1  20
ATOM     20  C   UNL     1      -4.885   2.486   0.061  0.00  0.00    +0.222 C 
BRANCH  20  28
ATOM     21  N   UNL     1       0.624   3.193   0.013  0.00  0.00    -0.214 N 
ATOM     22  C   UNL     1      -0.737   3.221   0.026  0.00  0.00    +0.170 A 
ATOM     23  C   UNL     1      -1.165   1.884   0.017  0.00  0.00    +0.103 A 
ATOM     24  C   UNL     1      -0.013   1.076   0.008  0.00  0.00    +0.150 A 
ATOM     25  N   UNL     1       1.035   1.854   0.002  0.00  0.00    -0.172 NA
ATOM     26  C   UNL     1      -2.604   1.621   0.035  0.00  0.00    +0.265 A 
ATOM     27  O   UNL     1      -3.038   0.483   0.032  0.00  0.00    -0.267 OA
ATOM     28  N   UNL     1      -3.434   2.690   0.049  0.00  0.00    -0.290 N 
ATOM     29  C   UNL     1      -2.929   3.949   0.051  0.00  0.00    +0.204 A 
ATOM     30  N   UNL     1      -1.653   4.201   0.040  0.00  0.00    -0.217 NA
BRANCH  21  35
ATOM     31  C   UNL     1       4.044   7.720   0.006  0.00  0.00    +0.044 C 
ATOM     32  C   UNL     1       3.136   6.518   0.008  0.00  0.00    -0.050 A 
ATOM     33  C   UNL     1       3.510   5.372   0.685  0.00  0.00    +0.005 A 
ATOM     34  C   UNL     1       2.680   4.268   0.689  0.00  0.00    +0.028 A 
ATOM     35  C   UNL     1       1.468   4.310   0.012  0.00  0.00    +0.068 A 
ATOM     36  C   UNL     1       1.098   5.461  -0.672  0.00  0.00    +0.028 A 
ATOM     37  C   UNL     1       1.930   6.563  -0.668  0.00  0.00    +0.005 A 
ENDBRANCH  21  35
ENDBRANCH  20  28
ENDBRANCH   1  20
TORSDOF 5
