REMARK  Name = ZINC39969434
REMARK  9 active torsions:
REMARK  status: ('A' for Active; 'I' for Inactive)
REMARK    1  A    between atoms: C_1  and  C_2
REMARK    2  A    between atoms: C_2  and  N_3
REMARK    3  A    between atoms: C_4  and  C_24
REMARK    4  A    between atoms: C_8  and  S_10
REMARK    5  A    between atoms: S_10  and  C_11
REMARK    6  A    between atoms: C_11  and  C_12
REMARK    7  A    between atoms: C_24  and  O_25
REMARK    8  A    between atoms: O_25  and  C_26
REMARK    9  A    between atoms: C_35  and  C_36
REMARK                            x       y       z     vdW  Elec       q    Type
REMARK                         _______ _______ _______ _____ _____    ______ ____
ROOT
ATOM      1  N   UNL     1       0.906  -0.567  -1.083  0.00  0.00    -0.259 NA
ATOM      2  C   UNL     1       0.947  -2.044  -1.081  0.00  0.00    +0.178 C 
ATOM      3  N   UNL     1       0.197  -2.489  -2.278  0.00  0.00    -0.234 NA
ATOM      4  N   UNL     1       0.257  -1.341  -3.197  0.00  0.00    -0.229 NA
ATOM      5  C   UNL     1       0.133  -0.174  -2.284  0.00  0.00    +0.200 C 
ATOM      6  H   UNL     1       0.624  -3.304  -2.690  0.00  0.00    +0.142 HD
ATOM      7  H   UNL     1       1.136  -1.320  -3.692  0.00  0.00    +0.143 HD
ENDROOT
BRANCH   1   9
ATOM      8  C   UNL     1       0.425   1.465   0.195  0.00  0.00    +0.020 C 
ATOM      9  C   UNL     1       0.274  -0.056   0.140  0.00  0.00    +0.085 C 
ENDBRANCH   1   9
BRANCH   5  10
ATOM     10  S   UNL     1       0.854   1.307  -3.046  0.00  0.00    -0.117 S 
BRANCH  10  11
ATOM     11  C   UNL     1       2.514   0.777  -3.549  0.00  0.00    +0.146 C 
BRANCH  11  12
ATOM     12  C   UNL     1       3.280   1.962  -4.078  0.00  0.00    +0.120 A 
ATOM     13  N   UNL     1       4.586   1.789  -4.410  0.00  0.00    -0.310 N 
ATOM     14  H   UNL     1       4.998   0.918  -4.301  0.00  0.00    +0.170 HD
ATOM     15  C   UNL     1       5.318   2.822  -4.889  0.00  0.00    +0.259 A 
ATOM     16  O   UNL     1       6.489   2.681  -5.191  0.00  0.00    -0.267 OA
ATOM     17  C   UNL     1       4.643   4.121  -5.033  0.00  0.00    +0.065 A 
ATOM     18  C   UNL     1       5.306   5.247  -5.517  0.00  0.00    +0.015 A 
ATOM     19  C   UNL     1       4.626   6.439  -5.630  0.00  0.00    +0.001 A 
ATOM     20  C   UNL     1       3.288   6.526  -5.267  0.00  0.00    +0.002 A 
ATOM     21  C   UNL     1       2.615   5.425  -4.786  0.00  0.00    +0.028 A 
ATOM     22  C   UNL     1       3.283   4.205  -4.662  0.00  0.00    +0.078 A 
ATOM     23  N   UNL     1       2.657   3.095  -4.199  0.00  0.00    -0.233 NA
ENDBRANCH  11  12
ENDBRANCH  10  11
ENDBRANCH   5  10
BRANCH   2  24
ATOM     24  C   UNL     1       2.396  -2.529  -1.159  0.00  0.00    +0.265 C 
BRANCH  24  25
ATOM     25  O   UNL     1       3.092  -2.141   0.027  0.00  0.00    -0.489 OA
BRANCH  25  26
ATOM     26  C   UNL     1       4.417  -2.437   0.089  0.00  0.00    +0.124 A 
ATOM     27  C   UNL     1       5.052  -2.998  -1.024  0.00  0.00    +0.046 A 
ATOM     28  C   UNL     1       6.377  -3.304  -0.993  0.00  0.00    +0.012 A 
ATOM     29  C   UNL     1       7.122  -3.056   0.173  0.00  0.00    -0.017 A 
ATOM     30  C   UNL     1       8.492  -3.361   0.240  0.00  0.00    +0.008 A 
ATOM     31  C   UNL     1       9.184  -3.107   1.384  0.00  0.00    +0.001 A 
ATOM     32  C   UNL     1       8.554  -2.549   2.495  0.00  0.00    +0.001 A 
ATOM     33  C   UNL     1       7.228  -2.241   2.467  0.00  0.00    +0.009 A 
ATOM     34  C   UNL     1       6.481  -2.488   1.302  0.00  0.00    -0.012 A 
ATOM     35  C   UNL     1       5.113  -2.179   1.235  0.00  0.00    -0.001 A 
ATOM     36  C   UNL     1       4.415  -1.569   2.424  0.00  0.00    +0.048 C 
ENDBRANCH  25  26
ENDBRANCH  24  25
ENDBRANCH   2  24
TORSDOF 7
