REMARK  Name = ZINC09125053
REMARK  7 active torsions:
REMARK  status: ('A' for Active; 'I' for Inactive)
REMARK    1  A    between atoms: C_1  and  N_2
REMARK    2  A    between atoms: N_5  and  C_14
REMARK    3  A    between atoms: C_14  and  C_15
REMARK    4  A    between atoms: N_17  and  C_18
REMARK    5  A    between atoms: C_23  and  S_24
REMARK    6  A    between atoms: S_24  and  C_25
REMARK    7  A    between atoms: C_25  and  C_26
REMARK                            x       y       z     vdW  Elec       q    Type
REMARK                         _______ _______ _______ _____ _____    ______ ____
ROOT
ATOM      1  C   UNL     1       0.335  -0.128  -0.032  0.00  0.00    +0.235 C 
ATOM      2  O   UNL     1       1.401  -0.701  -0.113  0.00  0.00    -0.274 OA
ATOM      3  N   UNL     1       0.294   1.220  -0.018  0.00  0.00    -0.283 N 
ATOM      4  H   UNL     1      -0.560   1.679  -0.028  0.00  0.00    +0.155 HD
ENDROOT
BRANCH   3   5
ATOM      5  C   UNL     1       1.486   1.956   0.004  0.00  0.00    +0.047 A 
ATOM      6  C   UNL     1       2.608   1.485  -0.661  0.00  0.00    +0.024 A 
ATOM      7  C   UNL     1       3.783   2.213  -0.638  0.00  0.00    +0.002 A 
ATOM      8  C   UNL     1       3.844   3.413   0.046  0.00  0.00    +0.001 A 
ATOM      9  C   UNL     1       2.731   3.892   0.712  0.00  0.00    +0.016 A 
ATOM     10  C   UNL     1       1.547   3.169   0.691  0.00  0.00    +0.029 A 
BRANCH  10  11
ATOM     11  S   UNL     1       0.124   3.779   1.533  0.00  0.00    -0.119 S 
BRANCH  11  12
ATOM     12  C   UNL     1       0.681   5.347   2.256  0.00  0.00    +0.109 C 
BRANCH  12  13
ATOM     13  C   UNL     1      -0.455   5.982   3.015  0.00  0.00    -0.037 A 
ATOM     14  C   UNL     1      -1.312   6.856   2.373  0.00  0.00    +0.004 A 
ATOM     15  C   UNL     1      -2.358   7.434   3.068  0.00  0.00    +0.000 A 
ATOM     16  C   UNL     1      -2.540   7.147   4.408  0.00  0.00    +0.000 A 
ATOM     17  C   UNL     1      -1.680   6.278   5.051  0.00  0.00    +0.000 A 
ATOM     18  C   UNL     1      -0.637   5.695   4.355  0.00  0.00    +0.004 A 
ENDBRANCH  12  13
ENDBRANCH  11  12
ENDBRANCH  10  11
ENDBRANCH   3   5
BRANCH   1  19
ATOM     19  C   UNL     1      -0.944  -0.921   0.052  0.00  0.00    +0.214 C 
BRANCH  19  24
ATOM     20  C   UNL     1      -0.090  -5.434  -1.852  0.00  0.00    +0.134 C 
ATOM     21  N   UNL     1      -0.254  -4.369  -0.859  0.00  0.00    -0.274 N 
ATOM     22  C   UNL     1      -0.558  -3.079  -1.103  0.00  0.00    +0.312 C 
ATOM     23  O   UNL     1      -0.741  -2.627  -2.216  0.00  0.00    -0.252 OA
ATOM     24  N   UNL     1      -0.633  -2.352   0.019  0.00  0.00    -0.215 N 
ATOM     25  C   UNL     1      -0.394  -3.102   1.114  0.00  0.00    +0.247 C 
ATOM     26  O   UNL     1      -0.393  -2.734   2.269  0.00  0.00    -0.273 OA
ATOM     27  C   UNL     1      -0.125  -4.497   0.598  0.00  0.00    +0.115 C 
ATOM     28  C   UNL     1      -1.161  -5.474   1.143  0.00  0.00    +0.035 C 
ATOM     29  C   UNL     1      -0.889  -6.874   0.586  0.00  0.00    +0.003 C 
ATOM     30  C   UNL     1       0.518  -7.318   0.992  0.00  0.00    +0.000 C 
ATOM     31  C   UNL     1       1.547  -6.342   0.417  0.00  0.00    +0.003 C 
ATOM     32  C   UNL     1       1.285  -4.940   0.973  0.00  0.00    +0.035 C 
ENDBRANCH  19  24
ENDBRANCH   1  19
TORSDOF 6
