REMARK  Name = ZINC62876312
REMARK  6 active torsions:
REMARK  status: ('A' for Active; 'I' for Inactive)
REMARK    1  A    between atoms: C_1  and  C_2
REMARK    2  A    between atoms: C_2  and  C_3
REMARK    3  A    between atoms: C_3  and  C_19
REMARK    4  A    between atoms: N_11  and  C_12
REMARK    5  A    between atoms: C_12  and  C_13
REMARK    6  A    between atoms: C_16  and  C_18
REMARK                            x       y       z     vdW  Elec       q    Type
REMARK                         _______ _______ _______ _____ _____    ______ ____
ROOT
ATOM      1  C   UNL     1      -1.429  -0.532   0.013  0.00  0.00    +0.087 C 
ATOM      2  C   UNL     1      -1.409  -2.063   0.002  0.00  0.00    +0.021 C 
ATOM      3  C   UNL     1      -0.665  -2.555  -1.242  0.00  0.00    +0.020 C 
ATOM      4  C   UNL     1      -1.399  -2.071  -2.496  0.00  0.00    +0.109 C 
ATOM      5  N   UNL     1      -1.551  -0.612  -2.422  0.00  0.00    -0.285 N 
ATOM      6  C   UNL     1      -2.172  -0.026  -1.227  0.00  0.00    +0.127 C 
ATOM      7  C   UNL     1      -1.128   0.175  -3.432  0.00  0.00    +0.303 C 
ATOM      8  O   UNL     1      -1.342   1.371  -3.401  0.00  0.00    -0.253 OA
ATOM      9  N   UNL     1      -0.468  -0.365  -4.476  0.00  0.00    -0.295 N 
ATOM     10  H   UNL     1      -0.362  -1.327  -4.537  0.00  0.00    +0.151 HD
ENDROOT
BRANCH   1  11
ATOM     11  C   UNL     1      -2.134  -0.048   1.254  0.00  0.00    +0.364 C 
ATOM     12  O   UNL     1      -2.260   1.148   1.456  0.00  0.00    -0.246 OA
ATOM     13  O   UNL     1      -2.577  -0.852   2.057  0.00  0.00    -0.246 OA
ENDBRANCH   1  11
BRANCH   1  15
ATOM     14  C   UNL     1      -0.015   1.527   0.009  0.00  0.00    +0.005 C 
ATOM     15  C   UNL     1       0.006  -0.003   0.001  0.00  0.00    +0.016 C 
ENDBRANCH   1  15
BRANCH   9  16
ATOM     16  C   UNL     1       0.088   0.501  -5.518  0.00  0.00    +0.148 C 
BRANCH  16  17
ATOM     17  C   UNL     1       0.771  -0.344  -6.562  0.00  0.00    +0.007 A 
ATOM     18  C   UNL     1       0.255  -0.883  -7.694  0.00  0.00    +0.013 A 
ATOM     19  C   UNL     1       1.078  -1.632  -8.514  0.00  0.00    +0.011 A 
ATOM     20  C   UNL     1       2.375  -1.805  -8.163  0.00  0.00    -0.013 A 
ATOM     21  S   UNL     1       2.470  -0.888  -6.635  0.00  0.00    -0.097 S 
ATOM     22  C   UNL     1       3.459  -2.569  -8.880  0.00  0.00    +0.051 C 
ENDBRANCH  16  17
ENDBRANCH   9  16
TORSDOF 4
