REMARK  Name = ZINC35311178
REMARK  10 active torsions:
REMARK  status: ('A' for Active; 'I' for Inactive)
REMARK    1  A    between atoms: C_1  and  C_2
REMARK    2  A    between atoms: C_2  and  O_3
REMARK    3  A    between atoms: O_3  and  C_4
REMARK    4  A    between atoms: C_4  and  C_5
REMARK    5  A    between atoms: C_5  and  C_6
REMARK    6  A    between atoms: C_6  and  N_7
REMARK    7  A    between atoms: C_8  and  C_29
REMARK    8  A    between atoms: C_16  and  C_22
REMARK    9  A    between atoms: C_25  and  C_28
REMARK   10  A    between atoms: N_31  and  C_32
REMARK                            x       y       z     vdW  Elec       q    Type
REMARK                         _______ _______ _______ _____ _____    ______ ____
ROOT
ATOM      1  N   UNL     1       2.964  -3.365  -3.751  0.00  0.00    -0.286 N 
ATOM      2  C   UNL     1       2.062  -3.594  -4.923  0.00  0.00    +0.198 C 
ATOM      3  C   UNL     1       2.727  -4.749  -5.604  0.00  0.00    +0.127 C 
ATOM      4  C   UNL     1       2.579  -6.051  -4.837  0.00  0.00    +0.009 C 
ATOM      5  C   UNL     1       3.204  -6.968  -5.561  0.00  0.00    +0.003 C 
ATOM      6  C   UNL     1       3.792  -6.200  -6.752  0.00  0.00    +0.150 C 
ATOM      7  O   UNL     1       2.763  -5.144  -6.955  0.00  0.00    -0.358 OA
ATOM      8  C   UNL     1       4.981  -5.408  -6.083  0.00  0.00    +0.067 C 
ATOM      9  C   UNL     1       4.218  -4.242  -5.454  0.00  0.00    +0.123 C 
ATOM     10  C   UNL     1       4.221  -3.842  -4.036  0.00  0.00    +0.223 C 
ATOM     11  O   UNL     1       5.155  -3.922  -3.266  0.00  0.00    -0.275 OA
ENDROOT
BRANCH   8  12
ATOM     12  C   UNL     1       5.673  -6.249  -5.042  0.00  0.00    -0.041 A 
ATOM     13  C   UNL     1       5.101  -6.415  -3.794  0.00  0.00    +0.004 A 
ATOM     14  C   UNL     1       5.737  -7.187  -2.840  0.00  0.00    +0.003 A 
ATOM     15  C   UNL     1       6.944  -7.793  -3.133  0.00  0.00    -0.050 A 
ATOM     16  C   UNL     1       7.515  -7.628  -4.381  0.00  0.00    +0.003 A 
ATOM     17  C   UNL     1       6.878  -6.860  -5.337  0.00  0.00    +0.004 A 
ATOM     18  C   UNL     1       7.637  -8.634  -2.092  0.00  0.00    +0.044 C 
ENDBRANCH   8  12
BRANCH   2  19
ATOM     19  C   UNL     1       2.027  -2.385  -5.821  0.00  0.00    +0.237 C 
ATOM     20  O   UNL     1       2.905  -1.551  -5.750  0.00  0.00    -0.274 OA
ATOM     21  N   UNL     1       1.021  -2.229  -6.704  0.00  0.00    -0.311 N 
ATOM     22  H   UNL     1       0.319  -2.896  -6.761  0.00  0.00    +0.149 HD
BRANCH  21  23
ATOM     23  C   UNL     1       0.987  -1.054  -7.577  0.00  0.00    +0.073 C 
ATOM     24  C   UNL     1       0.258   0.108  -6.872  0.00  0.00    +0.022 C 
ATOM     25  C   UNL     1      -0.531   0.806  -8.008  0.00  0.00    +0.002 C 
ATOM     26  C   UNL     1      -1.004  -0.385  -8.878  0.00  0.00    +0.002 C 
ATOM     27  C   UNL     1       0.185  -1.367  -8.853  0.00  0.00    +0.022 C 
ENDBRANCH  21  23
ENDBRANCH   2  19
BRANCH   1  28
ATOM     28  C   UNL     1       2.570  -2.723  -2.494  0.00  0.00    +0.111 C 
BRANCH  28  29
ATOM     29  C   UNL     1       2.799  -1.214  -2.598  0.00  0.00    +0.047 C 
BRANCH  29  30
ATOM     30  C   UNL     1       2.388  -0.544  -1.286  0.00  0.00    +0.161 C 
BRANCH  30  31
ATOM     31  O   UNL     1       2.602   0.866  -1.383  0.00  0.00    -0.380 OA
BRANCH  31  33
ATOM     32  C   UNL     1       2.516   3.080  -0.420  0.00  0.00    +0.034 C 
ATOM     33  C   UNL     1       2.247   1.590  -0.203  0.00  0.00    +0.156 C 
ENDBRANCH  31  33
ENDBRANCH  30  31
ENDBRANCH  29  30
ENDBRANCH  28  29
ENDBRANCH   1  28
TORSDOF 8
