REMARK  Name = ZINC61114486
REMARK  6 active torsions:
REMARK  status: ('A' for Active; 'I' for Inactive)
REMARK    1  A    between atoms: C_1  and  C_2
REMARK    2  A    between atoms: C_2  and  C_3
REMARK    3  A    between atoms: C_2  and  C_4
REMARK    4  A    between atoms: C_2  and  C_10
REMARK    5  A    between atoms: N_12  and  C_13
REMARK    6  A    between atoms: C_18  and  N_19
REMARK                            x       y       z     vdW  Elec       q    Type
REMARK                         _______ _______ _______ _____ _____    ______ ____
ROOT
ATOM      1  C   UNL     1       0.714  -0.503  -1.318  0.00  0.00    +0.227 C 
ATOM      2  O   UNL     1       0.099  -1.136  -2.150  0.00  0.00    -0.275 OA
ATOM      3  N   UNL     1       2.028  -0.257  -1.494  0.00  0.00    -0.283 N 
ATOM      4  H   UNL     1       2.538   0.177  -0.792  0.00  0.00    +0.155 HD
ENDROOT
BRANCH   3   5
ATOM      5  C   UNL     1       2.656  -0.629  -2.688  0.00  0.00    +0.064 A 
ATOM      6  C   UNL     1       1.914  -0.752  -3.855  0.00  0.00    +0.028 A 
ATOM      7  C   UNL     1       2.535  -1.119  -5.033  0.00  0.00    +0.040 A 
ATOM      8  C   UNL     1       3.898  -1.365  -5.050  0.00  0.00    +0.126 A 
ATOM      9  C   UNL     1       4.640  -1.243  -3.887  0.00  0.00    +0.073 A 
ATOM     10  C   UNL     1       4.023  -0.870  -2.709  0.00  0.00    +0.150 A 
ATOM     11  F   UNL     1       4.505  -1.725  -6.202  0.00  0.00    -0.205 F 
BRANCH  10  12
ATOM     12  N   UNL     1       4.818  -0.734  -1.468  0.00  0.00    +0.058 N 
ATOM     13  O   UNL     1       6.021  -0.849  -1.504  0.00  0.00    -0.126 OA
ATOM     14  O   UNL     1       4.265  -0.507  -0.417  0.00  0.00    -0.126 OA
ENDBRANCH  10  12
ENDBRANCH   3   5
BRANCH   1  16
ATOM     15  C   UNL     1       0.003   1.538  -0.103  0.00  0.00    +0.025 C 
ATOM     16  C   UNL     1       0.010   0.008  -0.088  0.00  0.00    +0.066 C 
ATOM     17  C   UNL     1       0.742  -0.487   1.161  0.00  0.00    +0.025 C 
BRANCH  16  18
ATOM     18  C   UNL     1      -1.409  -0.501  -0.073  0.00  0.00    -0.033 A 
ATOM     19  C   UNL     1      -1.822  -1.368   0.921  0.00  0.00    +0.004 A 
ATOM     20  C   UNL     1      -3.123  -1.835   0.934  0.00  0.00    +0.000 A 
ATOM     21  C   UNL     1      -4.011  -1.434  -0.047  0.00  0.00    +0.000 A 
ATOM     22  C   UNL     1      -3.598  -0.566  -1.040  0.00  0.00    +0.000 A 
ATOM     23  C   UNL     1      -2.298  -0.096  -1.051  0.00  0.00    +0.004 A 
ENDBRANCH  16  18
ENDBRANCH   1  16
TORSDOF 4
