REMARK  Name = ZINC20894873
REMARK  6 active torsions:
REMARK  status: ('A' for Active; 'I' for Inactive)
REMARK    1  A    between atoms: C_1  and  C_2
REMARK    2  A    between atoms: C_7  and  N_8
REMARK    3  A    between atoms: C_17  and  S_18
REMARK    4  A    between atoms: S_18  and  C_19
REMARK    5  A    between atoms: C_19  and  C_21
REMARK    6  A    between atoms: C_19  and  C_22
REMARK                            x       y       z     vdW  Elec       q    Type
REMARK                         _______ _______ _______ _____ _____    ______ ____
ROOT
ATOM      1  N   UNL     1       2.357   3.889   0.001  0.00  0.00    -0.255 N 
ATOM      2  C   UNL     1       2.913   4.235  -1.175  0.00  0.00    +0.268 A 
ATOM      3  O   UNL     1       2.378   3.926  -2.226  0.00  0.00    -0.267 OA
ATOM      4  C   UNL     1       4.141   4.969  -1.174  0.00  0.00    +0.076 A 
ATOM      5  C   UNL     1       4.911   5.445  -2.329  0.00  0.00    -0.023 A 
ATOM      6  C   UNL     1       6.049   6.115  -2.065  0.00  0.00    -0.004 A 
ATOM      7  S   UNL     1       6.159   6.162  -0.294  0.00  0.00    -0.073 S 
ATOM      8  C   UNL     1       4.673   5.272   0.089  0.00  0.00    +0.117 A 
ATOM      9  N   UNL     1       4.075   4.903   1.216  0.00  0.00    -0.215 NA
ATOM     10  C   UNL     1       2.941   4.232   1.188  0.00  0.00    +0.178 A 
ATOM     11  C   UNL     1       7.025   6.691  -3.043  0.00  0.00    +0.043 C 
ATOM     12  C   UNL     1       6.265   7.514  -4.091  0.00  0.00    +0.005 C 
ATOM     13  C   UNL     1       5.882   6.591  -5.244  0.00  0.00    +0.001 C 
ATOM     14  C   UNL     1       5.605   5.184  -4.716  0.00  0.00    +0.005 C 
ATOM     15  C   UNL     1       4.423   5.197  -3.754  0.00  0.00    +0.037 C 
ENDROOT
BRANCH   1  22
ATOM     16  C   UNL     1      -0.085   5.351   0.032  0.00  0.00    +0.046 C 
ATOM     17  C   UNL     1      -0.059   3.844   0.023  0.00  0.00    -0.026 A 
ATOM     18  C   UNL     1      -1.243   3.133   0.031  0.00  0.00    +0.005 A 
ATOM     19  C   UNL     1      -1.220   1.750   0.017  0.00  0.00    +0.000 A 
ATOM     20  C   UNL     1      -0.013   1.076   0.008  0.00  0.00    +0.002 A 
ATOM     21  C   UNL     1       1.174   1.782   0.000  0.00  0.00    +0.026 A 
ATOM     22  C   UNL     1       1.155   3.170   0.008  0.00  0.00    +0.055 A 
ENDBRANCH   1  22
BRANCH  10  23
ATOM     23  S   UNL     1       2.170   3.765   2.703  0.00  0.00    -0.075 S 
BRANCH  23  24
ATOM     24  C   UNL     1       3.350   4.463   3.884  0.00  0.00    +0.137 C 
ATOM     25  C   UNL     1       3.353   5.988   3.761  0.00  0.00    +0.029 C 
BRANCH  24  26
ATOM     26  C   UNL     1       2.950   4.073   5.284  0.00  0.00    +0.233 C 
ATOM     27  O   UNL     1       1.813   3.719   5.513  0.00  0.00    -0.274 OA
ATOM     28  N   UNL     1       3.855   4.119   6.281  0.00  0.00    -0.239 N 
ATOM     29  C   UNL     1       3.497   3.770   7.533  0.00  0.00    +0.303 C 
ATOM     30  O   UNL     1       2.358   3.414   7.762  0.00  0.00    -0.253 OA
ATOM     31  N   UNL     1       4.403   3.815   8.530  0.00  0.00    -0.313 N 
ATOM     32  H   UNL     1       4.886   4.440   6.073  0.00  0.00    +0.159 HD
ATOM     33  H   UNL     1       4.111   3.530   9.552  0.00  0.00    +0.146 HD
ATOM     34  H   UNL     1       5.434   4.137   8.322  0.00  0.00    +0.146 HD
ENDBRANCH  24  26
ENDBRANCH  23  24
ENDBRANCH  10  23
TORSDOF 4
