REMARK  Name = ZINC22619766
REMARK  13 active torsions:
REMARK  status: ('A' for Active; 'I' for Inactive)
REMARK    1  A    between atoms: C_1  and  C_2
REMARK    2  A    between atoms: C_3  and  C_34
REMARK    3  A    between atoms: C_11  and  C_13
REMARK    4  A    between atoms: C_13  and  S_14
REMARK    5  A    between atoms: S_14  and  C_15
REMARK    6  A    between atoms: C_15  and  C_17
REMARK    7  A    between atoms: C_15  and  C_18
REMARK    8  A    between atoms: N_20  and  C_21
REMARK    9  A    between atoms: C_21  and  C_22
REMARK   10  A    between atoms: C_22  and  C_24
REMARK   11  A    between atoms: C_22  and  N_31
REMARK   12  A    between atoms: N_31  and  C_32
REMARK   13  A    between atoms: N_31  and  C_33
REMARK                            x       y       z     vdW  Elec       q    Type
REMARK                         _______ _______ _______ _____ _____    ______ ____
ROOT
ATOM      1  C   UNL     1      -0.453  -6.337   5.056  0.00  0.00    +0.129 C 
ATOM      2  C   UNL     1       0.805  -5.854   5.781  0.00  0.00    +0.029 C 
ENDROOT
BRANCH   1   3
ATOM      3  C   UNL     1      -0.367  -7.825   4.836  0.00  0.00    +0.226 C 
ATOM      4  O   UNL     1       0.054  -8.259   3.785  0.00  0.00    -0.275 OA
ATOM      5  N   UNL     1      -0.758  -8.674   5.807  0.00  0.00    -0.316 N 
ATOM      6  H   UNL     1      -1.095  -8.327   6.648  0.00  0.00    +0.149 HD
BRANCH   5   7
ATOM      7  C   UNL     1      -0.674 -10.120   5.593  0.00  0.00    +0.093 C 
BRANCH   7   8
ATOM      8  C   UNL     1      -1.054 -10.850   6.883  0.00  0.00    -0.020 C 
BRANCH   8   9
ATOM      9  C   UNL     1      -2.505 -10.591   7.197  0.00  0.00    -0.041 A 
ATOM     10  C   UNL     1      -2.854  -9.567   8.057  0.00  0.00    +0.003 A 
ATOM     11  C   UNL     1      -4.185  -9.330   8.346  0.00  0.00    +0.000 A 
ATOM     12  C   UNL     1      -5.167 -10.117   7.775  0.00  0.00    +0.001 A 
ATOM     13  C   UNL     1      -4.820 -11.141   6.915  0.00  0.00    +0.020 A 
ATOM     14  C   UNL     1      -3.488 -11.376   6.621  0.00  0.00    +0.043 A 
ATOM     15 CL   UNL     1      -3.051 -12.658   5.536  0.00  0.00    -0.083 Cl
ENDBRANCH   8   9
BRANCH   8  16
ATOM     16  N   UNL     1      -0.218 -10.359   7.987  0.00  0.00    +0.382 N 
ATOM     17  C   UNL     1      -0.553 -11.091   9.216  0.00  0.00    -0.096 C 
ATOM     18  C   UNL     1       1.198 -10.572   7.661  0.00  0.00    -0.096 C 
ATOM     19  H   UNL     1      -0.388  -9.374   8.125  0.00  0.00    -0.082 HD
ENDBRANCH   8  16
ENDBRANCH   7   8
ENDBRANCH   5   7
ENDBRANCH   1   3
BRANCH   1  20
ATOM     20  S   UNL     1      -0.588  -5.495   3.455  0.00  0.00    -0.141 S 
BRANCH  20  21
ATOM     21  C   UNL     1      -0.835  -3.752   3.894  0.00  0.00    +0.144 C 
BRANCH  21  32
ATOM     22  C   UNL     1      -1.513   0.655  -1.111  0.00  0.00    +0.045 C 
ATOM     23  C   UNL     1      -1.299  -0.829  -0.970  0.00  0.00    -0.026 A 
ATOM     24  C   UNL     1      -1.192  -1.607  -2.059  0.00  0.00    -0.008 A 
ATOM     25  S   UNL     1      -0.953  -3.238  -1.379  0.00  0.00    -0.073 S 
ATOM     26  C   UNL     1      -1.004  -2.827   0.346  0.00  0.00    +0.116 A 
ATOM     27  C   UNL     1      -1.199  -1.434   0.345  0.00  0.00    +0.075 A 
ATOM     28  C   UNL     1      -1.276  -0.819   1.637  0.00  0.00    +0.260 A 
ATOM     29  O   UNL     1      -1.448   0.383   1.741  0.00  0.00    -0.267 OA
ATOM     30  N   UNL     1      -1.155  -1.590   2.734  0.00  0.00    -0.310 N 
ATOM     31  H   UNL     1      -1.206  -1.179   3.612  0.00  0.00    +0.170 HD
ATOM     32  C   UNL     1      -0.964  -2.931   2.638  0.00  0.00    +0.121 A 
ATOM     33  N   UNL     1      -0.898  -3.522   1.475  0.00  0.00    -0.226 NA
ATOM     34  C   UNL     1      -1.258  -1.200  -3.508  0.00  0.00    +0.052 C 
ENDBRANCH  21  32
ENDBRANCH  20  21
ENDBRANCH   1  20
TORSDOF 8
