REMARK  Name = ZINC40871379
REMARK  8 active torsions:
REMARK  status: ('A' for Active; 'I' for Inactive)
REMARK    1  A    between atoms: C_1  and  C_2
REMARK    2  A    between atoms: C_4  and  C_33
REMARK    3  A    between atoms: C_5  and  C_9
REMARK    4  A    between atoms: C_6  and  C_8
REMARK    5  A    between atoms: C_19  and  C_22
REMARK    6  A    between atoms: N_24  and  C_25
REMARK    7  A    between atoms: C_30  and  S_31
REMARK    8  A    between atoms: S_31  and  C_32
REMARK                            x       y       z     vdW  Elec       q    Type
REMARK                         _______ _______ _______ _____ _____    ______ ____
ROOT
ATOM      1  C   UNL     1       0.233  -4.541  -0.028  0.00  0.00    +0.077 A 
ATOM      2  C   UNL     1       0.089  -5.232   1.178  0.00  0.00    +0.048 A 
ATOM      3  C   UNL     1       0.078  -6.615   1.147  0.00  0.00    +0.116 A 
ATOM      4  N   UNL     1       0.202  -7.238  -0.014  0.00  0.00    -0.223 NA
ATOM      5  C   UNL     1       0.337  -6.556  -1.143  0.00  0.00    +0.218 A 
ATOM      6  N   UNL     1       0.348  -5.233  -1.159  0.00  0.00    -0.214 NA
ATOM      7  N   UNL     1       0.465  -7.246  -2.336  0.00  0.00    -0.299 N 
ATOM      8  C   UNL     1       0.623  -6.523  -3.605  0.00  0.00    +0.108 C 
ATOM      9  C   UNL     1       1.873  -7.047  -4.319  0.00  0.00    +0.020 C 
ATOM     10  C   UNL     1       1.771  -8.566  -4.469  0.00  0.00    +0.016 C 
ATOM     11  C   UNL     1       1.698  -9.214  -3.085  0.00  0.00    +0.093 C 
ATOM     12  C   UNL     1       0.452  -8.715  -2.356  0.00  0.00    +0.120 C 
ENDROOT
BRANCH   1  17
ATOM     13  C   UNL     1       0.305   1.217  -0.105  0.00  0.00    +0.044 C 
ATOM     14  C   UNL     1       0.286  -0.290  -0.085  0.00  0.00    -0.050 A 
ATOM     15  C   UNL     1       1.137  -0.978   0.760  0.00  0.00    +0.007 A 
ATOM     16  C   UNL     1       1.124  -2.358   0.783  0.00  0.00    -0.041 A 
ATOM     17  C   UNL     1       0.251  -3.058  -0.047  0.00  0.00    +0.006 A 
ATOM     18  C   UNL     1      -0.604  -2.359  -0.897  0.00  0.00    -0.041 A 
ATOM     19  C   UNL     1      -0.586  -0.979  -0.908  0.00  0.00    +0.007 A 
ATOM     20  C   UNL     1      -1.551  -3.109  -1.799  0.00  0.00    +0.044 C 
ATOM     21  C   UNL     1       2.053  -3.106   1.705  0.00  0.00    +0.044 C 
ENDBRANCH   1  17
BRANCH  11  22
ATOM     22  C   UNL     1       1.631 -10.712  -3.233  0.00  0.00    +0.222 C 
ATOM     23  O   UNL     1       1.641 -11.213  -4.338  0.00  0.00    -0.275 OA
ATOM     24  N   UNL     1       1.561 -11.496  -2.139  0.00  0.00    -0.284 N 
ATOM     25  H   UNL     1       1.609 -11.099  -1.255  0.00  0.00    +0.155 HD
BRANCH  24  26
ATOM     26  C   UNL     1       1.419 -12.883  -2.277  0.00  0.00    +0.047 A 
ATOM     27  C   UNL     1       2.021 -13.541  -3.339  0.00  0.00    +0.024 A 
ATOM     28  C   UNL     1       1.879 -14.909  -3.474  0.00  0.00    +0.002 A 
ATOM     29  C   UNL     1       1.137 -15.627  -2.553  0.00  0.00    +0.001 A 
ATOM     30  C   UNL     1       0.533 -14.979  -1.492  0.00  0.00    +0.016 A 
ATOM     31  C   UNL     1       0.675 -13.607  -1.345  0.00  0.00    +0.029 A 
BRANCH  31  32
ATOM     32  S   UNL     1      -0.088 -12.780   0.011  0.00  0.00    -0.127 S 
ATOM     33  C   UNL     1      -0.920 -14.108   0.923  0.00  0.00    +0.090 C 
ENDBRANCH  31  32
ENDBRANCH  24  26
ENDBRANCH  11  22
TORSDOF 4
