REMARK  Name = ZINC02568557
REMARK  8 active torsions:
REMARK  status: ('A' for Active; 'I' for Inactive)
REMARK    1  A    between atoms: C_1  and  C_2
REMARK    2  A    between atoms: C_9  and  C_16
REMARK    3  A    between atoms: C_11  and  C_12
REMARK    4  A    between atoms: N_14  and  N_15
REMARK    5  A    between atoms: C_19  and  C_22
REMARK    6  A    between atoms: C_22  and  C_23
REMARK    7  A    between atoms: C_23  and  C_24
REMARK    8  A    between atoms: C_23  and  C_25
REMARK                            x       y       z     vdW  Elec       q    Type
REMARK                         _______ _______ _______ _____ _____    ______ ____
ROOT
ATOM      1  C   UNL     1      -5.664   0.420   6.257  0.00  0.00    +0.047 C 
ATOM      2  C   UNL     1      -5.319   1.730   6.918  0.00  0.00    -0.006 A 
ATOM      3  C   UNL     1      -5.975   2.121   8.046  0.00  0.00    +0.046 A 
ATOM      4  C   UNL     1      -5.672   3.328   8.673  0.00  0.00    +0.021 A 
ATOM      5  C   UNL     1      -4.707   4.152   8.173  0.00  0.00    +0.012 A 
ATOM      6  C   UNL     1      -4.013   3.781   7.016  0.00  0.00    +0.013 A 
ATOM      7  C   UNL     1      -4.317   2.554   6.373  0.00  0.00    +0.077 A 
ATOM      8  N   UNL     1      -3.661   2.200   5.267  0.00  0.00    -0.246 NA
ATOM      9  C   UNL     1      -2.717   2.949   4.739  0.00  0.00    +0.072 A 
ATOM     10  C   UNL     1      -2.338   4.180   5.294  0.00  0.00    +0.042 A 
ATOM     11  C   UNL     1      -2.970   4.633   6.444  0.00  0.00    +0.049 A 
ATOM     12 CL   UNL     1      -7.210   1.099   8.713  0.00  0.00    -0.083 Cl
ENDROOT
BRANCH   9  13
ATOM     13  C   UNL     1      -2.033   2.478   3.510  0.00  0.00    +0.000 A 
ATOM     14  C   UNL     1      -2.389   1.259   2.935  0.00  0.00    +0.010 A 
ATOM     15  C   UNL     1      -1.750   0.826   1.791  0.00  0.00    +0.004 A 
ATOM     16  C   UNL     1      -0.758   1.599   1.215  0.00  0.00    -0.047 A 
ATOM     17  C   UNL     1      -0.397   2.807   1.784  0.00  0.00    +0.004 A 
ATOM     18  C   UNL     1      -1.033   3.253   2.925  0.00  0.00    +0.010 A 
BRANCH  16  19
ATOM     19  C   UNL     1      -0.063   1.120  -0.034  0.00  0.00    +0.038 C 
BRANCH  19  20
ATOM     20  C   UNL     1      -0.819   1.627  -1.264  0.00  0.00    -0.013 C 
ATOM     21  C   UNL     1      -0.047   1.247  -2.529  0.00  0.00    +0.007 C 
ATOM     22  C   UNL     1      -2.210   0.991  -1.305  0.00  0.00    +0.007 C 
ENDBRANCH  19  20
ENDBRANCH  16  19
ENDBRANCH   9  13
BRANCH  11  23
ATOM     23  C   UNL     1      -2.605   5.924   7.065  0.00  0.00    +0.258 C 
ATOM     24  O   UNL     1      -3.243   6.346   8.010  0.00  0.00    -0.269 OA
ATOM     25  N   UNL     1      -1.565   6.633   6.584  0.00  0.00    -0.250 N 
ATOM     26  H   UNL     1      -1.056   6.297   5.830  0.00  0.00    +0.169 HD
BRANCH  25  27
ATOM     27  N   UNL     1      -1.227   7.826   7.158  0.00  0.00    -0.254 NA
ATOM     28  H   UNL     1      -0.433   8.239   6.693  0.00  0.00    +0.140 HD
ATOM     29  H   UNL     1      -2.013   8.460   7.163  0.00  0.00    +0.140 HD
ENDBRANCH  25  27
ENDBRANCH  11  23
TORSDOF 5
