REMARK  Name = ZINC09789663
REMARK  7 active torsions:
REMARK  status: ('A' for Active; 'I' for Inactive)
REMARK    1  A    between atoms: C_6  and  S_11
REMARK    2  A    between atoms: S_11  and  N_14
REMARK    3  A    between atoms: C_17  and  C_20
REMARK    4  A    between atoms: N_22  and  C_23
REMARK    5  A    between atoms: C_23  and  C_24
REMARK    6  A    between atoms: C_24  and  C_26
REMARK    7  A    between atoms: C_24  and  N_65
REMARK                            x       y       z     vdW  Elec       q    Type
REMARK                         _______ _______ _______ _____ _____    ______ ____
ROOT
ATOM      1  N   UNL     1      -1.181   2.192  -0.677  0.00  0.00    -0.177 NA
ATOM      2  C   UNL     1      -2.054   1.245  -1.385  0.00  0.00    +0.110 C 
ATOM      3  C   UNL     1      -3.425   1.906  -1.593  0.00  0.00    +0.030 C 
ATOM      4  C   UNL     1      -3.236   3.244  -2.311  0.00  0.00    +0.077 C 
ATOM      5  C   UNL     1      -2.380   4.173  -1.446  0.00  0.00    +0.030 C 
ATOM      6  C   UNL     1      -1.002   3.539  -1.234  0.00  0.00    +0.110 C 
ENDROOT
BRANCH   4   7
ATOM      7  C   UNL     1      -4.582   3.880  -2.550  0.00  0.00    +0.216 C 
ATOM      8  O   UNL     1      -4.831   4.968  -2.076  0.00  0.00    -0.276 OA
ATOM      9  N   UNL     1      -5.508   3.239  -3.291  0.00  0.00    -0.316 N 
ATOM     10  H   UNL     1      -5.308   2.369  -3.670  0.00  0.00    +0.149 HD
BRANCH   9  11
ATOM     11  C   UNL     1      -6.816   3.857  -3.523  0.00  0.00    +0.096 C 
BRANCH  11  12
ATOM     12  C   UNL     1      -7.672   2.929  -4.387  0.00  0.00    +0.016 C 
BRANCH  12  17
ATOM     13  C   UNL     1      -8.181   1.721  -2.335  0.00  0.00    -0.078 C 
ATOM     14  C   UNL     1      -8.711   0.302  -2.009  0.00  0.00    -0.020 C 
ATOM     15  C   UNL     1      -9.408  -0.118  -3.323  0.00  0.00    -0.020 C 
ATOM     16  C   UNL     1      -8.772   0.762  -4.415  0.00  0.00    -0.078 C 
ATOM     17  N   UNL     1      -7.766   1.585  -3.740  0.00  0.00    +0.387 N 
ATOM     18  H   UNL     1      -6.851   1.123  -3.789  0.00  0.00    -0.081 HD
ENDBRANCH  12  17
BRANCH  12  19
ATOM     19  C   UNL     1      -9.057   3.506  -4.524  0.00  0.00    +0.093 A 
ATOM     20  C   UNL     1      -9.562   4.084  -5.628  0.00  0.00    +0.043 A 
ATOM     21  C   UNL     1     -10.883   4.480  -5.316  0.00  0.00    +0.041 A 
ATOM     22  C   UNL     1     -11.106   4.120  -4.039  0.00  0.00    +0.195 A 
ATOM     23  O   UNL     1      -9.998   3.525  -3.567  0.00  0.00    -0.469 OA
ENDBRANCH  12  19
ENDBRANCH  11  12
ENDBRANCH   9  11
ENDBRANCH   4   7
BRANCH   1  24
ATOM     24  S   UNL     1      -0.409   1.746   0.718  0.00  0.00    +0.061 S 
ATOM     25  O   UNL     1      -0.311   0.329   0.693  0.00  0.00    -0.153 OA
ATOM     26  O   UNL     1       0.730   2.586   0.838  0.00  0.00    -0.153 OA
BRANCH  24  32
ATOM     27  C   UNL     1      -4.898   2.236   5.681  0.00  0.00    +0.001 A 
ATOM     28  C   UNL     1      -4.989   0.978   5.088  0.00  0.00    +0.001 A 
ATOM     29  C   UNL     1      -4.178   0.632   4.051  0.00  0.00    +0.008 A 
ATOM     30  C   UNL     1      -3.235   1.555   3.568  0.00  0.00    -0.016 A 
ATOM     31  C   UNL     1      -2.381   1.234   2.499  0.00  0.00    +0.037 A 
ATOM     32  C   UNL     1      -1.478   2.153   2.058  0.00  0.00    +0.106 A 
ATOM     33  C   UNL     1      -1.384   3.409   2.655  0.00  0.00    +0.029 A 
ATOM     34  C   UNL     1      -2.199   3.757   3.688  0.00  0.00    +0.010 A 
ATOM     35  C   UNL     1      -3.142   2.834   4.171  0.00  0.00    -0.018 A 
ATOM     36  C   UNL     1      -3.996   3.155   5.240  0.00  0.00    +0.008 A 
ENDBRANCH  24  32
ENDBRANCH   1  24
TORSDOF 7
