REMARK  Name = ZINC04187547
REMARK  7 active torsions:
REMARK  status: ('A' for Active; 'I' for Inactive)
REMARK    1  A    between atoms: C_4  and  N_7
REMARK    2  A    between atoms: N_9  and  C_28
REMARK    3  A    between atoms: N_15  and  S_18
REMARK    4  A    between atoms: S_18  and  C_21
REMARK    5  A    between atoms: C_28  and  C_29
REMARK    6  A    between atoms: N_31  and  C_32
REMARK    7  A    between atoms: C_32  and  C_33
REMARK                            x       y       z     vdW  Elec       q    Type
REMARK                         _______ _______ _______ _____ _____    ______ ____
ROOT
ATOM      1  N   UNL     1      -3.800  -0.787  -0.739  0.00  0.00    -0.300 N 
ATOM      2  C   UNL     1      -3.168   0.518  -1.051  0.00  0.00    +0.217 C 
ATOM      3  N   UNL     1      -2.537   0.973   0.195  0.00  0.00    -0.275 N 
ATOM      4  C   UNL     1      -3.059   0.296   1.239  0.00  0.00    +0.241 C 
ATOM      5  O   UNL     1      -2.761   0.449   2.405  0.00  0.00    -0.273 OA
ATOM      6  C   UNL     1      -4.077  -0.684   0.710  0.00  0.00    +0.115 C 
ATOM      7  C   UNL     1      -5.491  -0.156   0.935  0.00  0.00    +0.052 C 
ATOM      8  C   UNL     1      -5.745  -0.007   2.439  0.00  0.00    +0.112 C 
ATOM      9  N   UNL     1      -5.455  -1.289   3.096  0.00  0.00    -0.176 NA
ATOM     10  C   UNL     1      -4.141  -1.912   2.882  0.00  0.00    +0.112 C 
ATOM     11  C   UNL     1      -3.900  -2.046   1.374  0.00  0.00    +0.052 C 
ENDROOT
BRANCH   1  15
ATOM     12  C   UNL     1      -7.323  -1.284  -2.901  0.00  0.00    +0.000 A 
ATOM     13  C   UNL     1      -6.488  -0.217  -3.179  0.00  0.00    +0.002 A 
ATOM     14  C   UNL     1      -5.319  -0.049  -2.463  0.00  0.00    +0.023 A 
ATOM     15  C   UNL     1      -4.982  -0.954  -1.464  0.00  0.00    +0.032 A 
ATOM     16  C   UNL     1      -5.821  -2.027  -1.191  0.00  0.00    +0.023 A 
ATOM     17  C   UNL     1      -6.991  -2.186  -1.907  0.00  0.00    +0.002 A 
ENDBRANCH   1  15
BRANCH   9  18
ATOM     18  S   UNL     1      -6.586  -2.018   4.060  0.00  0.00    +0.061 S 
ATOM     19  O   UNL     1      -7.853  -1.528   3.641  0.00  0.00    -0.153 OA
ATOM     20  O   UNL     1      -6.273  -3.404   4.078  0.00  0.00    -0.153 OA
BRANCH  18  21
ATOM     21  C   UNL     1      -6.334  -1.424   5.700  0.00  0.00    +0.106 A 
ATOM     22  C   UNL     1      -5.480  -2.096   6.554  0.00  0.00    +0.031 A 
ATOM     23  C   UNL     1      -5.277  -1.629   7.839  0.00  0.00    +0.040 A 
ATOM     24  C   UNL     1      -5.938  -0.492   8.273  0.00  0.00    +0.124 A 
ATOM     25  C   UNL     1      -6.798   0.177   7.419  0.00  0.00    +0.040 A 
ATOM     26  C   UNL     1      -6.994  -0.289   6.133  0.00  0.00    +0.031 A 
ATOM     27  F   UNL     1      -5.745  -0.037   9.530  0.00  0.00    -0.205 F 
ENDBRANCH  18  21
ENDBRANCH   9  18
BRANCH   3  28
ATOM     28  C   UNL     1      -1.505   2.008   0.290  0.00  0.00    +0.205 C 
BRANCH  28  29
ATOM     29  C   UNL     1      -0.143   1.370   0.182  0.00  0.00    +0.231 C 
ATOM     30  O   UNL     1      -0.045   0.170   0.040  0.00  0.00    -0.274 OA
ATOM     31  N   UNL     1       0.965   2.135   0.238  0.00  0.00    -0.312 N 
ATOM     32  H   UNL     1       0.887   3.095   0.351  0.00  0.00    +0.149 HD
BRANCH  31  33
ATOM     33  C   UNL     1       2.288   1.516   0.127  0.00  0.00    +0.135 C 
BRANCH  33  34
ATOM     34  C   UNL     1       3.367   2.597   0.221  0.00  0.00    +0.135 C 
ATOM     35  C   UNL     1       4.764   1.985  -0.019  0.00  0.00    +0.035 C 
ATOM     36  C   UNL     1       5.683   2.753   0.958  0.00  0.00    +0.031 C 
ATOM     37  C   UNL     1       4.732   3.738   1.671  0.00  0.00    +0.160 C 
ATOM     38  O   UNL     1       3.424   3.135   1.560  0.00  0.00    -0.375 OA
ENDBRANCH  33  34
ENDBRANCH  31  33
ENDBRANCH  28  29
ENDBRANCH   3  28
TORSDOF 7
