REMARK  Name = ZINC19461174
REMARK  5 active torsions:
REMARK  status: ('A' for Active; 'I' for Inactive)
REMARK    1  A    between atoms: C_1  and  C_2
REMARK    2  A    between atoms: C_2  and  N_6
REMARK    3  A    between atoms: C_7  and  C_9
REMARK    4  A    between atoms: C_11  and  C_19
REMARK    5  A    between atoms: N_23  and  C_24
REMARK                            x       y       z     vdW  Elec       q    Type
REMARK                         _______ _______ _______ _____ _____    ______ ____
ROOT
ATOM      1  C   UNL     1      -3.667   0.577  -1.824  0.00  0.00    +0.048 A 
ATOM      2  C   UNL     1      -2.701   0.854  -0.869  0.00  0.00    +0.043 A 
ATOM      3  C   UNL     1      -3.078   1.475   0.334  0.00  0.00    +0.090 A 
ATOM      4  N   UNL     1      -4.325   1.817   0.588  0.00  0.00    -0.245 NA
ATOM      5  C   UNL     1      -5.316   1.593  -0.277  0.00  0.00    +0.072 A 
ATOM      6  C   UNL     1      -5.045   0.966  -1.519  0.00  0.00    +0.013 A 
ATOM      7  C   UNL     1      -6.087   0.734  -2.423  0.00  0.00    +0.011 A 
ATOM      8  C   UNL     1      -7.356   1.113  -2.100  0.00  0.00    +0.001 A 
ATOM      9  C   UNL     1      -7.628   1.729  -0.880  0.00  0.00    +0.002 A 
ATOM     10  C   UNL     1      -6.638   1.970   0.022  0.00  0.00    +0.028 A 
ENDROOT
BRANCH   3  11
ATOM     11  C   UNL     1      -2.039   1.760   1.346  0.00  0.00    +0.087 A 
ATOM     12  C   UNL     1      -0.692   1.575   1.199  0.00  0.00    +0.051 A 
ATOM     13  C   UNL     1      -0.076   1.961   2.389  0.00  0.00    +0.135 A 
ATOM     14  N   UNL     1      -0.998   2.368   3.225  0.00  0.00    -0.179 NA
ATOM     15  N   UNL     1      -2.246   2.258   2.599  0.00  0.00    -0.265 N 
ATOM     16  C   UNL     1      -3.542   2.608   3.186  0.00  0.00    +0.173 C 
ENDBRANCH   3  11
BRANCH   1  18
ATOM     17  N   UNL     1      -2.066  -0.530  -3.309  0.00  0.00    -0.306 N 
ATOM     18  C   UNL     1      -3.319  -0.081  -3.102  0.00  0.00    +0.245 C 
ATOM     19  O   UNL     1      -4.163  -0.215  -3.966  0.00  0.00    -0.270 OA
ATOM     20  H   UNL     1      -1.302  -0.409  -2.527  0.00  0.00    +0.150 HD
BRANCH  17  22
ATOM     21  C   UNL     1      -2.182  -0.385  -5.798  0.00  0.00    +0.031 C 
ATOM     22  C   UNL     1      -1.721  -1.181  -4.576  0.00  0.00    +0.032 C 
ATOM     23  C   UNL     1      -2.103  -2.670  -4.628  0.00  0.00    +0.025 C 
ATOM     24  C   UNL     1      -0.768  -2.907  -5.352  0.00  0.00    +0.004 C 
ATOM     25  C   UNL     1      -0.254  -1.637  -4.654  0.00  0.00    +0.025 C 
ENDBRANCH  17  22
ENDBRANCH   1  18
TORSDOF 3
