REMARK  Name = ZINC14017982
REMARK  5 active torsions:
REMARK  status: ('A' for Active; 'I' for Inactive)
REMARK    1  A    between atoms: C_1  and  C_2
REMARK    2  A    between atoms: C_5  and  C_31
REMARK    3  A    between atoms: C_12  and  C_14
REMARK    4  A    between atoms: N_19  and  S_21
REMARK    5  A    between atoms: S_21  and  C_24
REMARK                            x       y       z     vdW  Elec       q    Type
REMARK                         _______ _______ _______ _____ _____    ______ ____
ROOT
ATOM      1  C   UNL     1      -7.945   2.085  -0.859  0.00  0.00    +0.091 C 
ATOM      2  C   UNL     1      -8.393   3.535  -0.663  0.00  0.00    +0.015 C 
ATOM      3  C   UNL     1      -9.884   3.658  -0.985  0.00  0.00    +0.018 C 
ATOM      4  C   UNL     1     -10.120   3.273  -2.449  0.00  0.00    +0.109 C 
ATOM      5  N   UNL     1      -9.560   1.935  -2.682  0.00  0.00    -0.176 NA
ATOM      6  C   UNL     1      -8.158   1.683  -2.322  0.00  0.00    +0.122 C 
ENDROOT
BRANCH   1  18
ATOM      7  C   UNL     1      -2.708   2.955   4.785  0.00  0.00    +0.046 C 
ATOM      8  C   UNL     1      -2.025   2.469   3.533  0.00  0.00    -0.024 A 
ATOM      9  C   UNL     1      -0.671   2.255   3.539  0.00  0.00    +0.006 A 
ATOM     10  C   UNL     1      -0.003   1.807   2.408  0.00  0.00    +0.005 A 
ATOM     11  C   UNL     1      -0.718   1.572   1.248  0.00  0.00    -0.035 A 
ATOM     12  C   UNL     1      -2.073   1.789   1.231  0.00  0.00    +0.044 A 
ATOM     13  C   UNL     1      -2.788   2.239   2.365  0.00  0.00    +0.083 A 
ATOM     14  N   UNL     1      -4.118   2.398   2.193  0.00  0.00    -0.224 NA
ATOM     15  C   UNL     1      -4.716   2.149   1.052  0.00  0.00    +0.165 A 
ATOM     16  S   UNL     1      -3.358   1.621   0.016  0.00  0.00    -0.052 S 
ATOM     17  N   UNL     1      -6.059   2.265   0.731  0.00  0.00    -0.264 N 
ATOM     18  C   UNL     1      -6.484   1.959  -0.511  0.00  0.00    +0.223 C 
ATOM     19  O   UNL     1      -5.692   1.581  -1.347  0.00  0.00    -0.275 OA
ATOM     20  C   UNL     1      -0.013   1.086   0.008  0.00  0.00    +0.045 C 
ATOM     21  H   UNL     1      -6.693   2.567   1.400  0.00  0.00    +0.157 HD
ENDBRANCH   1  18
BRANCH   5  22
ATOM     22  S   UNL     1     -10.492   0.734  -3.339  0.00  0.00    +0.061 S 
ATOM     23  O   UNL     1      -9.912  -0.498  -2.932  0.00  0.00    -0.153 OA
ATOM     24  O   UNL     1     -11.844   1.069  -3.058  0.00  0.00    -0.153 OA
BRANCH  22  25
ATOM     25  C   UNL     1     -10.303   0.826  -5.088  0.00  0.00    +0.106 A 
ATOM     26  C   UNL     1     -11.162   1.611  -5.835  0.00  0.00    +0.031 A 
ATOM     27  C   UNL     1     -11.012   1.687  -7.207  0.00  0.00    +0.040 A 
ATOM     28  C   UNL     1     -10.008   0.969  -7.834  0.00  0.00    +0.124 A 
ATOM     29  C   UNL     1      -9.152   0.179  -7.086  0.00  0.00    +0.040 A 
ATOM     30  C   UNL     1      -9.300   0.108  -5.714  0.00  0.00    +0.031 A 
ATOM     31  F   UNL     1      -9.863   1.040  -9.176  0.00  0.00    -0.205 F 
ENDBRANCH  22  25
ENDBRANCH   5  22
TORSDOF 3
