REMARK  Name = ZINC35074105
REMARK  9 active torsions:
REMARK  status: ('A' for Active; 'I' for Inactive)
REMARK    1  A    between atoms: C_1  and  C_2
REMARK    2  A    between atoms: C_7  and  N_8
REMARK    3  A    between atoms: C_9  and  C_11
REMARK    4  A    between atoms: C_13  and  C_33
REMARK    5  A    between atoms: C_15  and  C_23
REMARK    6  A    between atoms: C_17  and  C_21
REMARK    7  A    between atoms: C_17  and  O_22
REMARK    8  A    between atoms: N_25  and  C_26
REMARK    9  A    between atoms: C_31  and  C_32
REMARK                            x       y       z     vdW  Elec       q    Type
REMARK                         _______ _______ _______ _____ _____    ______ ____
ROOT
ATOM      1  C   UNL     1       0.280   0.656   5.125  0.00  0.00    +0.152 C 
ATOM      2  C   UNL     1       0.091  -0.518   6.091  0.00  0.00    +0.089 C 
ATOM      3  C   UNL     1      -0.053   0.016   7.517  0.00  0.00    +0.118 C 
ATOM      4  C   UNL     1       1.237   0.719   7.940  0.00  0.00    +0.082 C 
ATOM      5  C   UNL     1       1.470   1.940   7.044  0.00  0.00    +0.110 C 
ATOM      6  C   UNL     1       1.449   1.491   5.599  0.00  0.00    +0.149 C 
ATOM      7  O   UNL     1       2.345   1.787   4.845  0.00  0.00    -0.296 OA
ATOM      8  C   UNL     1       1.118   1.171   9.397  0.00  0.00    +0.042 C 
ENDROOT
BRANCH   2   9
ATOM      9  C   UNL     1      -1.150  -1.285   5.713  0.00  0.00    +0.110 A 
ATOM     10  C   UNL     1      -1.197  -2.583   5.365  0.00  0.00    +0.045 A 
ATOM     11  C   UNL     1      -2.551  -2.886   5.093  0.00  0.00    +0.041 A 
ATOM     12  C   UNL     1      -3.251  -1.754   5.292  0.00  0.00    +0.195 A 
ATOM     13  O   UNL     1      -2.398  -0.789   5.673  0.00  0.00    -0.467 OA
ENDBRANCH   2   9
BRANCH   1  15
ATOM     14  N   UNL     1       0.769   0.992   2.723  0.00  0.00    -0.285 N 
ATOM     15  C   UNL     1       0.560   0.132   3.740  0.00  0.00    +0.228 C 
ATOM     16  O   UNL     1       0.599  -1.063   3.540  0.00  0.00    -0.275 OA
ATOM     17  H   UNL     1       0.807   1.946   2.895  0.00  0.00    +0.155 HD
BRANCH  14  24
ATOM     18  C   UNL     1      -0.220   2.571   0.572  0.00  0.00    +0.045 C 
ATOM     19  C   UNL     1       0.463   1.247   0.341  0.00  0.00    -0.029 A 
ATOM     20  C   UNL     1       0.630   0.770  -0.944  0.00  0.00    +0.005 A 
ATOM     21  C   UNL     1       1.256  -0.444  -1.157  0.00  0.00    +0.000 A 
ATOM     22  C   UNL     1       1.718  -1.185  -0.084  0.00  0.00    +0.002 A 
ATOM     23  C   UNL     1       1.555  -0.713   1.204  0.00  0.00    +0.023 A 
ATOM     24  C   UNL     1       0.931   0.509   1.420  0.00  0.00    +0.036 A 
ENDBRANCH  14  24
ENDBRANCH   1  15
BRANCH   3  25
ATOM     25  C   UNL     1      -1.197   0.996   7.572  0.00  0.00    +0.224 C 
ATOM     26  O   UNL     1      -1.198   1.968   6.847  0.00  0.00    -0.275 OA
ATOM     27  N   UNL     1      -2.219   0.791   8.427  0.00  0.00    -0.285 N 
ATOM     28  H   UNL     1      -2.186   0.052   9.055  0.00  0.00    +0.155 HD
BRANCH  27  29
ATOM     29  C   UNL     1      -3.328   1.644   8.409  0.00  0.00    +0.036 A 
ATOM     30  C   UNL     1      -3.581   2.433   7.294  0.00  0.00    +0.023 A 
ATOM     31  C   UNL     1      -4.676   3.274   7.279  0.00  0.00    +0.002 A 
ATOM     32  C   UNL     1      -5.520   3.332   8.373  0.00  0.00    +0.000 A 
ATOM     33  C   UNL     1      -5.271   2.549   9.485  0.00  0.00    +0.005 A 
ATOM     34  C   UNL     1      -4.181   1.700   9.503  0.00  0.00    -0.029 A 
ATOM     35  C   UNL     1      -3.914   0.841  10.712  0.00  0.00    +0.045 C 
ENDBRANCH  27  29
ENDBRANCH   3  25
BRANCH   4  36
ATOM     36  O   UNL     1       2.337  -0.184   7.810  0.00  0.00    -0.388 OA
ATOM     37  H   UNL     1       3.190   0.196   8.062  0.00  0.00    +0.210 HD
ENDBRANCH   4  36
TORSDOF 6
