REMARK  Name = ZINC09933756
REMARK  7 active torsions:
REMARK  status: ('A' for Active; 'I' for Inactive)
REMARK    1  A    between atoms: C_1  and  C_2
REMARK    2  A    between atoms: C_2  and  C_4
REMARK    3  A    between atoms: C_2  and  N_16
REMARK    4  A    between atoms: N_6  and  C_7
REMARK    5  A    between atoms: C_11  and  N_13
REMARK    6  A    between atoms: N_23  and  C_24
REMARK    7  A    between atoms: N_31  and  C_32
REMARK                            x       y       z     vdW  Elec       q    Type
REMARK                         _______ _______ _______ _____ _____    ______ ____
ROOT
ATOM      1  N   UNL     1       3.037   9.400  -0.380  0.00  0.00    -0.302 N 
ATOM      2  C   UNL     1       3.128  10.395   0.573  0.00  0.00    +0.222 A 
ATOM      3  N   UNL     1       2.072  10.698   1.320  0.00  0.00    -0.181 NA
ATOM      4  C   UNL     1       2.160  11.652   2.241  0.00  0.00    +0.225 A 
ATOM      5  N   UNL     1       3.303  12.311   2.408  0.00  0.00    -0.181 NA
ATOM      6  C   UNL     1       4.359  12.011   1.657  0.00  0.00    +0.225 A 
ATOM      7  N   UNL     1       4.271  11.053   0.739  0.00  0.00    -0.181 NA
ATOM      8  N   UNL     1       5.546  12.695   1.830  0.00  0.00    -0.281 N 
ATOM      9  N   UNL     1       1.064  11.964   3.022  0.00  0.00    -0.281 N 
ATOM     10  H   UNL     1       3.807   9.182  -0.928  0.00  0.00    +0.150 HD
ATOM     11  H   UNL     1       5.587  13.449   2.439  0.00  0.00    +0.155 HD
ATOM     12  H   UNL     1       0.209  11.539   2.849  0.00  0.00    +0.155 HD
ENDROOT
BRANCH   8  13
ATOM     13  C   UNL     1       6.690  12.300   1.127  0.00  0.00    +0.069 A 
ATOM     14  C   UNL     1       6.652  11.180   0.308  0.00  0.00    +0.026 A 
ATOM     15  C   UNL     1       7.781  10.795  -0.388  0.00  0.00    +0.002 A 
ATOM     16  C   UNL     1       8.953  11.519  -0.264  0.00  0.00    +0.003 A 
ATOM     17  C   UNL     1       8.998  12.633   0.554  0.00  0.00    +0.040 A 
ATOM     18  C   UNL     1       7.870  13.027   1.250  0.00  0.00    +0.144 A 
ATOM     19  F   UNL     1       7.913  14.116   2.049  0.00  0.00    -0.204 F 
ENDBRANCH   8  13
BRANCH   9  20
ATOM     20  C   UNL     1       1.186  12.892   4.062  0.00  0.00    +0.069 A 
ATOM     21  C   UNL     1       2.437  13.377   4.418  0.00  0.00    +0.026 A 
ATOM     22  C   UNL     1       2.554  14.296   5.443  0.00  0.00    +0.002 A 
ATOM     23  C   UNL     1       1.429  14.728   6.120  0.00  0.00    +0.003 A 
ATOM     24  C   UNL     1       0.181  14.245   5.771  0.00  0.00    +0.040 A 
ATOM     25  C   UNL     1       0.055  13.328   4.744  0.00  0.00    +0.144 A 
ATOM     26  F   UNL     1      -1.164  12.855   4.403  0.00  0.00    -0.204 F 
ENDBRANCH   9  20
BRANCH   1  28
ATOM     27  C   UNL     1       0.869   9.461  -1.510  0.00  0.00    +0.038 C 
ATOM     28  C   UNL     1       1.778   8.675  -0.563  0.00  0.00    +0.156 C 
BRANCH  28  29
ATOM     29  C   UNL     1       2.062   7.317  -1.153  0.00  0.00    +0.237 C 
ATOM     30  O   UNL     1       3.204   6.988  -1.396  0.00  0.00    -0.273 OA
ATOM     31  N   UNL     1       1.047   6.468  -1.410  0.00  0.00    -0.284 N 
ATOM     32  H   UNL     1       0.131   6.747  -1.256  0.00  0.00    +0.155 HD
BRANCH  31  33
ATOM     33  C   UNL     1       1.315   5.185  -1.899  0.00  0.00    +0.036 A 
ATOM     34  C   UNL     1       2.482   4.529  -1.530  0.00  0.00    +0.023 A 
ATOM     35  C   UNL     1       2.743   3.263  -2.015  0.00  0.00    +0.004 A 
ATOM     36  C   UNL     1       1.845   2.648  -2.869  0.00  0.00    +0.033 A 
ATOM     37  C   UNL     1       0.685   3.301  -3.242  0.00  0.00    +0.128 A 
ATOM     38  C   UNL     1       0.414   4.565  -2.756  0.00  0.00    +0.056 A 
BRANCH  37  39
ATOM     39  N   UNL     1      -0.271   2.642  -4.160  0.00  0.00    +0.056 N 
ATOM     40  O   UNL     1      -0.036   1.526  -4.586  0.00  0.00    -0.126 OA
ATOM     41  O   UNL     1      -1.294   3.217  -4.490  0.00  0.00    -0.126 OA
ENDBRANCH  37  39
ENDBRANCH  31  33
ENDBRANCH  28  29
ENDBRANCH   1  28
TORSDOF 6
