REMARK  Name = ZINC14358756
REMARK  7 active torsions:
REMARK  status: ('A' for Active; 'I' for Inactive)
REMARK    1  A    between atoms: C_1  and  C_2
REMARK    2  A    between atoms: C_5  and  N_9
REMARK    3  A    between atoms: C_7  and  C_8
REMARK    4  A    between atoms: C_13  and  S_15
REMARK    5  A    between atoms: S_15  and  C_16
REMARK    6  A    between atoms: C_16  and  C_17
REMARK    7  A    between atoms: N_19  and  C_20
REMARK                            x       y       z     vdW  Elec       q    Type
REMARK                         _______ _______ _______ _____ _____    ______ ____
ROOT
ATOM      1  S   UNL     1      -7.158   0.667   2.981  0.00  0.00    -0.088 S 
ENDROOT
BRANCH   1   6
ATOM      2  N   UNL     1     -12.852  -0.422   2.913  0.00  0.00    -0.292 N 
ATOM      3  C   UNL     1     -11.486  -0.264   2.708  0.00  0.00    +0.187 A 
ATOM      4  N   UNL     1     -10.752  -0.611   1.669  0.00  0.00    -0.125 NA
ATOM      5  N   UNL     1      -9.401  -0.354   1.669  0.00  0.00    -0.133 NA
ATOM      6  C   UNL     1      -8.844   0.230   2.713  0.00  0.00    +0.160 A 
ATOM      7  S   UNL     1     -10.257   0.464   3.780  0.00  0.00    -0.024 S 
ATOM      8  H   UNL     1     -13.273  -0.036   3.698  0.00  0.00    +0.154 HD
BRANCH   2  13
ATOM      9  C   UNL     1     -15.967  -3.325  -0.833  0.00  0.00    +0.044 C 
ATOM     10  C   UNL     1     -15.139  -2.554   0.162  0.00  0.00    -0.047 A 
ATOM     11  C   UNL     1     -13.788  -2.822   0.291  0.00  0.00    +0.005 A 
ATOM     12  C   UNL     1     -13.027  -2.117   1.203  0.00  0.00    +0.023 A 
ATOM     13  C   UNL     1     -13.620  -1.137   1.990  0.00  0.00    +0.033 A 
ATOM     14  C   UNL     1     -14.977  -0.874   1.862  0.00  0.00    +0.027 A 
ATOM     15  C   UNL     1     -15.732  -1.580   0.945  0.00  0.00    -0.046 A 
ATOM     16  C   UNL     1     -17.204  -1.292   0.800  0.00  0.00    +0.044 C 
ENDBRANCH   2  13
ENDBRANCH   1   6
BRANCH   1  17
ATOM     17  C   UNL     1      -6.317   0.120   1.470  0.00  0.00    +0.172 C 
BRANCH  17  18
ATOM     18  C   UNL     1      -4.848   0.439   1.569  0.00  0.00    +0.224 C 
ATOM     19  O   UNL     1      -4.411   0.982   2.561  0.00  0.00    -0.275 OA
ATOM     20  N   UNL     1      -4.019   0.120   0.554  0.00  0.00    -0.309 N 
ATOM     21  H   UNL     1      -4.369  -0.315  -0.239  0.00  0.00    +0.149 HD
BRANCH  20  22
ATOM     22  C   UNL     1      -2.591   0.430   0.651  0.00  0.00    +0.035 C 
ATOM     23  C   UNL     1      -1.882  -0.032  -0.624  0.00  0.00    +0.029 C 
ATOM     24  C   UNL     1      -0.390   0.292  -0.523  0.00  0.00    -0.008 C 
ATOM     25  C   UNL     1       0.209  -0.432   0.684  0.00  0.00    +0.007 C 
ATOM     26  C   UNL     1      -0.500   0.030   1.959  0.00  0.00    -0.008 C 
ATOM     27  C   UNL     1      -1.992  -0.294   1.858  0.00  0.00    +0.029 C 
ATOM     28  C   UNL     1      -0.316   1.540   2.126  0.00  0.00    +0.007 C 
ATOM     29  C   UNL     1      -0.915   2.264   0.919  0.00  0.00    -0.008 C 
ATOM     30  C   UNL     1      -0.205   1.802  -0.356  0.00  0.00    +0.007 C 
ATOM     31  C   UNL     1      -2.407   1.940   0.818  0.00  0.00    +0.029 C 
ENDBRANCH  20  22
ENDBRANCH  17  18
ENDBRANCH   1  17
TORSDOF 5
