REMARK  Name = ZINC40988787
REMARK  6 active torsions:
REMARK  status: ('A' for Active; 'I' for Inactive)
REMARK    1  A    between atoms: C_5  and  C_7
REMARK    2  A    between atoms: C_7  and  C_9
REMARK    3  A    between atoms: C_7  and  N_30
REMARK    4  A    between atoms: C_9  and  N_10
REMARK    5  A    between atoms: C_11  and  C_13
REMARK    6  A    between atoms: N_16  and  C_18
REMARK                            x       y       z     vdW  Elec       q    Type
REMARK                         _______ _______ _______ _____ _____    ______ ____
ROOT
ATOM      1  N   UNL     1       1.972  -3.961  -1.530  0.00  0.00    -0.311 N 
ATOM      2  C   UNL     1       2.520  -4.474  -2.649  0.00  0.00    +0.264 C 
ATOM      3  O   UNL     1       2.819  -3.741  -3.571  0.00  0.00    -0.268 OA
ATOM      4  H   UNL     1       1.733  -4.546  -0.794  0.00  0.00    +0.149 HD
ENDROOT
BRANCH   2   5
ATOM      5  C   UNL     1       2.757  -5.928  -2.755  0.00  0.00    +0.150 A 
ATOM      6  C   UNL     1       3.321  -6.609  -3.847  0.00  0.00    +0.006 A 
ATOM      7  C   UNL     1       3.340  -7.920  -3.499  0.00  0.00    +0.044 A 
ATOM      8  N   UNL     1       2.817  -8.011  -2.266  0.00  0.00    -0.263 N 
ATOM      9  N   UNL     1       2.484  -6.842  -1.839  0.00  0.00    -0.166 NA
ATOM     10  C   UNL     1       3.865  -9.017  -4.389  0.00  0.00    +0.055 C 
ATOM     11  C   UNL     1       3.958  -8.475  -5.821  0.00  0.00    +0.006 C 
ATOM     12  C   UNL     1       4.701  -7.137  -5.818  0.00  0.00    +0.005 C 
ATOM     13  C   UNL     1       3.824  -6.065  -5.156  0.00  0.00    +0.039 C 
BRANCH   8  14
ATOM     14  C   UNL     1       2.653  -9.257  -1.513  0.00  0.00    +0.130 C 
ATOM     15  C   UNL     1       3.442  -9.166  -0.197  0.00  0.00    +0.051 C 
ATOM     16  C   UNL     1       3.006 -10.350   0.713  0.00  0.00    +0.168 C 
ATOM     17  S   UNL     1       1.190 -10.363   0.401  0.00  0.00    -0.029 S 
ATOM     18  O   UNL     1       0.547  -9.558   1.380  0.00  0.00    -0.174 OA
ATOM     19  O   UNL     1       0.763 -11.704   0.209  0.00  0.00    -0.174 OA
ATOM     20  C   UNL     1       1.152  -9.483  -1.213  0.00  0.00    +0.192 C 
ENDBRANCH   8  14
ENDBRANCH   2   5
BRANCH   1  21
ATOM     21  C   UNL     1       1.737  -2.518  -1.425  0.00  0.00    +0.094 C 
BRANCH  21  22
ATOM     22  C   UNL     1       1.238  -2.184  -0.018  0.00  0.00    -0.019 C 
BRANCH  22  23
ATOM     23  N   UNL     1       2.186  -2.707   0.975  0.00  0.00    +0.385 N 
ATOM     24  C   UNL     1       1.714  -2.334   2.323  0.00  0.00    -0.078 C 
ATOM     25  C   UNL     1       2.281  -3.320   3.313  0.00  0.00    -0.019 C 
ATOM     26  C   UNL     1       3.570  -2.786   3.965  0.00  0.00    -0.002 C 
ATOM     27  C   UNL     1       4.474  -2.069   2.942  0.00  0.00    -0.002 C 
ATOM     28  C   UNL     1       4.535  -2.794   1.622  0.00  0.00    -0.019 C 
ATOM     29  C   UNL     1       3.459  -2.216   0.679  0.00  0.00    -0.078 C 
ATOM     30  H   UNL     1       2.203  -3.713   0.907  0.00  0.00    -0.081 HD
ENDBRANCH  22  23
BRANCH  22  35
ATOM     31  C   UNL     1      -1.459  -4.577   1.103  0.00  0.00    +0.000 A 
ATOM     32  C   UNL     1      -2.594  -3.972   0.595  0.00  0.00    +0.001 A 
ATOM     33  C   UNL     1      -2.490  -2.789  -0.112  0.00  0.00    +0.020 A 
ATOM     34  C   UNL     1      -1.249  -2.209  -0.311  0.00  0.00    +0.043 A 
ATOM     35  C   UNL     1      -0.114  -2.815   0.198  0.00  0.00    -0.041 A 
ATOM     36  C   UNL     1      -0.220  -3.998   0.904  0.00  0.00    +0.003 A 
ATOM     37 CL   UNL     1      -1.117  -0.724  -1.199  0.00  0.00    -0.083 Cl
ENDBRANCH  22  35
ENDBRANCH  21  22
ENDBRANCH   1  21
TORSDOF 6
