REMARK  Name = ZINC38679521
REMARK  6 active torsions:
REMARK  status: ('A' for Active; 'I' for Inactive)
REMARK    1  A    between atoms: C_4  and  C_8
REMARK    2  A    between atoms: C_13  and  O_22
REMARK    3  A    between atoms: C_17  and  N_21
REMARK    4  A    between atoms: C_18  and  C_19
REMARK    5  A    between atoms: O_22  and  C_23
REMARK    6  A    between atoms: C_23  and  C_25
REMARK                            x       y       z     vdW  Elec       q    Type
REMARK                         _______ _______ _______ _____ _____    ______ ____
ROOT
ATOM      1  C   UNL     1       3.696  -0.655  -0.075  0.00  0.00    +0.101 C 
ATOM      2  C   UNL     1       3.781  -1.520  -1.305  0.00  0.00    +0.008 A 
ATOM      3  C   UNL     1       3.959  -0.928  -2.542  0.00  0.00    +0.012 A 
ATOM      4  C   UNL     1       4.040  -1.705  -3.681  0.00  0.00    +0.047 A 
ATOM      5  C   UNL     1       3.941  -3.087  -3.586  0.00  0.00    +0.135 A 
ATOM      6  C   UNL     1       3.762  -3.683  -2.348  0.00  0.00    +0.093 A 
ATOM      7  C   UNL     1       3.681  -2.899  -1.204  0.00  0.00    +0.138 A 
ATOM      8  O   UNL     1       3.505  -3.498  -0.000  0.00  0.00    -0.441 OA
ATOM      9  C   UNL     1       3.806  -2.834   1.128  0.00  0.00    +0.199 C 
ATOM     10  C   UNL     1       3.910  -1.488   1.158  0.00  0.00    +0.098 C 
ENDROOT
BRANCH   1  14
ATOM     11  C   UNL     1      -0.162   1.173   0.104  0.00  0.00    +0.003 A 
ATOM     12  C   UNL     1       0.972   1.960   0.035  0.00  0.00    +0.020 A 
ATOM     13  C   UNL     1       2.222   1.368  -0.023  0.00  0.00    +0.046 A 
ATOM     14  C   UNL     1       2.335  -0.011  -0.011  0.00  0.00    +0.002 A 
ATOM     15  C   UNL     1       1.199  -0.797   0.058  0.00  0.00    +0.046 A 
ATOM     16  C   UNL     1      -0.050  -0.204   0.116  0.00  0.00    +0.020 A 
ATOM     17 CL   UNL     1       1.341  -2.527   0.072  0.00  0.00    -0.083 Cl
ATOM     18 CL   UNL     1       3.647   2.356  -0.110  0.00  0.00    -0.083 Cl
ENDBRANCH   1  14
BRANCH   9  19
ATOM     19  N   UNL     1       4.013  -3.546   2.284  0.00  0.00    -0.328 N 
ATOM     20  H   UNL     1       3.940  -4.513   2.278  0.00  0.00    +0.145 HD
ATOM     21  H   UNL     1       4.231  -3.081   3.107  0.00  0.00    +0.145 HD
ENDBRANCH   9  19
BRANCH  10  22
ATOM     22  C   UNL     1       4.233  -0.841   2.394  0.00  0.00    +0.101 C 
ATOM     23  N   UNL     1       4.489  -0.327   3.374  0.00  0.00    -0.191 NA
ENDBRANCH  10  22
BRANCH   5  24
ATOM     24  O   UNL     1       4.020  -3.853  -4.705  0.00  0.00    -0.422 OA
BRANCH  24  25
ATOM     25  C   UNL     1       5.208  -3.934  -5.335  0.00  0.00    +0.344 C 
ATOM     26  O   UNL     1       6.192  -3.418  -4.843  0.00  0.00    -0.245 OA
BRANCH  25  27
ATOM     27  C   UNL     1       5.315  -4.648  -6.622  0.00  0.00    +0.059 A 
ATOM     28  C   UNL     1       4.185  -5.237  -7.193  0.00  0.00    +0.016 A 
ATOM     29  C   UNL     1       4.291  -5.903  -8.396  0.00  0.00    +0.021 A 
ATOM     30  C   UNL     1       5.516  -5.990  -9.037  0.00  0.00    +0.041 A 
ATOM     31  C   UNL     1       6.641  -5.408  -8.476  0.00  0.00    +0.021 A 
ATOM     32  C   UNL     1       6.546  -4.734  -7.277  0.00  0.00    +0.016 A 
ATOM     33 CL   UNL     1       5.642  -6.831 -10.550  0.00  0.00    -0.084 Cl
ENDBRANCH  25  27
ENDBRANCH  24  25
ENDBRANCH   5  24
TORSDOF 6
