REMARK  Name = ZINC01950966
REMARK  5 active torsions:
REMARK  status: ('A' for Active; 'I' for Inactive)
REMARK    1  A    between atoms: C_3  and  C_6
REMARK    2  A    between atoms: N_7  and  C_8
REMARK    3  A    between atoms: C_14  and  C_16
REMARK    4  A    between atoms: C_19  and  S_22
REMARK    5  A    between atoms: S_22  and  N_25
REMARK                            x       y       z     vdW  Elec       q    Type
REMARK                         _______ _______ _______ _____ _____    ______ ____
ROOT
ATOM      1  C   UNL     1       5.932   1.133  -0.049  0.00  0.00    +0.217 A 
ATOM      2  N   UNL     1       6.463   2.354  -0.042  0.00  0.00    -0.120 NA
ATOM      3  N   UNL     1       7.712   2.534  -0.055  0.00  0.00    -0.124 NA
ATOM      4  C   UNL     1       8.568   1.521  -0.075  0.00  0.00    +0.190 A 
ATOM      5  S   UNL     1       7.424   0.144  -0.069  0.00  0.00    -0.011 S 
ATOM      6  N   UNL     1       9.956   1.527  -0.091  0.00  0.00    -0.259 N 
ATOM      7  C   UNL     1      10.625   2.697  -0.087  0.00  0.00    +0.250 C 
ATOM      8  O   UNL     1      10.013   3.747  -0.069  0.00  0.00    -0.270 OA
ATOM      9  H   UNL     1      10.445   0.689  -0.106  0.00  0.00    +0.157 HD
ENDROOT
BRANCH   7  10
ATOM     10  C   UNL     1      12.103   2.703  -0.104  0.00  0.00    +0.037 A 
ATOM     11  C   UNL     1      12.809   1.499  -0.131  0.00  0.00    +0.015 A 
ATOM     12  C   UNL     1      14.188   1.512  -0.148  0.00  0.00    +0.029 A 
ATOM     13  C   UNL     1      14.872   2.715  -0.138  0.00  0.00    +0.106 A 
ATOM     14  C   UNL     1      14.178   3.912  -0.110  0.00  0.00    +0.029 A 
ATOM     15  C   UNL     1      12.799   3.913  -0.100  0.00  0.00    +0.015 A 
BRANCH  13  16
ATOM     16  S   UNL     1      16.634   2.723  -0.158  0.00  0.00    +0.061 S 
ATOM     17  O   UNL     1      17.041   3.961   0.407  0.00  0.00    -0.153 OA
ATOM     18  O   UNL     1      17.052   1.471   0.368  0.00  0.00    -0.153 OA
BRANCH  16  19
ATOM     19  N   UNL     1      17.105   2.749  -1.746  0.00  0.00    -0.177 NA
ATOM     20  C   UNL     1      17.317   1.497  -2.485  0.00  0.00    +0.109 C 
ATOM     21  C   UNL     1      16.479   1.534  -3.767  0.00  0.00    +0.017 C 
ATOM     22  C   UNL     1      16.822   2.797  -4.560  0.00  0.00    +0.003 C 
ATOM     23  C   UNL     1      16.481   4.033  -3.725  0.00  0.00    +0.017 C 
ATOM     24  C   UNL     1      17.312   4.025  -2.444  0.00  0.00    +0.109 C 
ENDBRANCH  16  19
ENDBRANCH  13  16
ENDBRANCH   7  10
BRANCH   1  26
ATOM     25  C   UNL     1       3.680   1.651  -0.025  0.00  0.00    +0.128 C 
ATOM     26  N   UNL     1       4.630   0.749  -0.038  0.00  0.00    -0.228 NA
BRANCH  25  29
ATOM     27  C   UNL     1      -0.016   1.351   0.009  0.00  0.00    +0.008 A 
ATOM     28  C   UNL     1       1.176   2.036   0.002  0.00  0.00    +0.017 A 
ATOM     29  C   UNL     1       2.321   1.250  -0.013  0.00  0.00    +0.030 A 
ATOM     30  S   UNL     1       1.636  -0.395  -0.016  0.00  0.00    -0.096 S 
ATOM     31  C   UNL     1       0.002  -0.004   0.002  0.00  0.00    +0.046 A 
ENDBRANCH  25  29
ENDBRANCH   1  26
TORSDOF 5
