REMARK  Name = ZINC53058923
REMARK  5 active torsions:
REMARK  status: ('A' for Active; 'I' for Inactive)
REMARK    1  A    between atoms: C_1  and  C_2
REMARK    2  A    between atoms: C_4  and  C_14
REMARK    3  A    between atoms: C_7  and  N_8
REMARK    4  A    between atoms: N_16  and  C_17
REMARK    5  A    between atoms: N_16  and  C_18
REMARK                            x       y       z     vdW  Elec       q    Type
REMARK                         _______ _______ _______ _____ _____    ______ ____
ROOT
ATOM      1  C   UNL     1       0.997   1.279   0.125  0.00  0.00    +0.046 C 
ATOM      2  C   UNL     1       0.500  -0.143   0.092  0.00  0.00    -0.028 A 
ATOM      3  C   UNL     1       0.404  -0.811  -1.108  0.00  0.00    +0.018 A 
ATOM      4  C   UNL     1      -0.056  -2.130  -1.137  0.00  0.00    +0.038 A 
ATOM      5  C   UNL     1      -0.418  -2.767   0.053  0.00  0.00    +0.015 A 
ATOM      6  C   UNL     1      -0.319  -2.094   1.250  0.00  0.00    +0.024 A 
ATOM      7  C   UNL     1       0.145  -0.783   1.276  0.00  0.00    +0.041 A 
ENDROOT
BRANCH   7   8
ATOM      8  N   UNL     1       0.249  -0.106   2.490  0.00  0.00    -0.254 N 
ATOM      9  C   UNL     1      -0.814   0.699   3.111  0.00  0.00    +0.134 C 
ATOM     10  C   UNL     1      -0.174   1.210   4.417  0.00  0.00    +0.125 C 
ATOM     11  N   UNL     1       1.181   0.639   4.393  0.00  0.00    -0.297 N 
ATOM     12  C   UNL     1       1.331  -0.090   3.279  0.00  0.00    +0.307 C 
ATOM     13  O   UNL     1       2.359  -0.680   3.008  0.00  0.00    -0.252 OA
ATOM     14  H   UNL     1       1.856   0.767   5.077  0.00  0.00    +0.150 HD
ENDBRANCH   7   8
BRANCH   4  15
ATOM     15  C   UNL     1      -0.161  -2.848  -2.422  0.00  0.00    +0.251 C 
ATOM     16  O   UNL     1      -0.528  -2.258  -3.420  0.00  0.00    -0.270 OA
ATOM     17  N   UNL     1       0.149  -4.158  -2.489  0.00  0.00    -0.271 N 
ATOM     18  C   UNL     1       0.413  -4.912  -1.261  0.00  0.00    +0.138 C 
BRANCH  17  19
ATOM     19  C   UNL     1       0.220  -4.797  -3.731  0.00  0.00    +0.036 A 
ATOM     20  C   UNL     1       0.094  -4.060  -4.901  0.00  0.00    +0.023 A 
ATOM     21  C   UNL     1       0.164  -4.694  -6.126  0.00  0.00    +0.002 A 
ATOM     22  C   UNL     1       0.359  -6.062  -6.188  0.00  0.00    +0.000 A 
ATOM     23  C   UNL     1       0.485  -6.799  -5.025  0.00  0.00    +0.002 A 
ATOM     24  C   UNL     1       0.421  -6.170  -3.797  0.00  0.00    +0.023 A 
ENDBRANCH  17  19
ENDBRANCH   4  15
TORSDOF 3
