REMARK  Name = ZINC67494428
REMARK  11 active torsions:
REMARK  status: ('A' for Active; 'I' for Inactive)
REMARK    1  A    between atoms: C_1  and  C_2
REMARK    2  A    between atoms: C_2  and  O_3
REMARK    3  A    between atoms: O_3  and  C_4
REMARK    4  A    between atoms: C_4  and  C_6
REMARK    5  A    between atoms: C_6  and  N_7
REMARK    6  A    between atoms: N_7  and  C_8
REMARK    7  A    between atoms: C_15  and  C_17
REMARK    8  A    between atoms: C_17  and  C_19
REMARK    9  A    between atoms: C_17  and  O_20
REMARK   10  A    between atoms: O_20  and  C_21
REMARK   11  A    between atoms: C_25  and  C_27
REMARK                            x       y       z     vdW  Elec       q    Type
REMARK                         _______ _______ _______ _____ _____    ______ ____
ROOT
ATOM      1  N   UNL     1      -2.674  -4.110   0.010  0.00  0.00    -0.258 N 
ATOM      2  C   UNL     1      -3.065  -4.544  -1.204  0.00  0.00    +0.261 C 
ATOM      3  O   UNL     1      -3.616  -5.619  -1.315  0.00  0.00    -0.271 OA
ENDROOT
BRANCH   1   4
ATOM      4  C   UNL     1      -2.781  -4.953   1.123  0.00  0.00    +0.037 A 
ATOM      5  C   UNL     1      -2.544  -4.456   2.398  0.00  0.00    +0.026 A 
ATOM      6  C   UNL     1      -2.651  -5.289   3.494  0.00  0.00    +0.040 A 
ATOM      7  C   UNL     1      -2.993  -6.620   3.323  0.00  0.00    +0.124 A 
ATOM      8  C   UNL     1      -3.230  -7.118   2.053  0.00  0.00    +0.040 A 
ATOM      9  C   UNL     1      -3.130  -6.287   0.955  0.00  0.00    +0.026 A 
ATOM     10  F   UNL     1      -3.097  -7.433   4.397  0.00  0.00    -0.205 F 
ENDBRANCH   1   4
BRANCH   2  11
ATOM     11  C   UNL     1      -2.817  -3.694  -2.424  0.00  0.00    +0.256 C 
ATOM     12  C   UNL     1      -3.875  -2.591  -2.499  0.00  0.00    +0.062 C 
BRANCH  11  13
ATOM     13  O   UNL     1      -2.894  -4.509  -3.595  0.00  0.00    -0.480 OA
BRANCH  13  14
ATOM     14  C   UNL     1      -2.236  -4.066  -4.699  0.00  0.00    +0.123 A 
ATOM     15  C   UNL     1      -1.586  -2.839  -4.673  0.00  0.00    +0.046 A 
ATOM     16  C   UNL     1      -0.915  -2.383  -5.793  0.00  0.00    +0.005 A 
ATOM     17  C   UNL     1      -0.887  -3.144  -6.944  0.00  0.00    +0.019 A 
ATOM     18  C   UNL     1      -1.538  -4.379  -6.979  0.00  0.00    +0.055 A 
ATOM     19  C   UNL     1      -2.210  -4.840  -5.846  0.00  0.00    +0.064 A 
BRANCH  18  20
ATOM     20  C   UNL     1      -1.511  -5.172  -8.171  0.00  0.00    +0.099 C 
ATOM     21  N   UNL     1      -1.489  -5.800  -9.117  0.00  0.00    -0.191 NA
ENDBRANCH  18  20
ENDBRANCH  13  14
ENDBRANCH  11  13
ENDBRANCH   2  11
BRANCH   1  22
ATOM     22  C   UNL     1      -2.136  -2.756   0.166  0.00  0.00    +0.234 C 
BRANCH  22  23
ATOM     23  C   UNL     1      -0.630  -2.805   0.119  0.00  0.00    +0.325 C 
ATOM     24  O   UNL     1      -0.065  -3.862  -0.029  0.00  0.00    -0.249 OA
BRANCH  23  25
ATOM     25  O   UNL     1       0.082  -1.674   0.242  0.00  0.00    -0.464 OA
BRANCH  25  27
ATOM     26  C   UNL     1       2.140  -0.411   0.346  0.00  0.00    +0.048 C 
ATOM     27  C   UNL     1       1.505  -1.794   0.189  0.00  0.00    +0.229 C 
ENDBRANCH  25  27
ENDBRANCH  23  25
ENDBRANCH  22  23
ENDBRANCH   1  22
TORSDOF 9
