REMARK  Name = ZINC04929038
REMARK  6 active torsions:
REMARK  status: ('A' for Active; 'I' for Inactive)
REMARK    1  A    between atoms: C_1  and  C_2
REMARK    2  A    between atoms: C_5  and  C_8
REMARK    3  A    between atoms: C_17  and  C_19
REMARK    4  A    between atoms: C_22  and  C_25
REMARK    5  A    between atoms: C_25  and  C_26
REMARK    6  A    between atoms: C_25  and  C_27
REMARK                            x       y       z     vdW  Elec       q    Type
REMARK                         _______ _______ _______ _____ _____    ______ ____
ROOT
ATOM      1  C   UNL     1       2.392  -1.438  -0.029  0.00  0.00    +0.099 A 
ATOM      2  C   UNL     1       1.453  -0.401  -0.014  0.00  0.00    +0.035 A 
ATOM      3  C   UNL     1       2.186   0.770  -0.015  0.00  0.00    +0.126 A 
ATOM      4  N   UNL     1       3.499   0.397  -0.029  0.00  0.00    -0.272 N 
ATOM      5  H   UNL     1       4.276   1.027  -0.033  0.00  0.00    +0.189 HD
ATOM      6  N   UNL     1       3.589  -0.886  -0.037  0.00  0.00    -0.173 NA
ATOM      7  C   UNL     1       1.254   1.904   0.000  0.00  0.00    +0.263 C 
ATOM      8  O   UNL     1       1.584   3.074   0.003  0.00  0.00    -0.269 OA
ATOM      9  N   UNL     1      -0.018   1.464   0.010  0.00  0.00    -0.299 N 
ATOM     10  C   UNL     1       0.002  -0.004   0.002  0.00  0.00    +0.138 C 
ATOM     11  H   UNL     1      -0.812   2.022   0.017  0.00  0.00    +0.150 HD
ENDROOT
BRANCH   1  16
ATOM     12  C   UNL     1       1.239  -7.081  -0.047  0.00  0.00    +0.044 C 
ATOM     13  C   UNL     1       1.540  -5.604  -0.042  0.00  0.00    -0.050 A 
ATOM     14  C   UNL     1       2.634  -5.122  -0.738  0.00  0.00    +0.004 A 
ATOM     15  C   UNL     1       2.915  -3.771  -0.737  0.00  0.00    +0.010 A 
ATOM     16  C   UNL     1       2.095  -2.892  -0.033  0.00  0.00    +0.002 A 
ATOM     17  C   UNL     1       0.998  -3.384   0.671  0.00  0.00    +0.010 A 
ATOM     18  C   UNL     1       0.723  -4.736   0.659  0.00  0.00    +0.004 A 
ENDBRANCH   1  16
BRANCH  10  19
ATOM     19  C   UNL     1      -0.692  -0.525  -1.230  0.00  0.00    -0.023 A 
ATOM     20  C   UNL     1      -0.538   0.128  -2.438  0.00  0.00    +0.006 A 
ATOM     21  C   UNL     1      -1.171  -0.353  -3.570  0.00  0.00    +0.004 A 
ATOM     22  C   UNL     1      -1.966  -1.482  -3.490  0.00  0.00    -0.045 A 
ATOM     23  C   UNL     1      -2.123  -2.132  -2.280  0.00  0.00    +0.004 A 
ATOM     24  C   UNL     1      -1.486  -1.654  -1.150  0.00  0.00    +0.006 A 
BRANCH  22  25
ATOM     25  C   UNL     1      -2.660  -2.003  -4.722  0.00  0.00    +0.013 C 
ATOM     26  C   UNL     1      -3.599  -0.927  -5.271  0.00  0.00    +0.012 C 
ATOM     27  C   UNL     1      -1.617  -2.359  -5.783  0.00  0.00    +0.012 C 
ENDBRANCH  22  25
ENDBRANCH  10  19
TORSDOF 3
