REMARK  Name = ZINC21252603
REMARK  12 active torsions:
REMARK  status: ('A' for Active; 'I' for Inactive)
REMARK    1  A    between atoms: C_1  and  O_2
REMARK    2  A    between atoms: O_2  and  C_3
REMARK    3  A    between atoms: C_6  and  O_39
REMARK    4  A    between atoms: C_7  and  C_9
REMARK    5  A    between atoms: C_14  and  C_24
REMARK    6  A    between atoms: C_27  and  O_34
REMARK    7  A    between atoms: C_28  and  O_32
REMARK    8  A    between atoms: C_29  and  O_30
REMARK    9  A    between atoms: O_30  and  C_31
REMARK   10  A    between atoms: O_32  and  C_33
REMARK   11  A    between atoms: O_34  and  C_35
REMARK   12  A    between atoms: O_39  and  C_40
REMARK                            x       y       z     vdW  Elec       q    Type
REMARK                         _______ _______ _______ _____ _____    ______ ____
ROOT
ATOM      1  C   UNL     1       5.782   3.099   2.476  0.00  0.00    +0.036 C 
ATOM      2  C   UNL     1       5.475   2.790   1.012  0.00  0.00    +0.060 C 
ATOM      3  C   UNL     1       3.987   2.947   0.749  0.00  0.00    +0.017 C 
ATOM      4  C   UNL     1       3.264   3.854   1.430  0.00  0.00    +0.037 C 
ATOM      5  C   UNL     1       1.788   4.118   1.260  0.00  0.00    +0.140 C 
ATOM      6  N   UNL     1       1.193   3.496   0.096  0.00  0.00    -0.331 N 
ATOM      7  C   UNL     1       1.122   2.108  -0.020  0.00  0.00    +0.049 A 
ATOM      8  C   UNL     1      -0.091   1.440  -0.010  0.00  0.00    +0.025 A 
ATOM      9  C   UNL     1      -0.105   0.056  -0.036  0.00  0.00    +0.002 A 
ATOM     10  C   UNL     1       1.081  -0.655  -0.071  0.00  0.00    +0.002 A 
ATOM     11  C   UNL     1       2.294   0.011  -0.099  0.00  0.00    +0.025 A 
ATOM     12  C   UNL     1       2.309   1.395  -0.091  0.00  0.00    +0.052 A 
ATOM     13  N   UNL     1       3.486   2.125  -0.207  0.00  0.00    -0.316 N 
ATOM     14  C   UNL     1       3.882   4.664   2.412  0.00  0.00    +0.163 C 
ATOM     15  O   UNL     1       3.211   5.489   2.999  0.00  0.00    -0.292 OA
ATOM     16  C   UNL     1       5.338   4.541   2.752  0.00  0.00    +0.088 C 
ATOM     17  H   UNL     1       0.789   4.120  -0.715  0.00  0.00    +0.147 HD
ATOM     18  H   UNL     1       4.020   2.000  -1.161  0.00  0.00    +0.152 HD
ENDROOT
BRANCH   1  23
ATOM     19  C   UNL     1       9.518   3.630   2.260  0.00  0.00    +0.121 A 
ATOM     20  C   UNL     1       9.983   2.713   3.190  0.00  0.00    +0.049 A 
ATOM     21  C   UNL     1       9.090   1.923   3.888  0.00  0.00    +0.049 A 
ATOM     22  C   UNL     1       7.727   2.048   3.658  0.00  0.00    +0.124 A 
ATOM     23  C   UNL     1       7.262   2.965   2.727  0.00  0.00    +0.002 A 
ATOM     24  C   UNL     1       8.156   3.751   2.025  0.00  0.00    +0.053 A 
BRANCH  19  26
ATOM     25  C   UNL     1      11.785   4.226   1.860  0.00  0.00    +0.277 C 
ATOM     26  O   UNL     1      10.397   4.408   1.573  0.00  0.00    -0.495 OA
ENDBRANCH  19  26
BRANCH  22  27
ATOM     27  O   UNL     1       6.848   1.271   4.344  0.00  0.00    -0.495 OA
ATOM     28  C   UNL     1       7.397   0.348   5.287  0.00  0.00    +0.277 C 
ENDBRANCH  22  27
ENDBRANCH   1  23
BRANCH   5  29
ATOM     29  C   UNL     1       1.070   3.619   2.486  0.00  0.00    +0.023 A 
ATOM     30  C   UNL     1       1.646   2.638   3.273  0.00  0.00    +0.013 A 
ATOM     31  C   UNL     1       0.991   2.177   4.399  0.00  0.00    +0.050 A 
ATOM     32  C   UNL     1      -0.247   2.697   4.745  0.00  0.00    +0.165 A 
ATOM     33  C   UNL     1      -0.830   3.683   3.958  0.00  0.00    +0.204 A 
ATOM     34  C   UNL     1      -0.166   4.148   2.829  0.00  0.00    +0.170 A 
BRANCH  34  35
ATOM     35  O   UNL     1      -0.729   5.116   2.058  0.00  0.00    -0.491 OA
ATOM     36  C   UNL     1      -1.574   4.685   0.989  0.00  0.00    +0.277 C 
ENDBRANCH  34  35
BRANCH  33  37
ATOM     37  O   UNL     1      -2.045   4.196   4.294  0.00  0.00    -0.488 OA
ATOM     38  C   UNL     1      -2.051   5.337   5.155  0.00  0.00    +0.277 C 
ENDBRANCH  33  37
BRANCH  32  39
ATOM     39  O   UNL     1      -0.891   2.242   5.853  0.00  0.00    -0.491 OA
ATOM     40  C   UNL     1      -0.234   1.227   6.615  0.00  0.00    +0.277 C 
ENDBRANCH  32  39
ENDBRANCH   5  29
TORSDOF 7
