REMARK  Name = ZINC00269308
REMARK  3 active torsions:
REMARK  status: ('A' for Active; 'I' for Inactive)
REMARK    1  A    between atoms: C_1  and  C_2
REMARK    2  A    between atoms: C_2  and  C_14
REMARK    3  A    between atoms: N_6  and  C_8
REMARK                            x       y       z     vdW  Elec       q    Type
REMARK                         _______ _______ _______ _____ _____    ______ ____
ROOT
ATOM      1  C   UNL     1       1.518  -2.138   1.289  0.00  0.00    +0.056 C 
ATOM      2  C   UNL     1       1.187  -1.987  -0.197  0.00  0.00    +0.124 C 
ATOM      3  N   UNL     1       0.151  -2.953  -0.596  0.00  0.00    -0.303 N 
ATOM      4  C   UNL     1       0.697  -3.746  -1.536  0.00  0.00    +0.153 C 
ATOM      5  S   UNL     1      -0.128  -5.030  -2.309  0.00  0.00    -0.017 S 
ATOM      6  N   UNL     1       1.967  -3.405  -1.792  0.00  0.00    -0.214 N 
ATOM      7  N   UNL     1       2.356  -2.345  -1.025  0.00  0.00    -0.207 NA
ATOM      8  H   UNL     1      -0.753  -3.008  -0.248  0.00  0.00    +0.150 HD
ATOM      9  H   UNL     1       2.642  -1.567  -1.601  0.00  0.00    +0.148 HD
ENDROOT
BRANCH   2  10
ATOM     10  C   UNL     1       0.739  -0.580  -0.496  0.00  0.00    -0.009 A 
ATOM     11  C   UNL     1      -0.594  -0.236  -0.362  0.00  0.00    +0.008 A 
ATOM     12  C   UNL     1      -1.005   1.055  -0.637  0.00  0.00    +0.015 A 
ATOM     13  C   UNL     1      -0.084   2.002  -1.046  0.00  0.00    +0.018 A 
ATOM     14  C   UNL     1       1.249   1.657  -1.179  0.00  0.00    +0.015 A 
ATOM     15  C   UNL     1       1.660   0.366  -0.904  0.00  0.00    +0.008 A 
ATOM     16 BR   UNL     1      -0.646   3.768  -1.422  0.00  0.00    -0.050 Br
ENDBRANCH   2  10
BRANCH   6  17
ATOM     17  C   UNL     1       2.788  -4.051  -2.724  0.00  0.00    +0.052 A 
ATOM     18  C   UNL     1       4.075  -4.432  -2.370  0.00  0.00    +0.025 A 
ATOM     19  C   UNL     1       4.881  -5.074  -3.290  0.00  0.00    +0.002 A 
ATOM     20  C   UNL     1       4.410  -5.329  -4.565  0.00  0.00    +0.000 A 
ATOM     21  C   UNL     1       3.130  -4.945  -4.922  0.00  0.00    +0.002 A 
ATOM     22  C   UNL     1       2.318  -4.307  -4.005  0.00  0.00    +0.025 A 
ENDBRANCH   6  17
TORSDOF 2
