REMARK  Name = ZINC10757356
REMARK  8 active torsions:
REMARK  status: ('A' for Active; 'I' for Inactive)
REMARK    1  A    between atoms: C_1  and  C_2
REMARK    2  A    between atoms: N_11  and  C_15
REMARK    3  A    between atoms: C_15  and  C_16
REMARK    4  A    between atoms: C_16  and  O_18
REMARK    5  A    between atoms: O_18  and  C_19
REMARK    6  A    between atoms: C_19  and  C_20
REMARK    7  A    between atoms: N_22  and  C_23
REMARK    8  A    between atoms: C_28  and  C_29
REMARK                            x       y       z     vdW  Elec       q    Type
REMARK                         _______ _______ _______ _____ _____    ______ ____
ROOT
ATOM      1  C   UNL     1      -2.941   1.321   1.440  0.00  0.00    +0.326 C 
ATOM      2  O   UNL     1      -2.195   1.571   2.357  0.00  0.00    -0.249 OA
ENDROOT
BRANCH   1   3
ATOM      3  C   UNL     1      -2.471   1.491   0.018  0.00  0.00    +0.238 C 
BRANCH   3  13
ATOM      4  C   UNL     1       1.130   2.066  -2.494  0.00  0.00    +0.010 C 
ATOM      5  C   UNL     1       2.018   1.865  -1.264  0.00  0.00    +0.018 C 
ATOM      6  C   UNL     1       2.585   0.443  -1.271  0.00  0.00    +0.006 C 
ATOM      7  C   UNL     1       3.456   0.237  -0.030  0.00  0.00    +0.000 C 
ATOM      8  C   UNL     1       2.608   0.432   1.229  0.00  0.00    +0.003 C 
ATOM      9  C   UNL     1       2.042   1.854   1.245  0.00  0.00    +0.035 C 
ATOM     10  C   UNL     1       1.191   2.078  -0.000  0.00  0.00    +0.115 C 
ATOM     11  C   UNL     1      -0.006   1.155   0.007  0.00  0.00    +0.247 C 
ATOM     12  O   UNL     1       0.001  -0.057   0.002  0.00  0.00    -0.273 OA
ATOM     13  N   UNL     1      -1.085   1.966   0.015  0.00  0.00    -0.213 N 
ATOM     14  C   UNL     1      -0.732   3.257   0.024  0.00  0.00    +0.310 C 
ATOM     15  O   UNL     1      -1.528   4.175   0.035  0.00  0.00    -0.252 OA
ATOM     16  N   UNL     1       0.604   3.424   0.011  0.00  0.00    -0.285 N 
ATOM     17  H   UNL     1       1.084   4.267   0.011  0.00  0.00    +0.151 HD
ENDBRANCH   3  13
ENDBRANCH   1   3
BRANCH   1  18
ATOM     18  O   UNL     1      -4.189   0.892   1.687  0.00  0.00    -0.454 OA
BRANCH  18  19
ATOM     19  C   UNL     1      -4.573   0.752   3.081  0.00  0.00    +0.328 C 
BRANCH  19  20
ATOM     20  C   UNL     1      -5.997   0.264   3.162  0.00  0.00    +0.255 C 
ATOM     21  O   UNL     1      -6.625   0.055   2.146  0.00  0.00    -0.272 OA
ATOM     22  N   UNL     1      -6.571   0.060   4.364  0.00  0.00    -0.282 N 
ATOM     23  H   UNL     1      -6.049   0.164   5.175  0.00  0.00    +0.155 HD
BRANCH  22  24
ATOM     24  C   UNL     1      -7.920  -0.302   4.442  0.00  0.00    +0.045 A 
ATOM     25  C   UNL     1      -8.480  -1.118   3.467  0.00  0.00    +0.024 A 
ATOM     26  C   UNL     1      -9.810  -1.477   3.550  0.00  0.00    +0.002 A 
ATOM     27  C   UNL     1     -10.589  -1.017   4.597  0.00  0.00    +0.001 A 
ATOM     28  C   UNL     1     -10.036  -0.200   5.566  0.00  0.00    +0.014 A 
ATOM     29  C   UNL     1      -8.705   0.159   5.492  0.00  0.00    +0.076 A 
BRANCH  29  30
ATOM     30  C   UNL     1      -8.103   1.049   6.548  0.00  0.00    +0.419 C 
ATOM     31  F   UNL     1      -9.082   1.379   7.492  0.00  0.00    -0.166 F 
ATOM     32  F   UNL     1      -7.052   0.378   7.182  0.00  0.00    -0.166 F 
ATOM     33  F   UNL     1      -7.618   2.218   5.952  0.00  0.00    -0.166 F 
ENDBRANCH  29  30
ENDBRANCH  22  24
ENDBRANCH  19  20
ENDBRANCH  18  19
ENDBRANCH   1  18
TORSDOF 7
