REMARK  Name = ZINC65248594
REMARK  6 active torsions:
REMARK  status: ('A' for Active; 'I' for Inactive)
REMARK    1  A    between atoms: C_1  and  C_2
REMARK    2  A    between atoms: C_2  and  C_3
REMARK    3  A    between atoms: C_6  and  C_9
REMARK    4  A    between atoms: C_11  and  C_14
REMARK    5  A    between atoms: N_22  and  C_25
REMARK    6  A    between atoms: C_25  and  C_26
REMARK                            x       y       z     vdW  Elec       q    Type
REMARK                         _______ _______ _______ _____ _____    ______ ____
ROOT
ATOM      1  C   UNL     1       5.629  -2.894  -6.553  0.00  0.00    +0.151 A 
ATOM      2  C   UNL     1       6.757  -2.833  -5.690  0.00  0.00    +0.206 A 
ATOM      3  C   UNL     1       8.069  -3.217  -6.241  0.00  0.00    +0.046 A 
ATOM      4  C   UNL     1       9.219  -3.183  -5.451  0.00  0.00    +0.016 A 
ATOM      5  C   UNL     1      10.422  -3.545  -5.989  0.00  0.00    +0.039 A 
ATOM      6  C   UNL     1      10.508  -3.946  -7.317  0.00  0.00    +0.125 A 
ATOM      7  C   UNL     1       9.380  -3.986  -8.114  0.00  0.00    +0.065 A 
ATOM      8  C   UNL     1       8.147  -3.622  -7.584  0.00  0.00    +0.058 A 
ATOM      9  N   UNL     1       7.008  -3.656  -8.362  0.00  0.00    -0.307 N 
ATOM     10  C   UNL     1       5.795  -3.312  -7.869  0.00  0.00    +0.268 A 
ATOM     11  O   UNL     1       4.718  -3.371  -8.678  0.00  0.00    -0.267 OA
ATOM     12  F   UNL     1      11.705  -4.300  -7.833  0.00  0.00    -0.205 F 
ATOM     13  O   UNL     1       6.642  -2.475  -4.530  0.00  0.00    -0.286 OA
ENDROOT
BRANCH   1  16
ATOM     14  C   UNL     1       2.698  -1.862  -4.737  0.00  0.00    +0.202 A 
ATOM     15  N   UNL     1       4.012  -2.113  -4.839  0.00  0.00    -0.187 NA
ATOM     16  C   UNL     1       4.296  -2.522  -6.057  0.00  0.00    +0.268 A 
ATOM     17  O   UNL     1       3.155  -2.542  -6.770  0.00  0.00    -0.332 OA
ATOM     18  N   UNL     1       2.127  -2.114  -5.890  0.00  0.00    -0.056 NA
BRANCH  14  22
ATOM     19  C   UNL     1       0.707  -0.490  -1.238  0.00  0.00    -0.048 A 
ATOM     20  C   UNL     1      -0.013  -0.718  -2.396  0.00  0.00    +0.004 A 
ATOM     21  C   UNL     1       0.628  -1.163  -3.535  0.00  0.00    +0.012 A 
ATOM     22  C   UNL     1       2.003  -1.382  -3.516  0.00  0.00    +0.022 A 
ATOM     23  C   UNL     1       2.724  -1.151  -2.346  0.00  0.00    +0.012 A 
ATOM     24  C   UNL     1       2.074  -0.701  -1.215  0.00  0.00    +0.004 A 
BRANCH  19  26
ATOM     25  C   UNL     1      -0.019   1.526   0.010  0.00  0.00    +0.009 C 
ATOM     26  C   UNL     1       0.002  -0.004   0.002  0.00  0.00    +0.032 C 
ENDBRANCH  19  26
ENDBRANCH  14  22
ENDBRANCH   1  16
BRANCH   9  27
ATOM     27  C   UNL     1       7.113  -4.082  -9.760  0.00  0.00    +0.122 C 
ATOM     28  C   UNL     1       6.918  -5.597  -9.848  0.00  0.00    +0.027 C 
ENDBRANCH   9  27
TORSDOF 4
