REMARK  Name = ZINC66343297
REMARK  7 active torsions:
REMARK  status: ('A' for Active; 'I' for Inactive)
REMARK    1  A    between atoms: C_1  and  C_2
REMARK    2  A    between atoms: C_2  and  C_3
REMARK    3  A    between atoms: C_6  and  C_9
REMARK    4  A    between atoms: N_11  and  N_12
REMARK    5  A    between atoms: N_15  and  C_16
REMARK    6  A    between atoms: C_16  and  C_17
REMARK    7  A    between atoms: N_21  and  C_23
REMARK                            x       y       z     vdW  Elec       q    Type
REMARK                         _______ _______ _______ _____ _____    ______ ____
ROOT
ATOM      1  N   UNL     1      -7.352  -2.714  -1.109  0.00  0.00    -0.218 N 
ATOM      2  C   UNL     1      -7.994  -2.946  -2.272  0.00  0.00    +0.316 C 
ATOM      3  O   UNL     1      -9.134  -3.367  -2.263  0.00  0.00    -0.251 OA
ATOM      4  N   UNL     1      -7.371  -2.711  -3.444  0.00  0.00    -0.298 N 
ATOM      5  H   UNL     1      -7.800  -2.883  -0.266  0.00  0.00    +0.174 HD
ATOM      6  H   UNL     1      -6.461  -2.375  -3.451  0.00  0.00    +0.150 HD
ENDROOT
BRANCH   1   9
ATOM      7  C   UNL     1      -5.396  -1.996   0.043  0.00  0.00    +0.260 C 
ATOM      8  O   UNL     1      -5.958  -2.208   1.100  0.00  0.00    -0.269 OA
ATOM      9  N   UNL     1      -6.038  -2.229  -1.119  0.00  0.00    -0.229 N 
ATOM     10  H   UNL     1      -5.590  -2.060  -1.963  0.00  0.00    +0.173 HD
BRANCH   7  14
ATOM     11  C   UNL     1      -1.412  -0.526   0.013  0.00  0.00    -0.048 A 
ATOM     12  C   UNL     1      -2.048  -0.765   1.218  0.00  0.00    +0.004 A 
ATOM     13  C   UNL     1      -3.343  -1.243   1.234  0.00  0.00    +0.013 A 
ATOM     14  C   UNL     1      -4.010  -1.484   0.032  0.00  0.00    +0.038 A 
ATOM     15  C   UNL     1      -3.362  -1.240  -1.180  0.00  0.00    +0.013 A 
ATOM     16  C   UNL     1      -2.069  -0.758  -1.182  0.00  0.00    +0.004 A 
BRANCH  11  18
ATOM     17  C   UNL     1      -0.019   1.526   0.010  0.00  0.00    +0.009 C 
ATOM     18  C   UNL     1       0.002  -0.004   0.002  0.00  0.00    +0.032 C 
ENDBRANCH  11  18
ENDBRANCH   7  14
ENDBRANCH   1   9
BRANCH   4  19
ATOM     19  C   UNL     1      -8.068  -2.964  -4.707  0.00  0.00    +0.111 C 
BRANCH  19  20
ATOM     20  C   UNL     1      -7.145  -2.618  -5.877  0.00  0.00    +0.025 C 
ATOM     21  C   UNL     1      -5.968  -3.626  -5.965  0.00  0.00    +0.025 C 
ATOM     22  C   UNL     1      -5.608  -3.554  -7.470  0.00  0.00    +0.105 C 
ATOM     23  N   UNL     1      -6.902  -3.405  -8.160  0.00  0.00    -0.330 N 
ATOM     24  C   UNL     1      -7.873  -2.813  -7.224  0.00  0.00    +0.110 C 
BRANCH  23  25
ATOM     25  C   UNL     1      -7.164  -3.761  -9.487  0.00  0.00    +0.030 A 
ATOM     26  C   UNL     1      -8.429  -3.563 -10.024  0.00  0.00    +0.026 A 
ATOM     27  C   UNL     1      -8.685  -3.916 -11.334  0.00  0.00    +0.040 A 
ATOM     28  C   UNL     1      -7.681  -4.467 -12.113  0.00  0.00    +0.124 A 
ATOM     29  C   UNL     1      -6.419  -4.665 -11.580  0.00  0.00    +0.040 A 
ATOM     30  C   UNL     1      -6.157  -4.309 -10.271  0.00  0.00    +0.026 A 
ATOM     31  F   UNL     1      -7.934  -4.811 -13.395  0.00  0.00    -0.205 F 
ENDBRANCH  23  25
ENDBRANCH  19  20
ENDBRANCH   4  19
TORSDOF 6
