REMARK  Name = ZINC39227374
REMARK  9 active torsions:
REMARK  status: ('A' for Active; 'I' for Inactive)
REMARK    1  A    between atoms: C_1  and  C_2
REMARK    2  A    between atoms: C_2  and  C_3
REMARK    3  A    between atoms: C_2  and  N_4
REMARK    4  A    between atoms: C_15  and  C_20
REMARK    5  A    between atoms: C_24  and  C_26
REMARK    6  A    between atoms: N_28  and  C_29
REMARK    7  A    between atoms: C_29  and  C_30
REMARK    8  A    between atoms: C_29  and  C_31
REMARK    9  A    between atoms: C_29  and  C_32
REMARK                            x       y       z     vdW  Elec       q    Type
REMARK                         _______ _______ _______ _____ _____    ______ ____
ROOT
ATOM      1  N   UNL     1       0.690  -0.478  -1.207  0.00  0.00    +0.381 N 
ATOM      2  C   UNL     1       0.701  -1.946  -1.218  0.00  0.00    -0.075 C 
ATOM      3  C   UNL     1       1.343  -2.445  -2.514  0.00  0.00    +0.030 C 
ATOM      4  C   UNL     1       2.777  -1.919  -2.602  0.00  0.00    +0.114 C 
ATOM      5  C   UNL     1       2.761  -0.391  -2.512  0.00  0.00    +0.030 C 
ATOM      6  C   UNL     1       2.067   0.031  -1.216  0.00  0.00    -0.075 C 
ATOM      7  C   UNL     1       3.393  -2.341  -3.943  0.00  0.00    +0.127 C 
ATOM      8  C   UNL     1       4.817  -1.814  -3.967  0.00  0.00    +0.170 C 
ATOM      9  O   UNL     1       5.306  -1.343  -4.971  0.00  0.00    -0.292 OA
ATOM     10  C   UNL     1       5.573  -1.905  -2.705  0.00  0.00    +0.060 A 
ATOM     11  C   UNL     1       6.949  -1.678  -2.683  0.00  0.00    +0.023 A 
ATOM     12  C   UNL     1       7.638  -1.764  -1.480  0.00  0.00    -0.017 A 
ATOM     13  C   UNL     1       6.951  -2.077  -0.304  0.00  0.00    +0.012 A 
ATOM     14  C   UNL     1       5.593  -2.303  -0.325  0.00  0.00    +0.047 A 
ATOM     15  C   UNL     1       4.888  -2.223  -1.520  0.00  0.00    +0.132 A 
ATOM     16  O   UNL     1       3.554  -2.455  -1.533  0.00  0.00    -0.485 OA
ATOM     17  H   UNL     1       0.202  -0.141  -2.023  0.00  0.00    -0.081 HD
ENDROOT
BRANCH  12  18
ATOM     18  C   UNL     1       9.102  -1.525  -1.444  0.00  0.00    -0.017 A 
ATOM     19  C   UNL     1       9.787  -1.207  -2.616  0.00  0.00    +0.008 A 
ATOM     20  C   UNL     1      11.149  -0.983  -2.586  0.00  0.00    +0.001 A 
ATOM     21  C   UNL     1      11.843  -1.073  -1.395  0.00  0.00    +0.013 A 
ATOM     22  C   UNL     1      11.169  -1.390  -0.214  0.00  0.00    +0.037 A 
ATOM     23  C   UNL     1       9.792  -1.611  -0.240  0.00  0.00    +0.021 A 
BRANCH  22  24
ATOM     24  C   UNL     1      11.912  -1.486   1.060  0.00  0.00    +0.245 C 
ATOM     25  O   UNL     1      11.323  -1.762   2.088  0.00  0.00    -0.270 OA
ATOM     26  N   UNL     1      13.241  -1.268   1.084  0.00  0.00    -0.296 N 
ATOM     27  H   UNL     1      13.711  -1.048   0.264  0.00  0.00    +0.150 HD
BRANCH  26  28
ATOM     28  C   UNL     1      13.977  -1.363   2.347  0.00  0.00    +0.090 C 
ATOM     29  C   UNL     1      13.418  -0.344   3.341  0.00  0.00    +0.045 C 
ATOM     30  C   UNL     1      13.824  -2.773   2.921  0.00  0.00    +0.045 C 
BRANCH  28  31
ATOM     31  C   UNL     1      15.402  -1.084   2.107  0.00  0.00    -0.080 C 
ATOM     32  C   UNL     1      16.539  -0.860   1.915  0.00  0.00    +0.006 C 
ENDBRANCH  28  31
ENDBRANCH  26  28
ENDBRANCH  22  24
ENDBRANCH  12  18
BRANCH   1  34
ATOM     33  C   UNL     1      -0.019   1.526   0.010  0.00  0.00    -0.014 C 
ATOM     34  C   UNL     1       0.002  -0.004   0.002  0.00  0.00    -0.075 C 
ATOM     35  C   UNL     1      -1.433  -0.534   0.013  0.00  0.00    -0.014 C 
ENDBRANCH   1  34
TORSDOF 5
