REMARK  Name = ZINC22793290
REMARK  6 active torsions:
REMARK  status: ('A' for Active; 'I' for Inactive)
REMARK    1  A    between atoms: C_1  and  C_2
REMARK    2  A    between atoms: C_2  and  C_4
REMARK    3  A    between atoms: C_2  and  N_21
REMARK    4  A    between atoms: C_10  and  C_15
REMARK    5  A    between atoms: N_24  and  C_27
REMARK    6  A    between atoms: C_27  and  C_28
REMARK                            x       y       z     vdW  Elec       q    Type
REMARK                         _______ _______ _______ _____ _____    ______ ____
ROOT
ATOM      1  C   UNL     1      -0.024   1.523   0.099  0.00  0.00    -0.005 C 
ATOM      2  C   UNL     1       0.002  -0.004   0.002  0.00  0.00    -0.004 C 
ENDROOT
BRANCH   2   3
ATOM      3  C   UNL     1      -1.401  -0.540   0.130  0.00  0.00    +0.097 A 
ATOM      4  N   UNL     1      -2.362  -0.105  -0.725  0.00  0.00    -0.312 N 
ATOM      5  H   UNL     1      -2.132   0.545  -1.407  0.00  0.00    +0.170 HD
ATOM      6  C   UNL     1      -3.626  -0.558  -0.645  0.00  0.00    +0.260 A 
ATOM      7  O   UNL     1      -4.477  -0.159  -1.420  0.00  0.00    -0.267 OA
ATOM      8  C   UNL     1      -3.956  -1.518   0.365  0.00  0.00    +0.080 A 
ATOM      9  C   UNL     1      -5.238  -2.152   0.652  0.00  0.00    +0.004 A 
ATOM     10  C   UNL     1      -5.311  -3.041   1.671  0.00  0.00    +0.056 A 
ATOM     11  S   UNL     1      -3.647  -3.076   2.309  0.00  0.00    -0.076 S 
ATOM     12  C   UNL     1      -2.899  -1.907   1.203  0.00  0.00    +0.116 A 
ATOM     13  N   UNL     1      -1.670  -1.418   1.058  0.00  0.00    -0.228 NA
BRANCH   9  14
ATOM     14  C   UNL     1      -6.437  -1.829  -0.157  0.00  0.00    -0.017 A 
ATOM     15  C   UNL     1      -6.789  -0.500  -0.387  0.00  0.00    +0.008 A 
ATOM     16  C   UNL     1      -7.907  -0.206  -1.141  0.00  0.00    +0.001 A 
ATOM     17  C   UNL     1      -8.678  -1.227  -1.668  0.00  0.00    +0.000 A 
ATOM     18  C   UNL     1      -8.334  -2.548  -1.442  0.00  0.00    +0.001 A 
ATOM     19  C   UNL     1      -7.215  -2.854  -0.694  0.00  0.00    +0.008 A 
ENDBRANCH   9  14
ENDBRANCH   2   3
BRANCH   2  20
ATOM     20  N   UNL     1       0.835  -0.549   1.082  0.00  0.00    +0.388 N 
ATOM     21  C   UNL     1       2.157   0.089   1.050  0.00  0.00    -0.062 C 
ATOM     22  C   UNL     1       3.019  -0.465   2.187  0.00  0.00    +0.066 C 
ATOM     23  N   UNL     1       3.155  -1.920   2.030  0.00  0.00    -0.298 NA
ATOM     24  C   UNL     1       1.837  -2.571   2.035  0.00  0.00    +0.066 C 
ATOM     25  C   UNL     1       0.985  -1.999   0.900  0.00  0.00    -0.062 C 
ATOM     26  H   UNL     1       0.395  -0.366   1.971  0.00  0.00    -0.081 HD
BRANCH  23  27
ATOM     27  C   UNL     1       4.024  -2.483   3.072  0.00  0.00    +0.180 C 
BRANCH  27  28
ATOM     28  C   UNL     1       4.338  -3.919   2.743  0.00  0.00    +0.230 C 
ATOM     29  O   UNL     1       3.883  -4.424   1.738  0.00  0.00    -0.274 OA
ATOM     30  N   UNL     1       5.125  -4.643   3.564  0.00  0.00    -0.300 N 
ATOM     31  C   UNL     1       5.647  -4.013   4.756  0.00  0.00    +0.108 C 
ATOM     32  C   UNL     1       7.003  -3.336   4.435  0.00  0.00    +0.019 C 
ATOM     33  C   UNL     1       8.043  -4.353   4.219  0.00  0.00    +0.002 C 
ATOM     34  C   UNL     1       7.787  -5.270   3.027  0.00  0.00    +0.002 C 
ATOM     35  C   UNL     1       6.894  -6.409   3.454  0.00  0.00    +0.019 C 
ATOM     36  C   UNL     1       5.414  -6.047   3.212  0.00  0.00    +0.108 C 
ENDBRANCH  27  28
ENDBRANCH  23  27
ENDBRANCH   2  20
TORSDOF 5
