REMARK  Name = ZINC39325448
REMARK  9 active torsions:
REMARK  status: ('A' for Active; 'I' for Inactive)
REMARK    1  A    between atoms: C_1  and  O_2
REMARK    2  A    between atoms: O_2  and  C_3
REMARK    3  A    between atoms: C_3  and  C_5
REMARK    4  A    between atoms: C_8  and  S_11
REMARK    5  A    between atoms: S_11  and  N_14
REMARK    6  A    between atoms: N_14  and  C_15
REMARK    7  A    between atoms: N_14  and  C_21
REMARK    8  A    between atoms: C_15  and  C_16
REMARK    9  A    between atoms: C_21  and  C_22
REMARK                            x       y       z     vdW  Elec       q    Type
REMARK                         _______ _______ _______ _____ _____    ______ ____
ROOT
ATOM      1  N   UNL     1      -1.486  -7.222   1.677  0.00  0.00    -0.168 NA
ENDROOT
BRANCH   1   2
ATOM      2  S   UNL     1      -1.626  -6.220   0.366  0.00  0.00    +0.061 S 
ATOM      3  O   UNL     1      -2.840  -6.570  -0.284  0.00  0.00    -0.153 OA
ATOM      4  O   UNL     1      -0.371  -6.244  -0.300  0.00  0.00    -0.153 OA
BRANCH   2   8
ATOM      5  C   UNL     1      -2.171  -2.009   1.949  0.00  0.00    +0.059 A 
ATOM      6  C   UNL     1      -0.889  -2.503   1.696  0.00  0.00    +0.017 A 
ATOM      7  C   UNL     1      -0.731  -3.786   1.215  0.00  0.00    +0.029 A 
ATOM      8  C   UNL     1      -1.838  -4.583   0.982  0.00  0.00    +0.106 A 
ATOM      9  C   UNL     1      -3.110  -4.099   1.229  0.00  0.00    +0.029 A 
ATOM     10  C   UNL     1      -3.283  -2.821   1.717  0.00  0.00    +0.017 A 
BRANCH   5  11
ATOM     11  C   UNL     1      -2.348  -0.636   2.465  0.00  0.00    +0.339 C 
ATOM     12  O   UNL     1      -3.464  -0.211   2.689  0.00  0.00    -0.245 OA
BRANCH  11  14
ATOM     13  C   UNL     1      -1.518   1.460   3.187  0.00  0.00    +0.280 C 
ATOM     14  O   UNL     1      -1.273   0.144   2.688  0.00  0.00    -0.464 OA
ENDBRANCH  11  14
ENDBRANCH   5  11
ENDBRANCH   2   8
ENDBRANCH   1   2
BRANCH   1  15
ATOM     15  C   UNL     1      -2.681  -7.830   2.265  0.00  0.00    +0.183 C 
BRANCH  15  16
ATOM     16  C   UNL     1      -2.904  -9.191   1.656  0.00  0.00    +0.120 A 
ATOM     17  C   UNL     1      -2.411 -10.352   2.123  0.00  0.00    +0.046 A 
ATOM     18  C   UNL     1      -2.864 -11.369   1.252  0.00  0.00    +0.041 A 
ATOM     19  C   UNL     1      -3.608 -10.769   0.305  0.00  0.00    +0.195 A 
ATOM     20  O   UNL     1      -3.633  -9.450   0.558  0.00  0.00    -0.466 OA
ENDBRANCH  15  16
ENDBRANCH   1  15
BRANCH   1  21
ATOM     21  C   UNL     1      -0.166  -7.499   2.249  0.00  0.00    +0.126 C 
BRANCH  21  22
ATOM     22  C   UNL     1       0.212  -6.383   3.225  0.00  0.00    +0.114 C 
ATOM     23  C   UNL     1       1.676  -6.552   3.581  0.00  0.00    -0.003 C 
ATOM     24  C   UNL     1       1.985  -6.709   4.896  0.00  0.00    -0.003 A 
ATOM     25  C   UNL     1       3.374  -6.880   5.324  0.00  0.00    +0.059 A 
ATOM     26  C   UNL     1       3.652  -7.033   6.647  0.00  0.00    +0.163 A 
ATOM     27  C   UNL     1       2.624  -7.028   7.612  0.00  0.00    +0.164 A 
ATOM     28  C   UNL     1       1.299  -6.873   7.259  0.00  0.00    +0.073 A 
ATOM     29  C   UNL     1       0.924  -6.710   5.920  0.00  0.00    +0.044 A 
ATOM     30  N   UNL     1      -0.365  -6.561   5.602  0.00  0.00    -0.284 N 
ATOM     31  C   UNL     1      -0.786  -6.402   4.361  0.00  0.00    +0.225 C 
ATOM     32  O   UNL     1      -1.974  -6.272   4.132  0.00  0.00    -0.275 OA
ATOM     33  O   UNL     1       2.924  -7.173   8.931  0.00  0.00    -0.485 OA
ATOM     34  C   UNL     1       4.212  -7.708   9.247  0.00  0.00    +0.270 C 
ATOM     35  C   UNL     1       5.260  -6.974   8.400  0.00  0.00    +0.270 C 
ATOM     36  O   UNL     1       4.953  -7.195   7.020  0.00  0.00    -0.485 OA
ATOM     37  H   UNL     1      -1.021  -6.571   6.316  0.00  0.00    +0.155 HD
ENDBRANCH  21  22
ENDBRANCH   1  21
TORSDOF 8
