REMARK  Name = ZINC40987368
REMARK  7 active torsions:
REMARK  status: ('A' for Active; 'I' for Inactive)
REMARK    1  A    between atoms: C_1  and  C_2
REMARK    2  A    between atoms: C_5  and  C_8
REMARK    3  A    between atoms: C_8  and  C_10
REMARK    4  A    between atoms: C_8  and  N_27
REMARK    5  A    between atoms: C_10  and  N_11
REMARK    6  A    between atoms: C_12  and  C_14
REMARK    7  A    between atoms: C_16  and  C_19
REMARK                            x       y       z     vdW  Elec       q    Type
REMARK                         _______ _______ _______ _____ _____    ______ ____
ROOT
ATOM      1  N   UNL     1      -2.244  -4.385  -0.902  0.00  0.00    -0.311 N 
ATOM      2  C   UNL     1      -3.557  -4.689  -0.896  0.00  0.00    +0.266 C 
ATOM      3  O   UNL     1      -4.018  -5.371  -0.003  0.00  0.00    -0.268 OA
ATOM      4  H   UNL     1      -1.875  -3.840  -1.615  0.00  0.00    +0.149 HD
ENDROOT
BRANCH   2   5
ATOM      5  C   UNL     1      -4.438  -4.190  -1.980  0.00  0.00    +0.168 A 
ATOM      6  C   UNL     1      -5.825  -4.425  -2.096  0.00  0.00    +0.086 A 
ATOM      7  C   UNL     1      -6.263  -3.800  -3.221  0.00  0.00    +0.168 A 
ATOM      8  O   UNL     1      -5.207  -3.195  -3.796  0.00  0.00    -0.354 OA
ATOM      9  N   UNL     1      -4.067  -3.448  -2.996  0.00  0.00    -0.073 NA
BRANCH   7  10
ATOM     10  C   UNL     1      -7.652  -3.788  -3.724  0.00  0.00    +0.023 A 
ATOM     11  C   UNL     1      -8.657  -4.456  -3.023  0.00  0.00    +0.014 A 
ATOM     12  C   UNL     1      -9.953  -4.442  -3.496  0.00  0.00    +0.042 A 
ATOM     13  C   UNL     1     -10.259  -3.766  -4.666  0.00  0.00    +0.158 A 
ATOM     14  C   UNL     1      -9.265  -3.099  -5.368  0.00  0.00    +0.159 A 
ATOM     15  C   UNL     1      -7.965  -3.103  -4.900  0.00  0.00    +0.053 A 
ATOM     16  F   UNL     1      -9.569  -2.442  -6.508  0.00  0.00    -0.202 F 
ATOM     17  F   UNL     1     -11.530  -3.756  -5.124  0.00  0.00    -0.202 F 
ENDBRANCH   7  10
ENDBRANCH   2   5
BRANCH   1  18
ATOM     18  C   UNL     1      -1.373  -4.877   0.169  0.00  0.00    +0.094 C 
BRANCH  18  19
ATOM     19  C   UNL     1       0.028  -4.285  -0.000  0.00  0.00    -0.020 C 
BRANCH  19  24
ATOM     20  C   UNL     1      -0.223   1.455   0.618  0.00  0.00    +0.044 C 
ATOM     21  C   UNL     1      -0.157  -0.042   0.457  0.00  0.00    -0.050 A 
ATOM     22  C   UNL     1      -0.110  -0.599  -0.807  0.00  0.00    +0.003 A 
ATOM     23  C   UNL     1      -0.050  -1.972  -0.955  0.00  0.00    +0.002 A 
ATOM     24  C   UNL     1      -0.037  -2.788   0.161  0.00  0.00    -0.059 A 
ATOM     25  C   UNL     1      -0.083  -2.230   1.425  0.00  0.00    +0.002 A 
ATOM     26  C   UNL     1      -0.139  -0.857   1.573  0.00  0.00    +0.003 A 
ENDBRANCH  19  24
BRANCH  19  27
ATOM     27  N   UNL     1       0.924  -4.849   1.018  0.00  0.00    +0.385 N 
ATOM     28  C   UNL     1       2.253  -4.239   0.890  0.00  0.00    -0.078 C 
ATOM     29  C   UNL     1       3.167  -4.763   2.000  0.00  0.00    -0.019 C 
ATOM     30  C   UNL     1       3.289  -6.284   1.877  0.00  0.00    -0.004 C 
ATOM     31  C   UNL     1       1.890  -6.905   1.937  0.00  0.00    -0.019 C 
ATOM     32  C   UNL     1       1.023  -6.301   0.830  0.00  0.00    -0.078 C 
ATOM     33  H   UNL     1       0.553  -4.654   1.936  0.00  0.00    -0.081 HD
ENDBRANCH  19  27
ENDBRANCH  18  19
ENDBRANCH   1  18
TORSDOF 6
