REMARK  Name = ZINC40710872
REMARK  8 active torsions:
REMARK  status: ('A' for Active; 'I' for Inactive)
REMARK    1  A    between atoms: C_1  and  N_2
REMARK    2  A    between atoms: N_2  and  S_3
REMARK    3  A    between atoms: S_3  and  C_6
REMARK    4  A    between atoms: C_9  and  O_13
REMARK    5  A    between atoms: C_10  and  N_12
REMARK    6  A    between atoms: O_13  and  C_14
REMARK    7  A    between atoms: C_17  and  C_20
REMARK    8  A    between atoms: C_20  and  O_21
REMARK                            x       y       z     vdW  Elec       q    Type
REMARK                         _______ _______ _______ _____ _____    ______ ____
ROOT
ATOM      1  C   UNL     1      -2.931  -1.132  -1.403  0.00  0.00    +0.107 A 
ATOM      2  C   UNL     1      -3.874  -0.122  -1.456  0.00  0.00    +0.032 A 
ATOM      3  C   UNL     1      -4.296   0.372  -2.676  0.00  0.00    +0.050 A 
ATOM      4  C   UNL     1      -3.775  -0.146  -3.851  0.00  0.00    +0.149 A 
ATOM      5  C   UNL     1      -2.825  -1.163  -3.799  0.00  0.00    +0.069 A 
ATOM      6  C   UNL     1      -2.402  -1.650  -2.570  0.00  0.00    +0.055 A 
ENDROOT
BRANCH   1   7
ATOM      7  S   UNL     1      -2.397  -1.756   0.156  0.00  0.00    +0.058 S 
ATOM      8  O   UNL     1      -1.908  -3.069  -0.078  0.00  0.00    -0.153 OA
ATOM      9  O   UNL     1      -3.442  -1.485   1.080  0.00  0.00    -0.153 OA
BRANCH   7  11
ATOM     10  C   UNL     1      -1.272   0.581   0.925  0.00  0.00    +0.127 C 
ATOM     11  N   UNL     1      -1.099  -0.844   0.630  0.00  0.00    -0.193 NA
ATOM     12  H   UNL     1      -0.223  -1.253   0.712  0.00  0.00    +0.148 HD
ENDBRANCH   7  11
ENDBRANCH   1   7
BRANCH   5  13
ATOM     13  N   UNL     1      -2.295  -1.690  -4.982  0.00  0.00    -0.355 N 
ATOM     14  H   UNL     1      -2.589  -1.347  -5.840  0.00  0.00    +0.142 HD
ATOM     15  H   UNL     1      -1.633  -2.398  -4.944  0.00  0.00    +0.142 HD
ENDBRANCH   5  13
BRANCH   4  16
ATOM     16  O   UNL     1      -4.190   0.338  -5.052  0.00  0.00    -0.454 OA
BRANCH  16  17
ATOM     17  C   UNL     1      -5.113   1.335  -5.054  0.00  0.00    +0.129 A 
ATOM     18  C   UNL     1      -4.704   2.661  -5.032  0.00  0.00    +0.046 A 
ATOM     19  C   UNL     1      -5.644   3.673  -5.033  0.00  0.00    +0.009 A 
ATOM     20  C   UNL     1      -6.992   3.366  -5.056  0.00  0.00    -0.022 A 
ATOM     21  C   UNL     1      -7.403   2.046  -5.079  0.00  0.00    +0.009 A 
ATOM     22  C   UNL     1      -6.466   1.030  -5.083  0.00  0.00    +0.046 A 
BRANCH  20  23
ATOM     23  C   UNL     1      -8.016   4.472  -5.057  0.00  0.00    +0.191 C 
BRANCH  23  24
ATOM     24  O   UNL     1      -8.320   4.838  -6.404  0.00  0.00    -0.390 OA
ATOM     25  H   UNL     1      -8.974   5.547  -6.481  0.00  0.00    +0.210 HD
ENDBRANCH  23  24
ENDBRANCH  20  23
ENDBRANCH  16  17
ENDBRANCH   4  16
TORSDOF 7
