REMARK  Name = ZINC49210954
REMARK  6 active torsions:
REMARK  status: ('A' for Active; 'I' for Inactive)
REMARK    1  A    between atoms: C_1  and  C_2
REMARK    2  A    between atoms: C_3  and  C_19
REMARK    3  A    between atoms: C_5  and  C_7
REMARK    4  A    between atoms: C_7  and  N_8
REMARK    5  A    between atoms: C_14  and  C_18
REMARK    6  A    between atoms: C_15  and  C_17
REMARK                            x       y       z     vdW  Elec       q    Type
REMARK                         _______ _______ _______ _____ _____    ______ ____
ROOT
ATOM      1  N   UNL     1      -1.322  -3.664   1.881  0.00  0.00    -0.290 N 
ATOM      2  C   UNL     1      -1.550  -4.731   2.673  0.00  0.00    +0.306 C 
ATOM      3  O   UNL     1      -0.616  -5.353   3.139  0.00  0.00    -0.252 OA
ATOM      4  N   UNL     1      -2.815  -5.108   2.946  0.00  0.00    -0.248 N 
ATOM      5  C   UNL     1      -3.051  -6.208   3.762  0.00  0.00    +0.166 A 
ATOM      6  N   UNL     1      -2.174  -6.990   4.354  0.00  0.00    -0.230 NA
ATOM      7  C   UNL     1      -2.562  -8.005   5.105  0.00  0.00    +0.050 A 
ATOM      8  C   UNL     1      -3.897  -8.200   5.234  0.00  0.00    +0.011 A 
ATOM      9  S   UNL     1      -4.528  -6.860   4.238  0.00  0.00    -0.057 S 
ATOM     10  C   UNL     1      -4.643  -9.255   6.010  0.00  0.00    +0.053 C 
ATOM     11  C   UNL     1      -1.564  -8.905   5.787  0.00  0.00    +0.066 C 
ATOM     12  H   UNL     1      -2.067  -3.167   1.509  0.00  0.00    +0.151 HD
ATOM     13  H   UNL     1      -3.561  -4.612   2.574  0.00  0.00    +0.158 HD
ENDROOT
BRANCH   1  14
ATOM     14  C   UNL     1       0.053  -3.253   1.584  0.00  0.00    +0.201 C 
BRANCH  14  19
ATOM     15  C   UNL     1      -0.018   1.503   0.010  0.00  0.00    +0.069 C 
ATOM     16  C   UNL     1       0.002  -0.004   0.002  0.00  0.00    +0.079 A 
ATOM     17  C   UNL     1       0.008  -0.791  -1.087  0.00  0.00    +0.125 A 
ATOM     18  O   UNL     1       0.027  -2.067  -0.654  0.00  0.00    -0.443 OA
ATOM     19  C   UNL     1       0.033  -2.044   0.685  0.00  0.00    +0.213 A 
ATOM     20  N   UNL     1       0.024  -0.803   1.083  0.00  0.00    -0.217 NA
ATOM     21  C   UNL     1      -0.005  -0.333  -2.522  0.00  0.00    +0.088 C 
ENDBRANCH  14  19
ENDBRANCH   1  14
TORSDOF 2
