REMARK  Name = ZINC23265610
REMARK  10 active torsions:
REMARK  status: ('A' for Active; 'I' for Inactive)
REMARK    1  A    between atoms: C_1  and  C_2
REMARK    2  A    between atoms: C_2  and  C_3
REMARK    3  A    between atoms: C_2  and  C_4
REMARK    4  A    between atoms: C_7  and  C_13
REMARK    5  A    between atoms: C_8  and  C_10
REMARK    6  A    between atoms: C_10  and  C_11
REMARK    7  A    between atoms: C_10  and  C_12
REMARK    8  A    between atoms: C_19  and  C_21
REMARK    9  A    between atoms: C_21  and  N_22
REMARK   10  A    between atoms: C_31  and  C_33
REMARK                            x       y       z     vdW  Elec       q    Type
REMARK                         _______ _______ _______ _____ _____    ______ ____
ROOT
ATOM      1  C   UNL     1      -5.822  -4.693  -4.647  0.00  0.00    +0.080 A 
ATOM      2  C   UNL     1      -4.585  -4.647  -5.226  0.00  0.00    +0.076 A 
ATOM      3  S   UNL     1      -3.809  -3.367  -4.248  0.00  0.00    -0.060 S 
ATOM      4  C   UNL     1      -5.201  -3.028  -3.180  0.00  0.00    +0.165 A 
ATOM      5  N   UNL     1      -6.096  -3.885  -3.634  0.00  0.00    -0.225 NA
ATOM      6  N   UNL     1      -5.309  -2.111  -2.142  0.00  0.00    -0.263 N 
ATOM      7  C   UNL     1      -4.263  -1.322  -1.827  0.00  0.00    +0.240 C 
ATOM      8  O   UNL     1      -3.227  -1.412  -2.451  0.00  0.00    -0.273 OA
ATOM      9  H   UNL     1      -6.249  -2.029  -1.576  0.00  0.00    +0.157 HD
ENDROOT
BRANCH   1  13
ATOM     10  C   UNL     1      -8.759  -7.417  -6.073  0.00  0.00    -0.044 A 
ATOM     11  C   UNL     1      -8.099  -6.588  -6.962  0.00  0.00    +0.004 A 
ATOM     12  C   UNL     1      -7.150  -5.697  -6.504  0.00  0.00    +0.010 A 
ATOM     13  C   UNL     1      -6.847  -5.643  -5.145  0.00  0.00    +0.004 A 
ATOM     14  C   UNL     1      -7.514  -6.482  -4.254  0.00  0.00    -0.035 A 
ATOM     15  C   UNL     1      -8.467  -7.364  -4.722  0.00  0.00    +0.008 A 
BRANCH  10  17
ATOM     16  C   UNL     1     -10.925  -7.607  -7.266  0.00  0.00    +0.012 C 
ATOM     17  C   UNL     1      -9.799  -8.383  -6.578  0.00  0.00    +0.013 C 
ATOM     18  C   UNL     1      -9.158  -9.346  -7.580  0.00  0.00    +0.012 C 
ENDBRANCH  10  17
BRANCH  14  19
ATOM     19  C   UNL     1      -7.197  -6.425  -2.781  0.00  0.00    +0.013 C 
ATOM     20  C   UNL     1      -8.421  -5.922  -2.014  0.00  0.00    +0.012 C 
ATOM     21  C   UNL     1      -6.824  -7.824  -2.286  0.00  0.00    +0.012 C 
ENDBRANCH  14  19
ENDBRANCH   1  13
BRANCH   7  22
ATOM     22  C   UNL     1      -4.381  -0.327  -0.702  0.00  0.00    +0.243 C 
BRANCH  22  23
ATOM     23  N   UNL     1      -3.118   0.403  -0.561  0.00  0.00    -0.219 N 
ATOM     24  C   UNL     1      -2.957   1.542  -1.266  0.00  0.00    +0.275 A 
ATOM     25  O   UNL     1      -3.839   1.951  -1.999  0.00  0.00    -0.266 OA
ATOM     26  C   UNL     1      -1.692   2.277  -1.128  0.00  0.00    +0.050 A 
ATOM     27  C   UNL     1      -1.428   3.460  -1.810  0.00  0.00    +0.014 A 
ATOM     28  C   UNL     1      -0.215   4.090  -1.626  0.00  0.00    +0.001 A 
ATOM     29  C   UNL     1       0.739   3.556  -0.770  0.00  0.00    +0.001 A 
ATOM     30  C   UNL     1       0.496   2.385  -0.084  0.00  0.00    +0.011 A 
ATOM     31  C   UNL     1      -0.721   1.734  -0.255  0.00  0.00    +0.020 A 
ATOM     32  C   UNL     1      -1.059   0.480   0.438  0.00  0.00    +0.153 A 
ATOM     33  N   UNL     1      -2.228  -0.074   0.224  0.00  0.00    -0.162 NA
BRANCH  32  34
ATOM     34  C   UNL     1      -0.094  -0.145   1.363  0.00  0.00    +0.262 C 
ATOM     35  O   UNL     1       0.988   0.375   1.556  0.00  0.00    -0.269 OA
ATOM     36  N   UNL     1      -0.412  -1.293   1.994  0.00  0.00    -0.324 N 
ATOM     37  H   UNL     1       0.308  -1.759   2.684  0.00  0.00    +0.145 HD
ATOM     38  H   UNL     1      -1.390  -1.764   1.820  0.00  0.00    +0.145 HD
ENDBRANCH  32  34
ENDBRANCH  22  23
ENDBRANCH   7  22
TORSDOF 6
