REMARK  Name = ZINC04524184
REMARK  9 active torsions:
REMARK  status: ('A' for Active; 'I' for Inactive)
REMARK    1  A    between atoms: C_1  and  C_2
REMARK    2  A    between atoms: C_2  and  O_3
REMARK    3  A    between atoms: O_3  and  C_4
REMARK    4  A    between atoms: C_5  and  O_26
REMARK    5  A    between atoms: C_7  and  C_11
REMARK    6  A    between atoms: N_12  and  N_13
REMARK    7  A    between atoms: C_14  and  C_16
REMARK    8  A    between atoms: C_20  and  C_25
REMARK    9  A    between atoms: O_26  and  C_27
REMARK                            x       y       z     vdW  Elec       q    Type
REMARK                         _______ _______ _______ _____ _____    ______ ____
ROOT
ATOM      1  C   UNL     1       1.513  -0.107   6.026  0.00  0.00    +0.138 C 
ATOM      2  N   UNL     1       1.089  -1.161   6.653  0.00  0.00    -0.188 NA
ENDROOT
BRANCH   1   6
ATOM      3  C   UNL     1      -0.227   0.989   2.307  0.00  0.00    +0.176 A 
ATOM      4  C   UNL     1       0.797   1.763   2.849  0.00  0.00    +0.163 A 
ATOM      5  C   UNL     1       1.365   1.410   4.059  0.00  0.00    +0.059 A 
ATOM      6  C   UNL     1       0.910   0.275   4.736  0.00  0.00    -0.001 A 
ATOM      7  C   UNL     1      -0.117  -0.497   4.187  0.00  0.00    +0.028 A 
ATOM      8  C   UNL     1      -0.683  -0.135   2.981  0.00  0.00    +0.064 A 
ATOM      9 BR   UNL     1      -2.078  -1.176   2.244  0.00  0.00    -0.046 Br
BRANCH   4  10
ATOM     10  O   UNL     1       1.238   2.866   2.188  0.00  0.00    -0.491 OA
ATOM     11  C   UNL     1       2.290   3.613   2.801  0.00  0.00    +0.277 C 
ENDBRANCH   4  10
BRANCH   3  12
ATOM     12  O   UNL     1      -0.785   1.339   1.118  0.00  0.00    -0.487 OA
BRANCH  12  14
ATOM     13  C   UNL     1      -0.947   1.298  -1.293  0.00  0.00    +0.048 C 
ATOM     14  C   UNL     1      -0.190   0.796  -0.062  0.00  0.00    +0.226 C 
ENDBRANCH  12  14
ENDBRANCH   3  12
ENDBRANCH   1   6
BRANCH   2  15
ATOM     15  N   UNL     1       1.662  -1.524   7.879  0.00  0.00    -0.207 N 
ATOM     16  C   UNL     1       1.222  -2.619   8.531  0.00  0.00    +0.236 C 
ATOM     17  O   UNL     1       0.330  -3.290   8.056  0.00  0.00    -0.274 OA
ATOM     18  H   UNL     1       2.375  -0.988   8.259  0.00  0.00    +0.177 HD
BRANCH  16  19
ATOM     19  C   UNL     1       1.838  -3.009   9.850  0.00  0.00    +0.086 C 
ATOM     20  C   UNL     1       1.298  -4.271  10.540  0.00  0.00    +0.008 C 
ATOM     21  C   UNL     1       2.673  -4.282   9.887  0.00  0.00    -0.017 C 
ATOM     22  C   UNL     1       3.924  -4.362  10.717  0.00  0.00    +0.008 C 
ATOM     23  C   UNL     1       3.644  -3.878  12.139  0.00  0.00    +0.001 C 
ATOM     24  C   UNL     1       2.476  -4.690  12.711  0.00  0.00    +0.000 C 
ATOM     25  C   UNL     1       1.181  -4.204  12.061  0.00  0.00    +0.005 C 
ATOM     26  C   UNL     1       2.783  -5.049   8.568  0.00  0.00    +0.012 C 
ENDBRANCH  16  19
ENDBRANCH   2  15
TORSDOF 6
