REMARK  Name = ZINC09170176
REMARK  10 active torsions:
REMARK  status: ('A' for Active; 'I' for Inactive)
REMARK    1  A    between atoms: C_1  and  C_2
REMARK    2  A    between atoms: C_2  and  C_3
REMARK    3  A    between atoms: C_3  and  C_4
REMARK    4  A    between atoms: N_6  and  C_7
REMARK    5  A    between atoms: C_10  and  S_13
REMARK    6  A    between atoms: S_13  and  N_16
REMARK    7  A    between atoms: N_16  and  C_17
REMARK    8  A    between atoms: N_23  and  C_31
REMARK    9  A    between atoms: C_26  and  C_29
REMARK   10  A    between atoms: C_26  and  C_30
REMARK                            x       y       z     vdW  Elec       q    Type
REMARK                         _______ _______ _______ _____ _____    ______ ____
ROOT
ATOM      1  N   UNL     1      -1.490   7.372  -1.743  0.00  0.00    -0.216 N 
ATOM      2  H   UNL     1      -1.747   7.696  -0.865  0.00  0.00    +0.174 HD
ENDROOT
BRANCH   1   3
ATOM      3  C   UNL     1      -1.239   6.010  -1.940  0.00  0.00    +0.050 A 
ATOM      4  C   UNL     1      -0.123   5.607  -2.662  0.00  0.00    +0.028 A 
ATOM      5  C   UNL     1       0.130   4.262  -2.858  0.00  0.00    +0.049 A 
ATOM      6  C   UNL     1      -0.730   3.312  -2.333  0.00  0.00    +0.142 A 
ATOM      7  C   UNL     1      -1.853   3.714  -1.611  0.00  0.00    +0.080 A 
ATOM      8  C   UNL     1      -2.105   5.061  -1.413  0.00  0.00    +0.051 A 
ATOM      9  N   UNL     1      -2.721   2.743  -1.095  0.00  0.00    -0.271 N 
ATOM     10  C   UNL     1      -2.213   1.698  -0.404  0.00  0.00    +0.229 C 
ATOM     11  O   UNL     1      -2.944   0.816  -0.007  0.00  0.00    -0.275 OA
ATOM     12  C   UNL     1      -0.737   1.636  -0.132  0.00  0.00    +0.076 C 
ATOM     13  C   UNL     1       0.021   1.257  -1.403  0.00  0.00    +0.244 C 
ATOM     14  O   UNL     1      -0.486   1.986  -2.517  0.00  0.00    -0.489 OA
ATOM     15  C   UNL     1      -0.470   0.588   0.950  0.00  0.00    +0.024 C 
ATOM     16  C   UNL     1      -0.254   3.002   0.359  0.00  0.00    +0.024 C 
ATOM     17  C   UNL     1      -4.167   2.858  -1.304  0.00  0.00    +0.138 C 
ENDBRANCH   1   3
BRANCH   1  18
ATOM     18  S   UNL     1      -1.349   8.432  -3.008  0.00  0.00    +0.072 S 
ATOM     19  O   UNL     1      -1.689   9.716  -2.502  0.00  0.00    -0.150 OA
ATOM     20  O   UNL     1      -0.097   8.163  -3.624  0.00  0.00    -0.150 OA
BRANCH  18  24
ATOM     21  C   UNL     1      -4.540   7.342  -6.031  0.00  0.00    +0.033 A 
ATOM     22  C   UNL     1      -4.818   8.258  -5.025  0.00  0.00    +0.025 A 
ATOM     23  C   UNL     1      -3.842   8.588  -4.105  0.00  0.00    +0.030 A 
ATOM     24  C   UNL     1      -2.590   8.008  -4.184  0.00  0.00    +0.109 A 
ATOM     25  C   UNL     1      -2.308   7.099  -5.188  0.00  0.00    +0.030 A 
ATOM     26  C   UNL     1      -3.280   6.761  -6.108  0.00  0.00    +0.025 A 
BRANCH  21  29
ATOM     27  C   UNL     1      -6.432   7.925  -7.350  0.00  0.00    +0.217 C 
ATOM     28  O   UNL     1      -6.338   9.069  -6.959  0.00  0.00    -0.275 OA
ATOM     29  N   UNL     1      -5.526   7.005  -6.965  0.00  0.00    -0.285 N 
ATOM     30  H   UNL     1      -5.557   6.109  -7.335  0.00  0.00    +0.155 HD
BRANCH  27  31
ATOM     31  C   UNL     1      -7.563   7.532  -8.265  0.00  0.00    +0.096 C 
BRANCH  31  33
ATOM     32  C   UNL     1      -9.589   8.355  -9.474  0.00  0.00    +0.004 C 
ATOM     33  C   UNL     1      -8.441   8.754  -8.544  0.00  0.00    +0.006 C 
ENDBRANCH  31  33
ENDBRANCH  27  31
ENDBRANCH  21  29
ENDBRANCH  18  24
ENDBRANCH   1  18
TORSDOF 6
