REMARK  Name = ZINC35747252
REMARK  13 active torsions:
REMARK  status: ('A' for Active; 'I' for Inactive)
REMARK    1  A    between atoms: C_1  and  C_2
REMARK    2  A    between atoms: C_2  and  C_3
REMARK    3  A    between atoms: C_3  and  N_4
REMARK    4  A    between atoms: N_4  and  C_5
REMARK    5  A    between atoms: N_4  and  C_24
REMARK    6  A    between atoms: C_5  and  C_6
REMARK    7  A    between atoms: C_12  and  C_17
REMARK    8  A    between atoms: C_22  and  C_23
REMARK    9  A    between atoms: C_24  and  C_25
REMARK   10  A    between atoms: C_25  and  C_27
REMARK   11  A    between atoms: C_25  and  O_36
REMARK   12  A    between atoms: C_27  and  O_28
REMARK   13  A    between atoms: O_28  and  C_29
REMARK                            x       y       z     vdW  Elec       q    Type
REMARK                         _______ _______ _______ _____ _____    ______ ____
ROOT
ATOM      1  C   UNL     1       1.101  -2.523   2.590  0.00  0.00    -0.003 C 
ENDROOT
BRANCH   1   2
ATOM      2  C   UNL     1       0.187  -2.026   3.681  0.00  0.00    +0.094 A 
ATOM      3  N   UNL     1       0.413  -2.406   4.965  0.00  0.00    -0.312 N 
ATOM      4  H   UNL     1       1.160  -2.992   5.163  0.00  0.00    +0.170 HD
ATOM      5  C   UNL     1      -0.379  -1.985   5.968  0.00  0.00    +0.260 A 
ATOM      6  O   UNL     1      -0.162  -2.334   7.116  0.00  0.00    -0.267 OA
ATOM      7  C   UNL     1      -1.479  -1.121   5.668  0.00  0.00    +0.080 A 
ATOM      8  C   UNL     1      -2.467  -0.537   6.568  0.00  0.00    +0.004 A 
ATOM      9  C   UNL     1      -3.430   0.262   6.048  0.00  0.00    +0.056 A 
ATOM     10  S   UNL     1      -3.060   0.275   4.305  0.00  0.00    -0.076 S 
ATOM     11  C   UNL     1      -1.635  -0.782   4.313  0.00  0.00    +0.116 A 
ATOM     12  N   UNL     1      -0.806  -1.234   3.376  0.00  0.00    -0.229 NA
BRANCH   8  13
ATOM     13  C   UNL     1      -2.419  -0.813   8.023  0.00  0.00    -0.014 A 
ATOM     14  C   UNL     1      -3.449  -1.526   8.635  0.00  0.00    +0.009 A 
ATOM     15  C   UNL     1      -3.398  -1.780   9.990  0.00  0.00    +0.001 A 
ATOM     16  C   UNL     1      -2.328  -1.329  10.742  0.00  0.00    +0.000 A 
ATOM     17  C   UNL     1      -1.302  -0.622  10.140  0.00  0.00    +0.004 A 
ATOM     18  C   UNL     1      -1.340  -0.366   8.785  0.00  0.00    -0.043 A 
ATOM     19  C   UNL     1      -0.219   0.399   8.130  0.00  0.00    +0.044 C 
ENDBRANCH   8  13
ENDBRANCH   1   2
BRANCH   1  20
ATOM     20  N   UNL     1       0.662  -1.977   1.299  0.00  0.00    +0.386 N 
ATOM     21  H   UNL     1      -0.308  -2.209   1.147  0.00  0.00    -0.081 HD
BRANCH  20  22
ATOM     22  C   UNL     1       0.822  -0.517   1.305  0.00  0.00    -0.078 C 
BRANCH  22  24
ATOM     23  C   UNL     1       0.273   1.595   0.086  0.00  0.00    +0.002 C 
ATOM     24  C   UNL     1       0.228   0.067   0.021  0.00  0.00    -0.022 C 
ENDBRANCH  22  24
ENDBRANCH  20  22
BRANCH  20  25
ATOM     25  C   UNL     1       1.478  -2.554   0.221  0.00  0.00    -0.043 C 
BRANCH  25  26
ATOM     26  C   UNL     1       1.198  -4.055   0.119  0.00  0.00    +0.135 C 
BRANCH  26  27
ATOM     27  O   UNL     1      -0.185  -4.263  -0.172  0.00  0.00    -0.390 OA
ATOM     28  H   UNL     1      -0.460  -3.928  -1.036  0.00  0.00    +0.210 HD
ENDBRANCH  26  27
BRANCH  26  29
ATOM     29  C   UNL     1       2.051  -4.657  -1.000  0.00  0.00    +0.258 C 
BRANCH  29  30
ATOM     30  O   UNL     1       1.879  -6.075  -1.020  0.00  0.00    -0.489 OA
BRANCH  30  31
ATOM     31  C   UNL     1       2.571  -6.768  -1.962  0.00  0.00    +0.121 A 
ATOM     32  C   UNL     1       3.405  -6.096  -2.845  0.00  0.00    +0.047 A 
ATOM     33  C   UNL     1       4.108  -6.802  -3.802  0.00  0.00    +0.023 A 
ATOM     34  C   UNL     1       3.982  -8.178  -3.880  0.00  0.00    +0.041 A 
ATOM     35  C   UNL     1       3.151  -8.849  -3.000  0.00  0.00    +0.023 A 
ATOM     36  C   UNL     1       2.451  -8.148  -2.038  0.00  0.00    +0.047 A 
ATOM     37 CL   UNL     1       4.866  -9.063  -5.083  0.00  0.00    -0.084 Cl
ENDBRANCH  30  31
ENDBRANCH  29  30
ENDBRANCH  26  29
ENDBRANCH  25  26
ENDBRANCH  20  25
ENDBRANCH   1  20
TORSDOF 11
