REMARK  Name = ZINC04232924
REMARK  10 active torsions:
REMARK  status: ('A' for Active; 'I' for Inactive)
REMARK    1  A    between atoms: C_1  and  C_2
REMARK    2  A    between atoms: C_2  and  C_3
REMARK    3  A    between atoms: C_3  and  C_4
REMARK    4  A    between atoms: C_4  and  N_6
REMARK    5  A    between atoms: N_8  and  C_17
REMARK    6  A    between atoms: C_12  and  C_16
REMARK    7  A    between atoms: C_17  and  C_18
REMARK    8  A    between atoms: C_18  and  O_19
REMARK    9  A    between atoms: O_19  and  C_20
REMARK   10  A    between atoms: C_20  and  C_21
REMARK                            x       y       z     vdW  Elec       q    Type
REMARK                         _______ _______ _______ _____ _____    ______ ____
ROOT
ATOM      1  N   UNL     1      -2.913   1.460   0.006  0.00  0.00    -0.156 NA
ATOM      2  C   UNL     1      -2.127   1.757   1.038  0.00  0.00    +0.166 A 
ATOM      3  N   UNL     1      -0.778   1.621   1.137  0.00  0.00    -0.319 N 
ATOM      4  C   UNL     1      -0.126   1.991   2.298  0.00  0.00    +0.058 A 
ATOM      5  C   UNL     1       1.247   1.931   2.584  0.00  0.00    +0.027 A 
ATOM      6  C   UNL     1       1.730   2.345   3.803  0.00  0.00    +0.005 A 
ATOM      7  C   UNL     1       0.882   2.833   4.783  0.00  0.00    -0.049 A 
ATOM      8  C   UNL     1      -0.476   2.904   4.528  0.00  0.00    +0.020 A 
ATOM      9  C   UNL     1      -0.960   2.490   3.310  0.00  0.00    +0.039 A 
ATOM     10  S   UNL     1      -2.577   2.409   2.581  0.00  0.00    -0.052 S 
ATOM     11  C   UNL     1       1.433   3.281   6.112  0.00  0.00    +0.044 C 
ENDROOT
BRANCH   1  12
ATOM     12  C   UNL     1      -4.224   1.662   0.090  0.00  0.00    +0.238 C 
ATOM     13  O   UNL     1      -4.705   2.119   1.110  0.00  0.00    -0.274 OA
BRANCH  12  14
ATOM     14  C   UNL     1      -5.114   1.326  -1.078  0.00  0.00    +0.098 C 
BRANCH  14  16
ATOM     15  C   UNL     1      -7.471   1.310  -1.909  0.00  0.00    +0.004 C 
ATOM     16  C   UNL     1      -6.567   1.651  -0.723  0.00  0.00    +0.006 C 
ENDBRANCH  14  16
ENDBRANCH  12  14
ENDBRANCH   1  12
BRANCH   3  17
ATOM     17  C   UNL     1      -0.013   1.086   0.008  0.00  0.00    +0.152 C 
BRANCH  17  18
ATOM     18  C   UNL     1      -0.621   1.586  -1.304  0.00  0.00    +0.181 C 
BRANCH  18  19
ATOM     19  O   UNL     1       0.202   1.177  -2.397  0.00  0.00    -0.378 OA
BRANCH  19  20
ATOM     20  C   UNL     1      -0.280   1.595  -3.676  0.00  0.00    +0.156 C 
ATOM     21  C   UNL     1       0.674   1.104  -4.766  0.00  0.00    +0.034 C 
ENDBRANCH  19  20
ENDBRANCH  18  19
ENDBRANCH  17  18
ENDBRANCH   3  17
TORSDOF 7
