REMARK  Name = ZINC39639726
REMARK  8 active torsions:
REMARK  status: ('A' for Active; 'I' for Inactive)
REMARK    1  A    between atoms: C_1  and  C_2
REMARK    2  A    between atoms: C_2  and  C_3
REMARK    3  A    between atoms: C_3  and  N_4
REMARK    4  A    between atoms: C_8  and  C_10
REMARK    5  A    between atoms: C_10  and  O_11
REMARK    6  A    between atoms: O_11  and  C_12
REMARK    7  A    between atoms: C_12  and  C_14
REMARK    8  A    between atoms: C_20  and  C_22
REMARK                            x       y       z     vdW  Elec       q    Type
REMARK                         _______ _______ _______ _____ _____    ______ ____
ROOT
ATOM      1  C   UNL     1       3.524  -8.762  -4.945  0.00  0.00    +0.110 C 
ATOM      2  C   UNL     1       4.973  -8.271  -4.979  0.00  0.00    +0.015 C 
ATOM      3  C   UNL     1       5.364  -7.938  -6.420  0.00  0.00    +0.001 C 
ATOM      4  C   UNL     1       5.230  -9.191  -7.288  0.00  0.00    +0.001 C 
ATOM      5  C   UNL     1       3.781  -9.683  -7.253  0.00  0.00    +0.013 C 
ATOM      6  C   UNL     1       3.390 -10.016  -5.812  0.00  0.00    +0.089 C 
ENDROOT
BRANCH   6   7
ATOM      7  C   UNL     1       1.963 -10.500  -5.778  0.00  0.00    +0.224 C 
ATOM      8  O   UNL     1       1.053  -9.701  -5.709  0.00  0.00    -0.275 OA
ATOM      9  N   UNL     1       1.698 -11.820  -5.825  0.00  0.00    -0.271 N 
ATOM     10  C   UNL     1       2.709 -12.881  -5.797  0.00  0.00    +0.118 C 
ATOM     11  C   UNL     1       1.915 -14.196  -5.871  0.00  0.00    +0.056 C 
ATOM     12  C   UNL     1       0.468 -13.764  -5.938  0.00  0.00    -0.024 A 
ATOM     13  C   UNL     1       0.419 -12.379  -5.900  0.00  0.00    +0.039 A 
ATOM     14  C   UNL     1      -0.823 -11.744  -5.944  0.00  0.00    +0.024 A 
ATOM     15  C   UNL     1      -1.982 -12.487  -6.019  0.00  0.00    +0.002 A 
ATOM     16  C   UNL     1      -1.923 -13.868  -6.052  0.00  0.00    +0.000 A 
ATOM     17  C   UNL     1      -0.696 -14.504  -6.018  0.00  0.00    +0.005 A 
ENDBRANCH   6   7
BRANCH   1  18
ATOM     18  C   UNL     1       3.139  -9.090  -3.525  0.00  0.00    +0.311 C 
ATOM     19  O   UNL     1       2.792 -10.211  -3.237  0.00  0.00    -0.251 OA
BRANCH  18  20
ATOM     20  O   UNL     1       3.180  -8.137  -2.581  0.00  0.00    -0.455 OA
BRANCH  20  21
ATOM     21  C   UNL     1       2.801  -8.518  -1.257  0.00  0.00    +0.328 C 
BRANCH  21  26
ATOM     22  N   UNL     1       2.387  -6.509   3.090  0.00  0.00    -0.299 N 
ATOM     23  C   UNL     1       2.696  -6.385   1.784  0.00  0.00    +0.306 C 
ATOM     24  O   UNL     1       3.063  -5.312   1.346  0.00  0.00    -0.252 OA
ATOM     25  N   UNL     1       2.600  -7.451   0.965  0.00  0.00    -0.237 N 
ATOM     26  C   UNL     1       2.909  -7.327  -0.341  0.00  0.00    +0.258 C 
ATOM     27  O   UNL     1       3.275  -6.257  -0.778  0.00  0.00    -0.272 OA
ATOM     28  H   UNL     1       2.095  -7.365   3.441  0.00  0.00    +0.150 HD
ATOM     29  H   UNL     1       2.308  -8.307   1.315  0.00  0.00    +0.159 HD
BRANCH  22  30
ATOM     30  C   UNL     1       2.492  -5.350   3.981  0.00  0.00    +0.105 C 
BRANCH  30  32
ATOM     31  C   UNL     1       2.196  -4.549   6.329  0.00  0.00    +0.005 C 
ATOM     32  C   UNL     1       2.087  -5.758   5.399  0.00  0.00    +0.015 C 
ENDBRANCH  30  32
ENDBRANCH  22  30
ENDBRANCH  21  26
ENDBRANCH  20  21
ENDBRANCH  18  20
ENDBRANCH   1  18
TORSDOF 7
