REMARK  Name = ZINC29482122
REMARK  8 active torsions:
REMARK  status: ('A' for Active; 'I' for Inactive)
REMARK    1  A    between atoms: C_1  and  C_2
REMARK    2  A    between atoms: C_7  and  C_9
REMARK    3  A    between atoms: C_7  and  C_10
REMARK    4  A    between atoms: N_13  and  C_17
REMARK    5  A    between atoms: C_17  and  C_18
REMARK    6  A    between atoms: N_20  and  C_21
REMARK    7  A    between atoms: C_26  and  S_27
REMARK    8  A    between atoms: S_27  and  C_28
REMARK                            x       y       z     vdW  Elec       q    Type
REMARK                         _______ _______ _______ _____ _____    ______ ____
ROOT
ATOM      1  C   UNL     1      -0.075   1.530   0.023  0.00  0.00    +0.007 C 
ATOM      2  C   UNL     1      -0.043  -0.001   0.012  0.00  0.00    -0.011 C 
ATOM      3  C   UNL     1      -1.476  -0.537   0.032  0.00  0.00    +0.038 C 
ATOM      4  C   UNL     1      -1.456  -2.058  -0.028  0.00  0.00    +0.113 C 
ATOM      5  C   UNL     1      -0.598  -2.679   1.055  0.00  0.00    +0.041 C 
ATOM      6  C   UNL     1       0.754  -2.024   1.276  0.00  0.00    -0.032 C 
ATOM      7  C   UNL     1       0.679  -0.501   1.261  0.00  0.00    +0.009 C 
ATOM      8  C   UNL     1       1.273  -2.455   2.665  0.00  0.00    +0.011 C 
ATOM      9  C   UNL     1       1.769  -2.510   0.237  0.00  0.00    +0.011 C 
ATOM     10  C   UNL     1      -1.071  -2.537  -1.406  0.00  0.00    +0.247 C 
ATOM     11  O   UNL     1      -0.088  -2.247  -2.054  0.00  0.00    -0.273 OA
ATOM     12  N   UNL     1      -2.072  -3.353  -1.804  0.00  0.00    -0.215 N 
ATOM     13  C   UNL     1      -3.083  -3.350  -0.929  0.00  0.00    +0.310 C 
ATOM     14  O   UNL     1      -4.104  -3.995  -1.074  0.00  0.00    -0.252 OA
ATOM     15  N   UNL     1      -2.842  -2.556   0.128  0.00  0.00    -0.285 N 
ATOM     16  H   UNL     1      -3.444  -2.342   0.855  0.00  0.00    +0.151 HD
ENDROOT
BRANCH  12  17
ATOM     17  C   UNL     1      -2.048  -4.141  -3.038  0.00  0.00    +0.214 C 
BRANCH  17  18
ATOM     18  C   UNL     1      -1.437  -5.490  -2.761  0.00  0.00    +0.235 C 
ATOM     19  O   UNL     1      -1.059  -5.767  -1.642  0.00  0.00    -0.274 OA
ATOM     20  N   UNL     1      -1.311  -6.390  -3.757  0.00  0.00    -0.283 N 
ATOM     21  H   UNL     1      -1.672  -6.195  -4.636  0.00  0.00    +0.155 HD
BRANCH  20  22
ATOM     22  C   UNL     1      -0.659  -7.608  -3.522  0.00  0.00    +0.047 A 
ATOM     23  C   UNL     1      -0.771  -8.230  -2.288  0.00  0.00    +0.024 A 
ATOM     24  C   UNL     1      -0.127  -9.432  -2.058  0.00  0.00    +0.002 A 
ATOM     25  C   UNL     1       0.630 -10.018  -3.056  0.00  0.00    +0.001 A 
ATOM     26  C   UNL     1       0.748  -9.405  -4.289  0.00  0.00    +0.017 A 
ATOM     27  C   UNL     1       0.100  -8.202  -4.531  0.00  0.00    +0.034 A 
BRANCH  27  28
ATOM     28  S   UNL     1       0.242  -7.422  -6.104  0.00  0.00    -0.054 S 
BRANCH  28  29
ATOM     29  C   UNL     1       1.302  -8.544  -7.057  0.00  0.00    +0.404 C 
ATOM     30  F   UNL     1       2.540  -8.671  -6.417  0.00  0.00    -0.197 F 
ATOM     31  F   UNL     1       0.692  -9.800  -7.144  0.00  0.00    -0.197 F 
ENDBRANCH  28  29
ENDBRANCH  27  28
ENDBRANCH  20  22
ENDBRANCH  17  18
ENDBRANCH  12  17
TORSDOF 5
