REMARK  Name = ZINC20682518
REMARK  7 active torsions:
REMARK  status: ('A' for Active; 'I' for Inactive)
REMARK    1  A    between atoms: C_1  and  C_2
REMARK    2  A    between atoms: C_2  and  N_3
REMARK    3  A    between atoms: N_3  and  C_4
REMARK    4  A    between atoms: C_10  and  C_12
REMARK    5  A    between atoms: C_25  and  C_28
REMARK    6  A    between atoms: C_31  and  O_35
REMARK    7  A    between atoms: C_33  and  O_34
REMARK                            x       y       z     vdW  Elec       q    Type
REMARK                         _______ _______ _______ _____ _____    ______ ____
ROOT
ATOM      1  C   UNL     1      -2.677   1.712   2.737  0.00  0.00    +0.038 A 
ATOM      2  C   UNL     1      -1.666   2.030   3.649  0.00  0.00    +0.015 A 
ATOM      3  C   UNL     1      -0.472   1.350   3.616  0.00  0.00    +0.024 A 
ATOM      4  C   UNL     1      -0.257   0.341   2.679  0.00  0.00    +0.031 A 
ATOM      5  C   UNL     1      -1.281   0.028   1.757  0.00  0.00    -0.019 A 
ATOM      6  C   UNL     1      -2.468   0.698   1.799  0.00  0.00    +0.019 A 
ATOM      7  C   UNL     1      -1.011  -1.076   0.809  0.00  0.00    +0.049 C 
ATOM      8  C   UNL     1      -1.691  -1.143  -0.509  0.00  0.00    -0.023 C 
ATOM      9  C   UNL     1      -0.870  -1.716  -1.381  0.00  0.00    -0.030 C 
ATOM     10  C   UNL     1       0.460  -2.051  -0.705  0.00  0.00    +0.033 C 
ATOM     11  C   UNL     1       0.499  -1.017   0.428  0.00  0.00    +0.029 C 
ATOM     12  C   UNL     1       1.249  -1.400   1.692  0.00  0.00    +0.108 C 
ATOM     13  N   UNL     1       0.971  -0.319   2.662  0.00  0.00    -0.336 N 
ATOM     14  H   UNL     1       1.741  -0.021   3.389  0.00  0.00    +0.147 HD
ENDROOT
BRANCH  12  15
ATOM     15  C   UNL     1       2.728  -1.483   1.414  0.00  0.00    +0.015 A 
ATOM     16  C   UNL     1       3.556  -0.432   1.762  0.00  0.00    +0.012 A 
ATOM     17  C   UNL     1       4.912  -0.505   1.509  0.00  0.00    +0.046 A 
ATOM     18  C   UNL     1       5.447  -1.635   0.906  0.00  0.00    +0.120 A 
ATOM     19  C   UNL     1       4.618  -2.690   0.556  0.00  0.00    +0.091 A 
ATOM     20  C   UNL     1       3.258  -2.616   0.815  0.00  0.00    +0.125 A 
BRANCH  20  21
ATOM     21  O   UNL     1       2.445  -3.651   0.479  0.00  0.00    -0.506 OA
ATOM     22  H   UNL     1       2.865  -4.550   0.004  0.00  0.00    +0.292 HD
ENDBRANCH  20  21
BRANCH  18  23
ATOM     23  O   UNL     1       6.781  -1.706   0.657  0.00  0.00    -0.507 OA
ATOM     24  H   UNL     1       7.204  -2.602   0.178  0.00  0.00    +0.292 HD
ENDBRANCH  18  23
ENDBRANCH  12  15
BRANCH   1  26
ATOM     25  N   UNL     1      -4.427   2.935   3.929  0.00  0.00    -0.268 N 
ATOM     26  C   UNL     1      -3.957   2.445   2.765  0.00  0.00    +0.251 C 
ATOM     27  O   UNL     1      -4.587   2.606   1.738  0.00  0.00    -0.270 OA
BRANCH  25  28
ATOM     28  C   UNL     1      -5.709   3.493   3.985  0.00  0.00    +0.037 A 
ATOM     29  C   UNL     1      -6.136   4.139   5.138  0.00  0.00    +0.023 A 
ATOM     30  C   UNL     1      -7.400   4.695   5.188  0.00  0.00    +0.002 A 
ATOM     31  C   UNL     1      -8.243   4.598   4.097  0.00  0.00    +0.000 A 
ATOM     32  C   UNL     1      -7.823   3.950   2.949  0.00  0.00    +0.002 A 
ATOM     33  C   UNL     1      -6.558   3.398   2.890  0.00  0.00    +0.023 A 
ENDBRANCH  25  28
BRANCH  25  35
ATOM     34  C   UNL     1      -2.933   4.245   5.355  0.00  0.00    +0.025 C 
ATOM     35  C   UNL     1      -3.597   2.884   5.134  0.00  0.00    +0.110 C 
ENDBRANCH  25  35
ENDBRANCH   1  26
TORSDOF 6
