REMARK  Name = ZINC33249862
REMARK  9 active torsions:
REMARK  status: ('A' for Active; 'I' for Inactive)
REMARK    1  A    between atoms: C_1  and  C_2
REMARK    2  A    between atoms: C_2  and  C_24
REMARK    3  A    between atoms: C_7  and  C_20
REMARK    4  A    between atoms: N_11  and  C_12
REMARK    5  A    between atoms: C_12  and  C_13
REMARK    6  A    between atoms: C_13  and  C_14
REMARK    7  A    between atoms: C_20  and  O_22
REMARK    8  A    between atoms: O_22  and  C_23
REMARK    9  A    between atoms: N_26  and  C_27
REMARK                            x       y       z     vdW  Elec       q    Type
REMARK                         _______ _______ _______ _____ _____    ______ ____
ROOT
ATOM      1  C   UNL     1       3.730  -2.143  -0.189  0.00  0.00    +0.043 C 
ATOM      2  C   UNL     1       3.712  -1.691  -1.651  0.00  0.00    +0.129 C 
ATOM      3  C   UNL     1       4.705  -2.543  -2.441  0.00  0.00    +0.158 C 
ATOM      4  N   UNL     1       6.069  -2.124  -2.115  0.00  0.00    -0.323 N 
ATOM      5  C   UNL     1       7.216  -2.805  -2.106  0.00  0.00    +0.200 A 
ATOM      6  N   UNL     1       8.197  -2.005  -1.768  0.00  0.00    -0.228 NA
ATOM      7  C   UNL     1       7.712  -0.766  -1.538  0.00  0.00    +0.178 A 
ATOM      8  C   UNL     1       6.359  -0.825  -1.746  0.00  0.00    +0.138 A 
ATOM      9  C   UNL     1       5.297   0.188  -1.635  0.00  0.00    +0.266 C 
ATOM     10  O   UNL     1       5.550   1.367  -1.482  0.00  0.00    -0.268 OA
ATOM     11  N   UNL     1       4.023  -0.267  -1.707  0.00  0.00    -0.280 N 
ENDROOT
BRANCH   2  12
ATOM     12  C   UNL     1       2.330  -1.910  -2.210  0.00  0.00    +0.238 C 
ATOM     13  O   UNL     1       1.537  -2.605  -1.611  0.00  0.00    -0.273 OA
ATOM     14  N   UNL     1       1.975  -1.333  -3.375  0.00  0.00    -0.311 N 
ATOM     15  H   UNL     1       2.719  -0.770  -3.959  0.00  0.00    +0.149 HD
BRANCH  14  16
ATOM     16  C   UNL     1       0.600  -1.456  -3.865  0.00  0.00    +0.073 C 
ATOM     17  C   UNL     1       0.429  -2.801  -4.572  0.00  0.00    +0.022 C 
ATOM     18  C   UNL     1      -1.008  -2.929  -5.083  0.00  0.00    +0.002 C 
ATOM     19  C   UNL     1      -1.302  -1.795  -6.067  0.00  0.00    +0.000 C 
ATOM     20  C   UNL     1      -1.131  -0.449  -5.359  0.00  0.00    +0.002 C 
ATOM     21  C   UNL     1       0.305  -0.321  -4.848  0.00  0.00    +0.022 C 
ENDBRANCH  14  16
ENDBRANCH   2  12
BRANCH   7  22
ATOM     22  C   UNL     1       8.491   0.424  -1.138  0.00  0.00    +0.360 C 
ATOM     23  O   UNL     1       7.928   1.486  -0.962  0.00  0.00    -0.243 OA
BRANCH  22  24
ATOM     24  O   UNL     1       9.824   0.331  -0.968  0.00  0.00    -0.463 OA
ATOM     25  C   UNL     1      10.524   1.540  -0.575  0.00  0.00    +0.280 C 
ENDBRANCH  22  24
ENDBRANCH   7  22
BRANCH  11  26
ATOM     26  C   UNL     1       2.929   0.696  -1.851  0.00  0.00    +0.113 C 
BRANCH  26  27
ATOM     27  C   UNL     1       2.530   1.226  -0.472  0.00  0.00    +0.049 C 
BRANCH  27  28
ATOM     28  C   UNL     1       1.328   2.125  -0.607  0.00  0.00    -0.072 C 
ATOM     29  C   UNL     1       0.160   1.616  -0.380  0.00  0.00    -0.028 C 
ATOM     30  C   UNL     1      -1.126   2.381  -0.490  0.00  0.00    +0.027 C 
ATOM     31  C   UNL     1      -0.846   3.887  -0.468  0.00  0.00    +0.004 C 
ATOM     32  C   UNL     1       0.257   4.186  -1.492  0.00  0.00    +0.005 C 
ATOM     33  C   UNL     1       1.561   3.556  -0.997  0.00  0.00    +0.030 C 
ENDBRANCH  27  28
ENDBRANCH  26  27
ENDBRANCH  11  26
TORSDOF 7
