REMARK  Name = ZINC43074560
REMARK  5 active torsions:
REMARK  status: ('A' for Active; 'I' for Inactive)
REMARK    1  A    between atoms: C_6  and  C_7
REMARK    2  A    between atoms: N_9  and  N_10
REMARK    3  A    between atoms: N_13  and  C_14
REMARK    4  A    between atoms: C_14  and  C_15
REMARK    5  A    between atoms: C_15  and  C_16
REMARK                            x       y       z     vdW  Elec       q    Type
REMARK                         _______ _______ _______ _____ _____    ______ ____
ROOT
ATOM      1  N   UNL     1      -3.644  -0.825   0.029  0.00  0.00    -0.218 N 
ATOM      2  C   UNL     1      -4.822  -0.169   0.043  0.00  0.00    +0.316 C 
ATOM      3  O   UNL     1      -5.865  -0.793   0.049  0.00  0.00    -0.251 OA
ATOM      4  N   UNL     1      -4.842   1.179   0.051  0.00  0.00    -0.298 N 
ATOM      5  H   UNL     1      -3.630  -1.794   0.024  0.00  0.00    +0.174 HD
ATOM      6  H   UNL     1      -4.010   1.677   0.046  0.00  0.00    +0.150 HD
ENDROOT
BRANCH   1   9
ATOM      7  C   UNL     1      -1.265  -0.762   0.009  0.00  0.00    +0.260 C 
ATOM      8  O   UNL     1      -1.246  -1.977   0.002  0.00  0.00    -0.269 OA
ATOM      9  N   UNL     1      -2.442  -0.106   0.023  0.00  0.00    -0.229 N 
ATOM     10  H   UNL     1      -2.457   0.864   0.028  0.00  0.00    +0.173 HD
BRANCH   7  16
ATOM     11  C   UNL     1      -0.017   1.392   0.010  0.00  0.00    +0.017 A 
ATOM     12  C   UNL     1       1.167   2.097   0.002  0.00  0.00    +0.050 A 
ATOM     13  C   UNL     1       2.383   1.423  -0.012  0.00  0.00    +0.162 A 
ATOM     14  C   UNL     1       2.408   0.030  -0.017  0.00  0.00    +0.163 A 
ATOM     15  C   UNL     1       1.224  -0.682  -0.012  0.00  0.00    +0.062 A 
ATOM     16  C   UNL     1       0.002  -0.004   0.002  0.00  0.00    +0.042 A 
ATOM     17  O   UNL     1       3.591  -0.644  -0.023  0.00  0.00    -0.485 OA
ATOM     18  C   UNL     1       4.754   0.100  -0.403  0.00  0.00    +0.270 C 
ATOM     19  C   UNL     1       4.732   1.440   0.344  0.00  0.00    +0.270 C 
ATOM     20  O   UNL     1       3.538   2.139  -0.022  0.00  0.00    -0.485 OA
ENDBRANCH   7  16
ENDBRANCH   1   9
BRANCH   4  21
ATOM     21  C   UNL     1      -6.122   1.892   0.066  0.00  0.00    +0.106 C 
BRANCH  21  22
ATOM     22  C   UNL     1      -5.866   3.400   0.072  0.00  0.00    +0.025 C 
BRANCH  22  23
ATOM     23  C   UNL     1      -7.202   4.145   0.087  0.00  0.00    -0.027 C 
ATOM     24  C   UNL     1      -8.009   3.770  -1.157  0.00  0.00    +0.010 C 
ATOM     25  C   UNL     1      -9.346   4.514  -1.141  0.00  0.00    -0.010 C 
ATOM     26  C   UNL     1      -9.089   6.022  -1.135  0.00  0.00    +0.007 C 
ATOM     27  C   UNL     1      -8.282   6.398   0.109  0.00  0.00    -0.010 C 
ATOM     28  C   UNL     1      -6.946   5.653   0.093  0.00  0.00    +0.010 C 
ATOM     29  C   UNL     1      -9.068   6.009   1.363  0.00  0.00    +0.007 C 
ATOM     30  C   UNL     1      -9.324   4.501   1.357  0.00  0.00    -0.010 C 
ATOM     31  C   UNL     1     -10.132   4.126   0.113  0.00  0.00    +0.007 C 
ATOM     32  C   UNL     1      -7.988   3.756   1.341  0.00  0.00    +0.010 C 
ENDBRANCH  22  23
ENDBRANCH  21  22
ENDBRANCH   4  21
TORSDOF 5
