REMARK  Name = ZINC14535076
REMARK  7 active torsions:
REMARK  status: ('A' for Active; 'I' for Inactive)
REMARK    1  A    between atoms: C_1  and  N_2
REMARK    2  A    between atoms: C_5  and  C_7
REMARK    3  A    between atoms: C_20  and  N_62
REMARK    4  A    between atoms: C_24  and  C_25
REMARK    5  A    between atoms: C_24  and  N_62
REMARK    6  A    between atoms: C_25  and  C_26
REMARK    7  A    between atoms: C_26  and  C_27
REMARK                            x       y       z     vdW  Elec       q    Type
REMARK                         _______ _______ _______ _____ _____    ______ ____
ROOT
ATOM      1  C   UNL     1      -3.595   2.850   2.997  0.00  0.00    +0.172 C 
ATOM      2  N   UNL     1      -2.309   2.322   2.535  0.00  0.00    -0.270 N 
ATOM      3  C   UNL     1      -2.014   2.017   1.261  0.00  0.00    +0.043 A 
ATOM      4  C   UNL     1      -0.735   1.565   1.242  0.00  0.00    +0.004 A 
ATOM      5  C   UNL     1      -0.289   1.615   2.572  0.00  0.00    +0.151 A 
ATOM      6  N   UNL     1      -1.295   2.082   3.292  0.00  0.00    -0.166 NA
ATOM      7  C   UNL     1      -0.007   1.119   0.005  0.00  0.00    +0.023 C 
ATOM      8  C   UNL     1      -0.773   1.637  -1.220  0.00  0.00    -0.067 C 
ATOM      9  C   UNL     1      -2.256   1.286  -1.081  0.00  0.00    -0.009 C 
ATOM     10  C   UNL     1      -2.885   2.130   0.035  0.00  0.00    +0.054 C 
ENDROOT
BRANCH   5  11
ATOM     11  C   UNL     1       1.045   1.222   3.070  0.00  0.00    +0.267 C 
ATOM     12  O   UNL     1       1.847   0.705   2.317  0.00  0.00    -0.268 OA
ATOM     13  N   UNL     1       1.373   1.435   4.360  0.00  0.00    -0.292 N 
ATOM     14  C   UNL     1       2.720   1.130   4.868  0.00  0.00    +0.113 C 
ATOM     15  C   UNL     1       3.366   2.444   5.306  0.00  0.00    +0.054 C 
ATOM     16  C   UNL     1       2.420   3.250   6.155  0.00  0.00    -0.041 A 
ATOM     17  C   UNL     1       2.965   4.234   6.971  0.00  0.00    +0.004 A 
ATOM     18  C   UNL     1       2.153   5.015   7.766  0.00  0.00    +0.000 A 
ATOM     19  C   UNL     1       0.784   4.821   7.753  0.00  0.00    +0.000 A 
ATOM     20  C   UNL     1       0.241   3.842   6.947  0.00  0.00    +0.005 A 
ATOM     21  C   UNL     1       1.057   3.051   6.151  0.00  0.00    -0.027 A 
ATOM     22  C   UNL     1       0.403   1.987   5.312  0.00  0.00    +0.143 C 
ENDBRANCH   5  11
BRANCH   8  23
ATOM     23  N   UNL     1      -0.228   1.003  -2.436  0.00  0.00    +0.381 N 
ATOM     24  H   UNL     1      -0.681   0.092  -2.574  0.00  0.00    -0.086 HD
ATOM     25  H   UNL     1       0.784   0.870  -2.324  0.00  0.00    -0.086 HD
BRANCH  23  26
ATOM     26  C   UNL     1      -0.479   1.855  -3.614  0.00  0.00    -0.082 C 
BRANCH  26  27
ATOM     27  C   UNL     1       0.096   1.173  -4.857  0.00  0.00    -0.014 C 
BRANCH  27  28
ATOM     28  C   UNL     1      -0.160   2.050  -6.084  0.00  0.00    +0.033 C 
BRANCH  28  29
ATOM     29  C   UNL     1       0.406   1.378  -7.308  0.00  0.00    -0.045 A 
ATOM     30  C   UNL     1       1.711   1.619  -7.710  0.00  0.00    +0.023 A 
ATOM     31  C   UNL     1       2.197   0.982  -8.836  0.00  0.00    +0.111 A 
ATOM     32  N   UNL     1       1.432   0.161  -9.530  0.00  0.00    -0.263 NA
ATOM     33  C   UNL     1       0.185  -0.088  -9.180  0.00  0.00    +0.111 A 
ATOM     34  C   UNL     1      -0.368   0.509  -8.063  0.00  0.00    +0.023 A 
ENDBRANCH  28  29
ENDBRANCH  27  28
ENDBRANCH  26  27
ENDBRANCH  23  26
ENDBRANCH   8  23
TORSDOF 6
