REMARK  Name = ZINC20093021
REMARK  6 active torsions:
REMARK  status: ('A' for Active; 'I' for Inactive)
REMARK    1  A    between atoms: C_1  and  C_2
REMARK    2  A    between atoms: C_5  and  C_9
REMARK    3  A    between atoms: C_6  and  O_8
REMARK    4  A    between atoms: C_9  and  C_11
REMARK    5  A    between atoms: C_9  and  N_12
REMARK    6  A    between atoms: N_12  and  C_13
REMARK                            x       y       z     vdW  Elec       q    Type
REMARK                         _______ _______ _______ _____ _____    ______ ____
ROOT
ATOM      1  C   UNL     1      -2.551   3.880   0.048  0.00  0.00    +0.101 C 
ATOM      2  C   UNL     1      -3.176   4.025  -1.341  0.00  0.00    +0.033 C 
ENDROOT
BRANCH   1   7
ATOM      3  C   UNL     1       2.557   1.208  -0.402  0.00  0.00    +0.044 C 
ATOM      4  C   UNL     1       1.224   1.902  -0.284  0.00  0.00    -0.047 A 
ATOM      5  C   UNL     1       1.160   3.283  -0.306  0.00  0.00    +0.004 A 
ATOM      6  C   UNL     1      -0.061   3.923  -0.199  0.00  0.00    +0.009 A 
ATOM      7  C   UNL     1      -1.221   3.183  -0.069  0.00  0.00    +0.014 A 
ATOM      8  C   UNL     1      -1.160   1.797  -0.053  0.00  0.00    +0.122 A 
ATOM      9  C   UNL     1       0.068   1.158  -0.155  0.00  0.00    +0.049 A 
BRANCH   8  10
ATOM     10  O   UNL     1      -2.300   1.067   0.068  0.00  0.00    -0.506 OA
ATOM     11  H   UNL     1      -2.250  -0.032   0.080  0.00  0.00    +0.292 HD
ENDBRANCH   8  10
ENDBRANCH   1   7
BRANCH   1  12
ATOM     12  N   UNL     1      -2.357   5.207   0.637  0.00  0.00    -0.337 N 
ATOM     13  H   UNL     1      -1.388   5.718   0.534  0.00  0.00    +0.147 HD
BRANCH  12  14
ATOM     14  C   UNL     1      -3.403   5.825   1.331  0.00  0.00    +0.031 A 
ATOM     15  C   UNL     1      -4.626   5.180   1.462  0.00  0.00    +0.027 A 
ATOM     16  C   UNL     1      -5.660   5.789   2.147  0.00  0.00    +0.051 A 
ATOM     17  C   UNL     1      -5.480   7.044   2.705  0.00  0.00    +0.166 A 
ATOM     18  C   UNL     1      -4.255   7.693   2.577  0.00  0.00    +0.168 A 
ATOM     19  C   UNL     1      -3.217   7.080   1.894  0.00  0.00    +0.072 A 
ATOM     20  O   UNL     1      -4.333   8.902   3.207  0.00  0.00    -0.453 OA
ATOM     21  C   UNL     1      -5.481   8.812   4.072  0.00  0.00    +0.466 C 
ATOM     22  O   UNL     1      -6.326   7.847   3.417  0.00  0.00    -0.453 OA
ENDBRANCH  12  14
ENDBRANCH   1  12
TORSDOF 4
