REMARK  Name = ZINC12717431
REMARK  9 active torsions:
REMARK  status: ('A' for Active; 'I' for Inactive)
REMARK    1  A    between atoms: C_1  and  C_2
REMARK    2  A    between atoms: C_2  and  C_3
REMARK    3  A    between atoms: C_10  and  C_15
REMARK    4  A    between atoms: C_15  and  N_63
REMARK    5  A    between atoms: C_16  and  C_17
REMARK    6  A    between atoms: C_16  and  N_63
REMARK    7  A    between atoms: C_22  and  C_23
REMARK    8  A    between atoms: C_22  and  N_63
REMARK    9  A    between atoms: N_27  and  C_28
REMARK                            x       y       z     vdW  Elec       q    Type
REMARK                         _______ _______ _______ _____ _____    ______ ____
ROOT
ATOM      1  N   UNL     1      -2.066   4.345   0.537  0.00  0.00    +0.392 N 
ATOM      2  H   UNL     1      -2.111   5.092  -0.166  0.00  0.00    -0.080 HD
ENDROOT
BRANCH   1   3
ATOM      3  C   UNL     1      -2.863   4.746   1.715  0.00  0.00    -0.036 C 
BRANCH   3  11
ATOM      4  C   UNL     1      -2.825  10.918   2.159  0.00  0.00    -0.047 A 
ATOM      5  C   UNL     1      -1.739  11.005   3.020  0.00  0.00    +0.005 A 
ATOM      6  C   UNL     1      -1.093   9.868   3.455  0.00  0.00    +0.026 A 
ATOM      7  C   UNL     1      -1.531   8.619   3.026  0.00  0.00    +0.049 A 
ATOM      8  C   UNL     1      -2.631   8.534   2.153  0.00  0.00    -0.001 A 
ATOM      9  C   UNL     1      -3.272   9.702   1.725  0.00  0.00    +0.013 A 
ATOM     10  C   UNL     1      -3.080   7.215   1.704  0.00  0.00    +0.017 A 
ATOM     11  C   UNL     1      -2.423   6.119   2.155  0.00  0.00    +0.001 A 
ATOM     12  C   UNL     1      -1.325   6.258   3.030  0.00  0.00    +0.251 A 
ATOM     13  O   UNL     1      -0.745   5.260   3.420  0.00  0.00    -0.268 OA
ATOM     14  N   UNL     1      -0.902   7.466   3.444  0.00  0.00    -0.322 N 
ATOM     15  H   UNL     1      -0.144   7.526   4.046  0.00  0.00    +0.169 HD
BRANCH   4  17
ATOM     16  C   UNL     1      -4.641  12.526   2.673  0.00  0.00    +0.009 C 
ATOM     17  C   UNL     1      -3.516  12.175   1.698  0.00  0.00    +0.032 C 
ENDBRANCH   4  17
ENDBRANCH   3  11
ENDBRANCH   1   3
BRANCH   1  18
ATOM     18  C   UNL     1      -0.655   4.138   0.927  0.00  0.00    -0.002 C 
BRANCH  18  19
ATOM     19  C   UNL     1       0.164   3.900  -0.315  0.00  0.00    +0.089 A 
ATOM     20  C   UNL     1       0.827   4.841  -1.012  0.00  0.00    +0.042 A 
ATOM     21  C   UNL     1       1.455   4.183  -2.094  0.00  0.00    +0.041 A 
ATOM     22  C   UNL     1       1.138   2.879  -1.994  0.00  0.00    +0.195 A 
ATOM     23  O   UNL     1       0.361   2.713  -0.911  0.00  0.00    -0.470 OA
ENDBRANCH  18  19
ENDBRANCH   1  18
BRANCH   1  24
ATOM     24  C   UNL     1      -2.616   3.103  -0.046  0.00  0.00    +0.001 C 
BRANCH  24  25
ATOM     25  C   UNL     1      -3.861   3.445  -0.825  0.00  0.00    +0.135 A 
ATOM     26  N   UNL     1      -5.078   3.545  -0.350  0.00  0.00    -0.115 NA
ATOM     27  N   UNL     1      -5.862   3.852  -1.325  0.00  0.00    -0.023 NA
ATOM     28  N   UNL     1      -5.175   3.956  -2.409  0.00  0.00    -0.044 NA
ATOM     29  N   UNL     1      -3.938   3.707  -2.143  0.00  0.00    -0.228 N 
BRANCH  29  30
ATOM     30  C   UNL     1      -2.824   3.715  -3.095  0.00  0.00    +0.111 C 
ATOM     31  C   UNL     1      -2.781   5.062  -3.819  0.00  0.00    +0.027 C 
ATOM     32  C   UNL     1      -1.619   5.069  -4.813  0.00  0.00    +0.002 C 
ATOM     33  C   UNL     1      -1.814   3.947  -5.835  0.00  0.00    +0.000 C 
ATOM     34  C   UNL     1      -1.857   2.600  -5.111  0.00  0.00    +0.002 C 
ATOM     35  C   UNL     1      -3.019   2.592  -4.116  0.00  0.00    +0.027 C 
ENDBRANCH  29  30
ENDBRANCH  24  25
ENDBRANCH   1  24
TORSDOF 8
