REMARK  Name = ZINC41262316
REMARK  3 active torsions:
REMARK  status: ('A' for Active; 'I' for Inactive)
REMARK    1  A    between atoms: C_1  and  N_2
REMARK    2  A    between atoms: C_3  and  C_5
REMARK    3  A    between atoms: C_11  and  C_13
REMARK                            x       y       z     vdW  Elec       q    Type
REMARK                         _______ _______ _______ _____ _____    ______ ____
ROOT
ATOM      1  C   UNL     1      -0.388  -1.603   2.183  0.00  0.00    +0.078 C 
ATOM      2  C   UNL     1      -1.548  -2.505   1.755  0.00  0.00    +0.032 C 
ATOM      3  C   UNL     1      -0.999  -3.873   1.341  0.00  0.00    +0.108 C 
ATOM      4  N   UNL     1      -0.191  -4.412   2.443  0.00  0.00    -0.301 N 
ATOM      5  C   UNL     1       0.895  -3.587   2.991  0.00  0.00    +0.108 C 
ATOM      6  C   UNL     1       0.325  -2.222   3.387  0.00  0.00    +0.032 C 
ATOM      7  C   UNL     1      -0.440  -5.639   2.942  0.00  0.00    +0.219 C 
ATOM      8  O   UNL     1      -1.388  -6.278   2.536  0.00  0.00    -0.275 OA
ENDROOT
BRANCH   7   9
ATOM      9  C   UNL     1       0.459  -6.218   4.004  0.00  0.00    +0.075 C 
ATOM     10  C   UNL     1       1.698  -6.829   3.346  0.00  0.00    +0.013 C 
ATOM     11  C   UNL     1       2.611  -7.416   4.424  0.00  0.00    +0.001 C 
ATOM     12  C   UNL     1       1.856  -8.500   5.196  0.00  0.00    +0.000 C 
ATOM     13  C   UNL     1       0.617  -7.890   5.854  0.00  0.00    +0.001 C 
ATOM     14  C   UNL     1      -0.295  -7.302   4.775  0.00  0.00    +0.013 C 
ENDBRANCH   7   9
BRANCH   1  17
ATOM     15  C   UNL     1      -2.108   1.813   2.016  0.00  0.00    +0.128 C 
ATOM     16  N   UNL     1      -1.590   0.493   1.650  0.00  0.00    -0.318 N 
ATOM     17  C   UNL     1      -0.921  -0.244   2.559  0.00  0.00    +0.216 C 
ATOM     18  O   UNL     1      -0.748   0.186   3.680  0.00  0.00    -0.276 OA
ATOM     19  H   UNL     1      -1.729   0.148   0.754  0.00  0.00    +0.148 HD
ENDBRANCH   1  17
TORSDOF 2
