REMARK  Name = ZINC64958775
REMARK  5 active torsions:
REMARK  status: ('A' for Active; 'I' for Inactive)
REMARK    1  A    between atoms: C_1  and  C_2
REMARK    2  A    between atoms: C_5  and  C_9
REMARK    3  A    between atoms: C_6  and  C_8
REMARK    4  A    between atoms: C_22  and  C_25
REMARK    5  A    between atoms: N_27  and  C_28
REMARK                            x       y       z     vdW  Elec       q    Type
REMARK                         _______ _______ _______ _____ _____    ______ ____
ROOT
ATOM      1  C   UNL     1      -1.190  -4.516   0.049  0.00  0.00    +0.094 A 
ATOM      2  C   UNL     1      -0.932  -5.216  -1.132  0.00  0.00    +0.061 A 
ATOM      3  C   UNL     1      -0.285  -6.389  -0.788  0.00  0.00    +0.107 A 
ATOM      4  C   UNL     1       0.218  -7.482  -1.534  0.00  0.00    +0.147 A 
ATOM      5  N   UNL     1       0.802  -8.483  -0.903  0.00  0.00    -0.237 NA
ATOM      6  C   UNL     1       0.926  -8.483   0.428  0.00  0.00    +0.132 A 
ATOM      7  C   UNL     1       0.462  -7.465   1.179  0.00  0.00    +0.133 A 
ATOM      8  N   UNL     1      -0.153  -6.397   0.579  0.00  0.00    -0.234 N 
ATOM      9  N   UNL     1      -0.720  -5.217   1.068  0.00  0.00    -0.166 NA
ATOM     10  N   UNL     1       0.099  -7.501  -2.913  0.00  0.00    -0.313 N 
ATOM     11  C   UNL     1       0.077  -6.247  -3.680  0.00  0.00    +0.106 C 
ATOM     12  C   UNL     1      -1.171  -6.234  -4.568  0.00  0.00    +0.020 C 
ATOM     13  C   UNL     1      -1.193  -7.498  -5.430  0.00  0.00    +0.016 C 
ATOM     14  C   UNL     1      -1.256  -8.732  -4.527  0.00  0.00    +0.092 C 
ATOM     15  C   UNL     1      -0.003  -8.774  -3.639  0.00  0.00    +0.119 C 
ENDROOT
BRANCH   1  20
ATOM     16  C   UNL     1      -3.833   0.588   0.417  0.00  0.00    +0.044 C 
ATOM     17  C   UNL     1      -3.142  -0.748   0.321  0.00  0.00    -0.050 A 
ATOM     18  C   UNL     1      -2.140  -0.939  -0.614  0.00  0.00    +0.004 A 
ATOM     19  C   UNL     1      -1.503  -2.160  -0.706  0.00  0.00    +0.010 A 
ATOM     20  C   UNL     1      -1.871  -3.200   0.144  0.00  0.00    +0.005 A 
ATOM     21  C   UNL     1      -2.880  -3.002   1.083  0.00  0.00    -0.041 A 
ATOM     22  C   UNL     1      -3.507  -1.776   1.171  0.00  0.00    +0.007 A 
ATOM     23  C   UNL     1      -3.283  -4.123   2.006  0.00  0.00    +0.044 C 
ENDBRANCH   1  20
BRANCH  14  24
ATOM     24  C   UNL     1      -1.311  -9.975  -5.377  0.00  0.00    +0.218 C 
ATOM     25  O   UNL     1      -0.441 -10.814  -5.281  0.00  0.00    -0.275 OA
ATOM     26  N   UNL     1      -2.327 -10.154  -6.244  0.00  0.00    -0.312 N 
ATOM     27  H   UNL     1      -3.023  -9.483  -6.321  0.00  0.00    +0.149 HD
BRANCH  26  28
ATOM     28  C   UNL     1      -2.381 -11.363  -7.070  0.00  0.00    +0.073 C 
ATOM     29  C   UNL     1      -2.748 -11.194  -8.546  0.00  0.00    +0.024 C 
ATOM     30  C   UNL     1      -3.753 -11.815  -7.573  0.00  0.00    +0.024 C 
ENDBRANCH  26  28
ENDBRANCH  14  24
TORSDOF 3
