REMARK  Name = ZINC08619145
REMARK  13 active torsions:
REMARK  status: ('A' for Active; 'I' for Inactive)
REMARK    1  A    between atoms: C_1  and  C_2
REMARK    2  A    between atoms: C_2  and  C_3
REMARK    3  A    between atoms: C_2  and  C_4
REMARK    4  A    between atoms: C_4  and  C_5
REMARK    5  A    between atoms: C_5  and  C_7
REMARK    6  A    between atoms: C_5  and  N_20
REMARK    7  A    between atoms: N_9  and  C_10
REMARK    8  A    between atoms: C_12  and  O_18
REMARK    9  A    between atoms: C_14  and  O_16
REMARK   10  A    between atoms: O_16  and  C_17
REMARK   11  A    between atoms: O_18  and  C_19
REMARK   12  A    between atoms: N_20  and  S_21
REMARK   13  A    between atoms: S_21  and  C_24
REMARK                            x       y       z     vdW  Elec       q    Type
REMARK                         _______ _______ _______ _____ _____    ______ ____
ROOT
ATOM      1  C   UNL     1      -0.037  -0.080   2.798  0.00  0.00    +0.163 C 
ENDROOT
BRANCH   1   2
ATOM      2  C   UNL     1       0.833  -0.431   3.978  0.00  0.00    +0.236 C 
ATOM      3  O   UNL     1       1.289   0.447   4.678  0.00  0.00    -0.274 OA
ATOM      4  N   UNL     1       1.103  -1.723   4.254  0.00  0.00    -0.284 N 
ATOM      5  H   UNL     1       0.800  -2.421   3.653  0.00  0.00    +0.155 HD
BRANCH   4   6
ATOM      6  C   UNL     1       1.820  -2.056   5.408  0.00  0.00    +0.040 A 
ATOM      7  C   UNL     1       1.524  -3.224   6.097  0.00  0.00    +0.069 A 
ATOM      8  C   UNL     1       2.235  -3.554   7.241  0.00  0.00    +0.125 A 
ATOM      9  C   UNL     1       3.242  -2.716   7.697  0.00  0.00    +0.091 A 
ATOM     10  C   UNL     1       3.538  -1.548   7.010  0.00  0.00    +0.125 A 
ATOM     11  C   UNL     1       2.832  -1.221   5.862  0.00  0.00    +0.069 A 
BRANCH  10  12
ATOM     12  O   UNL     1       4.524  -0.728   7.458  0.00  0.00    -0.495 OA
ATOM     13  C   UNL     1       5.214  -1.130   8.643  0.00  0.00    +0.277 C 
ENDBRANCH  10  12
BRANCH   8  14
ATOM     14  O   UNL     1       1.945  -4.697   7.915  0.00  0.00    -0.495 OA
ATOM     15  C   UNL     1       2.717  -4.974   9.085  0.00  0.00    +0.277 C 
ENDBRANCH   8  14
ENDBRANCH   4   6
ENDBRANCH   1   2
BRANCH   1  16
ATOM     16  N   UNL     1      -0.573   1.272   2.973  0.00  0.00    -0.178 NA
ATOM     17  H   UNL     1      -0.028   1.961   3.385  0.00  0.00    +0.149 HD
BRANCH  16  18
ATOM     18  S   UNL     1      -2.110   1.625   2.469  0.00  0.00    +0.059 S 
ATOM     19  O   UNL     1      -2.341   2.989   2.793  0.00  0.00    -0.153 OA
ATOM     20  O   UNL     1      -2.227   1.127   1.143  0.00  0.00    -0.153 OA
BRANCH  18  21
ATOM     21  C   UNL     1      -3.215   0.677   3.461  0.00  0.00    +0.106 A 
ATOM     22  C   UNL     1      -3.593  -0.593   3.066  0.00  0.00    +0.030 A 
ATOM     23  C   UNL     1      -4.451  -1.320   3.853  0.00  0.00    +0.025 A 
ATOM     24  C   UNL     1      -4.963  -0.801   5.055  0.00  0.00    +0.037 A 
ATOM     25  C   UNL     1      -4.586   0.467   5.442  0.00  0.00    -0.024 A 
ATOM     26  C   UNL     1      -3.705   1.192   4.639  0.00  0.00    +0.034 A 
ATOM     27  C   UNL     1      -5.051   1.163   6.680  0.00  0.00    +0.037 C 
ATOM     28  C   UNL     1      -6.466   0.892   7.087  0.00  0.00    +0.014 C 
ATOM     29  C   UNL     1      -6.652  -0.446   7.759  0.00  0.00    +0.096 C 
ATOM     30  C   UNL     1      -6.569  -1.571   6.791  0.00  0.00    +0.217 C 
ATOM     31  O   UNL     1      -7.300  -2.516   6.997  0.00  0.00    -0.275 OA
ATOM     32  N   UNL     1      -5.797  -1.651   5.744  0.00  0.00    -0.285 N 
ATOM     33  H   UNL     1      -5.815  -2.538   5.349  0.00  0.00    +0.155 HD
ENDBRANCH  18  21
ENDBRANCH  16  18
ENDBRANCH   1  16
BRANCH   1  34
ATOM     34  C   UNL     1       0.796  -0.136   1.516  0.00  0.00    +0.032 C 
BRANCH  34  36
ATOM     35  C   UNL     1       0.029  -2.448   0.959  0.00  0.00    +0.007 C 
ATOM     36  C   UNL     1       1.249  -1.575   1.265  0.00  0.00    -0.015 C 
ATOM     37  C   UNL     1       2.210  -1.607   0.075  0.00  0.00    +0.007 C 
ENDBRANCH  34  36
ENDBRANCH   1  34
TORSDOF 9
