REMARK  Name = ZINC14183758
REMARK  7 active torsions:
REMARK  status: ('A' for Active; 'I' for Inactive)
REMARK    1  A    between atoms: C_1  and  C_2
REMARK    2  A    between atoms: C_7  and  N_12
REMARK    3  A    between atoms: C_9  and  C_11
REMARK    4  A    between atoms: C_16  and  C_18
REMARK    5  A    between atoms: C_18  and  S_19
REMARK    6  A    between atoms: S_19  and  C_20
REMARK    7  A    between atoms: C_23  and  C_25
REMARK                            x       y       z     vdW  Elec       q    Type
REMARK                         _______ _______ _______ _____ _____    ______ ____
ROOT
ATOM      1  N   UNL     1      -6.020   6.631  10.358  0.00  0.00    -0.296 N 
ATOM      2  C   UNL     1      -4.855   6.657   9.682  0.00  0.00    +0.306 C 
ATOM      3  O   UNL     1      -3.909   7.279  10.124  0.00  0.00    -0.252 OA
ATOM      4  N   UNL     1      -4.739   5.994   8.514  0.00  0.00    -0.239 N 
ATOM      5  C   UNL     1      -3.574   6.021   7.837  0.00  0.00    +0.231 C 
ATOM      6  O   UNL     1      -2.630   6.641   8.279  0.00  0.00    -0.274 OA
ATOM      7  H   UNL     1      -6.775   6.135  10.005  0.00  0.00    +0.151 HD
ATOM      8  H   UNL     1      -5.494   5.498   8.161  0.00  0.00    +0.159 HD
ENDROOT
BRANCH   1  14
ATOM      9  C   UNL     1      -9.672   6.119  12.565  0.00  0.00    +0.008 C 
ATOM     10  C   UNL     1      -8.574   6.765  11.719  0.00  0.00    -0.009 C 
ATOM     11  C   UNL     1      -8.936   8.226  11.442  0.00  0.00    +0.003 C 
ATOM     12  C   UNL     1      -7.838   8.873  10.596  0.00  0.00    +0.002 C 
ATOM     13  C   UNL     1      -6.509   8.812  11.351  0.00  0.00    +0.022 C 
ATOM     14  C   UNL     1      -6.146   7.351  11.628  0.00  0.00    +0.078 C 
ATOM     15  C   UNL     1      -7.245   6.704  12.474  0.00  0.00    +0.009 C 
ATOM     16  C   UNL     1      -6.882   5.244  12.751  0.00  0.00    +0.009 C 
ENDBRANCH   1  14
BRANCH   5  17
ATOM     17  C   UNL     1      -3.444   5.279   6.532  0.00  0.00    +0.175 C 
BRANCH  17  18
ATOM     18  S   UNL     1      -1.773   5.506   5.873  0.00  0.00    -0.056 S 
BRANCH  18  19
ATOM     19  C   UNL     1      -1.898   4.562   4.390  0.00  0.00    +0.278 A 
ATOM     20  N   UNL     1      -2.956   3.912   3.969  0.00  0.00    -0.101 NA
ATOM     21  N   UNL     1      -2.685   3.337   2.850  0.00  0.00    -0.111 NA
ATOM     22  C   UNL     1      -1.455   3.595   2.515  0.00  0.00    +0.221 A 
ATOM     23  O   UNL     1      -0.924   4.370   3.481  0.00  0.00    -0.415 OA
BRANCH  22  24
ATOM     24  C   UNL     1      -0.750   3.109   1.275  0.00  0.00    +0.077 C 
ATOM     25  C   UNL     1      -0.729   1.579   1.267  0.00  0.00    +0.013 C 
ATOM     26  C   UNL     1      -0.013   1.086   0.008  0.00  0.00    +0.001 C 
ATOM     27  C   UNL     1      -0.753   1.593  -1.232  0.00  0.00    +0.000 C 
ATOM     28  C   UNL     1      -0.773   3.123  -1.223  0.00  0.00    +0.001 C 
ATOM     29  C   UNL     1      -1.490   3.616   0.036  0.00  0.00    +0.013 C 
ENDBRANCH  22  24
ENDBRANCH  18  19
ENDBRANCH  17  18
ENDBRANCH   5  17
TORSDOF 5
