REMARK  Name = ZINC20534310
REMARK  3 active torsions:
REMARK  status: ('A' for Active; 'I' for Inactive)
REMARK    1  A    between atoms: C_7  and  C_11
REMARK    2  A    between atoms: C_11  and  C_12
REMARK    3  A    between atoms: N_14  and  C_15
REMARK                            x       y       z     vdW  Elec       q    Type
REMARK                         _______ _______ _______ _____ _____    ______ ____
ROOT
ATOM      1  C   UNL     1       4.493  -2.234  -1.473  0.00  0.00    +0.219 C 
ATOM      2  O   UNL     1       4.207  -1.492  -2.389  0.00  0.00    -0.275 OA
ATOM      3  N   UNL     1       4.958  -3.473  -1.731  0.00  0.00    -0.310 N 
ATOM      4  H   UNL     1       5.218  -4.146  -0.900  0.00  0.00    +0.149 HD
ENDROOT
BRANCH   3   5
ATOM      5  C   UNL     1       5.117  -3.922  -3.116  0.00  0.00    +0.101 C 
ATOM      6  C   UNL     1       5.044  -5.465  -3.197  0.00  0.00    +0.059 C 
ATOM      7  C   UNL     1       6.424  -5.870  -3.738  0.00  0.00    +0.071 C 
ATOM      8  C   UNL     1       6.367  -6.093  -5.255  0.00  0.00    +0.035 C 
ATOM      9  C   UNL     1       7.347  -7.269  -5.499  0.00  0.00    +0.003 C 
ATOM     10  C   UNL     1       7.114  -8.173  -4.262  0.00  0.00    +0.003 C 
ATOM     11  C   UNL     1       6.899  -7.178  -3.100  0.00  0.00    +0.035 C 
ATOM     12  O   UNL     1       7.307  -4.787  -3.413  0.00  0.00    -0.371 OA
ATOM     13  C   UNL     1       6.534  -3.586  -3.635  0.00  0.00    +0.182 C 
ENDBRANCH   3   5
BRANCH   1  14
ATOM     14  C   UNL     1       4.329  -1.772  -0.048  0.00  0.00    +0.153 C 
BRANCH  14  21
ATOM     15  C   UNL     1       0.002  -0.004   0.002  0.00  0.00    +0.001 A 
ATOM     16  C   UNL     1      -0.017   1.385   0.010  0.00  0.00    +0.002 A 
ATOM     17  C   UNL     1       1.147   2.101   0.002  0.00  0.00    +0.028 A 
ATOM     18  C   UNL     1       2.370   1.435  -0.013  0.00  0.00    +0.066 A 
ATOM     19  C   UNL     1       2.391   0.027  -0.021  0.00  0.00    +0.023 A 
ATOM     20  C   UNL     1       1.186  -0.683  -0.013  0.00  0.00    +0.012 A 
ATOM     21  C   UNL     1       3.798  -0.361  -0.036  0.00  0.00    +0.079 A 
ATOM     22  N   UNL     1       4.512   0.728  -0.037  0.00  0.00    -0.177 NA
ATOM     23  N   UNL     1       3.676   1.850  -0.023  0.00  0.00    -0.277 N 
ATOM     24  H   UNL     1       3.913   2.924  -0.019  0.00  0.00    +0.189 HD
ENDBRANCH  14  21
ENDBRANCH   1  14
TORSDOF 3
