REMARK  Name = ZINC33811668
REMARK  3 active torsions:
REMARK  status: ('A' for Active; 'I' for Inactive)
REMARK    1  A    between atoms: C_1  and  C_2
REMARK    2  A    between atoms: C_5  and  S_7
REMARK    3  A    between atoms: S_7  and  N_10
REMARK                            x       y       z     vdW  Elec       q    Type
REMARK                         _______ _______ _______ _____ _____    ______ ____
ROOT
ATOM      1  N   UNL     1      -3.412   1.127   0.703  0.00  0.00    -0.168 NA
ATOM      2  C   UNL     1      -4.062   2.400   0.356  0.00  0.00    +0.115 C 
ATOM      3  C   UNL     1      -3.130   3.599   0.372  0.00  0.00    +0.052 C 
ATOM      4  C   UNL     1      -1.683   3.255   0.192  0.00  0.00    -0.041 A 
ATOM      5  C   UNL     1      -0.682   4.208   0.194  0.00  0.00    +0.004 A 
ATOM      6  C   UNL     1       0.639   3.808   0.084  0.00  0.00    +0.001 A 
ATOM      7  C   UNL     1       0.980   2.468   0.006  0.00  0.00    +0.004 A 
ATOM      8  C   UNL     1      -0.018   1.509   0.010  0.00  0.00    -0.042 A 
ATOM      9  C   UNL     1      -1.323   1.934   0.009  0.00  0.00    -0.022 A 
ATOM     10  C   UNL     1      -2.262   0.745  -0.125  0.00  0.00    +0.111 C 
ATOM     11  C   UNL     1      -1.437  -0.426   0.412  0.00  0.00    +0.030 C 
ATOM     12  C   UNL     1       0.002  -0.004   0.002  0.00  0.00    +0.037 C 
ENDROOT
BRANCH   1  13
ATOM     13  S   UNL     1      -3.945   0.182   1.954  0.00  0.00    +0.068 S 
ATOM     14  O   UNL     1      -5.313   0.510   2.157  0.00  0.00    -0.152 OA
ATOM     15  O   UNL     1      -3.513  -1.143   1.675  0.00  0.00    -0.152 OA
BRANCH  13  20
ATOM     16  C   UNL     1      -0.380   1.235   6.556  0.00  0.00    +0.051 C 
ATOM     17  C   UNL     1      -1.445   1.164   5.493  0.00  0.00    -0.011 A 
ATOM     18  C   UNL     1      -2.587   1.886   5.378  0.00  0.00    +0.013 A 
ATOM     19  C   UNL     1      -3.426   1.647   4.306  0.00  0.00    +0.036 A 
ATOM     20  C   UNL     1      -3.083   0.698   3.401  0.00  0.00    +0.143 A 
ATOM     21  S   UNL     1      -1.535   0.102   4.061  0.00  0.00    -0.074 S 
ENDBRANCH  13  20
ENDBRANCH   1  13
TORSDOF 2
