REMARK  Name = ZINC12290160
REMARK  10 active torsions:
REMARK  status: ('A' for Active; 'I' for Inactive)
REMARK    1  A    between atoms: C_1  and  C_2
REMARK    2  A    between atoms: C_5  and  C_20
REMARK    3  A    between atoms: N_11  and  C_13
REMARK    4  A    between atoms: C_20  and  N_53
REMARK    5  A    between atoms: C_21  and  C_22
REMARK    6  A    between atoms: C_21  and  N_53
REMARK    7  A    between atoms: C_24  and  O_30
REMARK    8  A    between atoms: C_26  and  O_28
REMARK    9  A    between atoms: O_28  and  C_29
REMARK   10  A    between atoms: O_30  and  C_31
REMARK                            x       y       z     vdW  Elec       q    Type
REMARK                         _______ _______ _______ _____ _____    ______ ____
ROOT
ATOM      1  C   UNL     1      -0.013   1.086   0.008  0.00  0.00    +0.068 C 
ATOM      2  C   UNL     1      -0.718   1.572   1.248  0.00  0.00    +0.070 A 
ATOM      3  C   UNL     1      -2.103   1.834   1.364  0.00  0.00    +0.040 A 
ATOM      4  C   UNL     1      -3.190   1.729   0.466  0.00  0.00    +0.020 A 
ATOM      5  C   UNL     1      -4.437   2.057   0.895  0.00  0.00    +0.001 A 
ATOM      6  C   UNL     1      -4.635   2.488   2.220  0.00  0.00    +0.252 A 
ATOM      7  O   UNL     1      -5.757   2.780   2.597  0.00  0.00    -0.268 OA
ATOM      8  N   UNL     1      -3.600   2.582   3.076  0.00  0.00    -0.307 N 
ATOM      9  H   UNL     1      -3.755   2.881   3.986  0.00  0.00    +0.170 HD
ATOM     10  C   UNL     1      -2.332   2.259   2.675  0.00  0.00    +0.145 A 
ATOM     11  N   UNL     1      -1.129   2.257   3.305  0.00  0.00    -0.216 N 
ATOM     12  N   UNL     1      -0.156   1.828   2.395  0.00  0.00    -0.169 NA
ENDROOT
BRANCH  11  13
ATOM     13  C   UNL     1      -0.901   2.623   4.640  0.00  0.00    +0.068 A 
ATOM     14  C   UNL     1      -1.640   3.647   5.216  0.00  0.00    +0.030 A 
ATOM     15  C   UNL     1      -1.417   4.003   6.532  0.00  0.00    +0.040 A 
ATOM     16  C   UNL     1      -0.450   3.346   7.273  0.00  0.00    +0.124 A 
ATOM     17  C   UNL     1       0.293   2.327   6.698  0.00  0.00    +0.040 A 
ATOM     18  C   UNL     1       0.069   1.965   5.385  0.00  0.00    +0.030 A 
ATOM     19  F   UNL     1      -0.229   3.699   8.558  0.00  0.00    -0.205 F 
ENDBRANCH  11  13
BRANCH   5  20
ATOM     20  C   UNL     1      -5.609   1.959  -0.048  0.00  0.00    -0.041 C 
BRANCH  20  21
ATOM     21  N   UNL     1      -6.267   0.652   0.134  0.00  0.00    +0.384 N 
ATOM     22  H   UNL     1      -6.593   0.569   1.104  0.00  0.00    -0.085 HD
ATOM     23  H   UNL     1      -5.594  -0.097  -0.067  0.00  0.00    -0.085 HD
BRANCH  21  24
ATOM     24  C   UNL     1      -7.420   0.528  -0.778  0.00  0.00    -0.046 C 
BRANCH  24  25
ATOM     25  C   UNL     1      -8.072  -0.815  -0.570  0.00  0.00    -0.058 A 
ATOM     26  C   UNL     1      -7.661  -1.903  -1.315  0.00  0.00    +0.047 A 
ATOM     27  C   UNL     1      -8.256  -3.142  -1.122  0.00  0.00    +0.124 A 
ATOM     28  C   UNL     1      -9.271  -3.284  -0.188  0.00  0.00    +0.091 A 
ATOM     29  C   UNL     1      -9.685  -2.189   0.554  0.00  0.00    +0.124 A 
ATOM     30  C   UNL     1      -9.083  -0.954   0.361  0.00  0.00    +0.047 A 
BRANCH  29  31
ATOM     31  O   UNL     1     -10.679  -2.325   1.471  0.00  0.00    -0.495 OA
ATOM     32  C   UNL     1     -11.253  -3.626   1.617  0.00  0.00    +0.277 C 
ENDBRANCH  29  31
BRANCH  27  33
ATOM     33  O   UNL     1      -7.848  -4.214  -1.851  0.00  0.00    -0.495 OA
ATOM     34  C   UNL     1      -8.508  -5.457  -1.603  0.00  0.00    +0.277 C 
ENDBRANCH  27  33
ENDBRANCH  24  25
ENDBRANCH  21  24
ENDBRANCH  20  21
ENDBRANCH   5  20
TORSDOF 7
