REMARK  Name = ZINC00674664
REMARK  4 active torsions:
REMARK  status: ('A' for Active; 'I' for Inactive)
REMARK    1  A    between atoms: C_6  and  C_7
REMARK    2  A    between atoms: C_10  and  C_26
REMARK    3  A    between atoms: C_15  and  C_17
REMARK    4  A    between atoms: N_19  and  C_20
REMARK                            x       y       z     vdW  Elec       q    Type
REMARK                         _______ _______ _______ _____ _____    ______ ____
ROOT
ATOM      1  C   UNL     1      -1.293  -0.775   0.011  0.00  0.00    +0.104 C 
ATOM      2  C   UNL     1      -1.588  -1.269   1.431  0.00  0.00    +0.063 C 
ATOM      3  C   UNL     1      -0.417  -2.115   1.943  0.00  0.00    +0.215 C 
ATOM      4  N   UNL     1      -0.081  -3.121   0.932  0.00  0.00    -0.238 N 
ATOM      5  C   UNL     1      -0.446  -3.028  -0.381  0.00  0.00    +0.119 A 
ATOM      6  C   UNL     1       0.021  -4.115  -1.025  0.00  0.00    +0.078 A 
ATOM      7  C   UNL     1       0.703  -4.912  -0.078  0.00  0.00    +0.149 A 
ATOM      8  N   UNL     1       0.636  -4.306   1.094  0.00  0.00    -0.164 NA
ATOM      9  N   UNL     1      -1.180  -1.944  -0.883  0.00  0.00    -0.322 N 
ATOM     10  H   UNL     1      -1.590  -1.960  -1.762  0.00  0.00    +0.148 HD
ENDROOT
BRANCH   1  16
ATOM     11  C   UNL     1      -0.017   1.378   0.010  0.00  0.00    +0.007 A 
ATOM     12  C   UNL     1       1.171   2.086   0.002  0.00  0.00    +0.022 A 
ATOM     13  C   UNL     1       2.378   1.412  -0.013  0.00  0.00    +0.059 A 
ATOM     14  C   UNL     1       2.397   0.027  -0.021  0.00  0.00    +0.060 A 
ATOM     15  C   UNL     1       1.208  -0.680  -0.013  0.00  0.00    +0.027 A 
ATOM     16  C   UNL     1       0.002  -0.004   0.002  0.00  0.00    -0.026 A 
ATOM     17 CL   UNL     1       3.912  -0.821  -0.040  0.00  0.00    -0.082 Cl
ATOM     18 CL   UNL     1       3.869   2.301  -0.023  0.00  0.00    -0.082 Cl
ENDBRANCH   1  16
BRANCH   7  19
ATOM     19  C   UNL     1       1.374  -6.199  -0.352  0.00  0.00    +0.264 C 
ATOM     20  O   UNL     1       1.369  -6.661  -1.476  0.00  0.00    -0.268 OA
ATOM     21  N   UNL     1       1.992  -6.862   0.646  0.00  0.00    -0.307 N 
ATOM     22  H   UNL     1       1.996  -6.494   1.544  0.00  0.00    +0.149 HD
BRANCH  21  23
ATOM     23  C   UNL     1       2.658  -8.139   0.375  0.00  0.00    +0.073 C 
ATOM     24  C   UNL     1       1.652  -9.300   0.519  0.00  0.00    +0.022 C 
ATOM     25  C   UNL     1       2.481 -10.444   1.155  0.00  0.00    +0.002 C 
ATOM     26  C   UNL     1       3.396  -9.689   2.151  0.00  0.00    +0.002 C 
ATOM     27  C   UNL     1       3.766  -8.386   1.413  0.00  0.00    +0.022 C 
ENDBRANCH  21  23
ENDBRANCH   7  19
BRANCH   3  28
ATOM     28  C   UNL     1      -0.818  -2.809   3.247  0.00  0.00    +0.412 C 
ATOM     29  F   UNL     1      -1.923  -3.636   3.014  0.00  0.00    -0.168 F 
ATOM     30  F   UNL     1       0.252  -3.581   3.712  0.00  0.00    -0.168 F 
ATOM     31  F   UNL     1      -1.150  -1.846   4.205  0.00  0.00    -0.168 F 
ENDBRANCH   3  28
TORSDOF 4
