REMARK  Name = ZINC36581869
REMARK  18 active torsions:
REMARK  status: ('A' for Active; 'I' for Inactive)
REMARK    1  A    between atoms: C_1  and  C_2
REMARK    2  A    between atoms: C_2  and  C_3
REMARK    3  A    between atoms: C_3  and  C_4
REMARK    4  A    between atoms: C_4  and  C_5
REMARK    5  A    between atoms: C_5  and  C_6
REMARK    6  A    between atoms: C_7  and  C_8
REMARK    7  A    between atoms: N_10  and  C_11
REMARK    8  A    between atoms: N_10  and  C_34
REMARK    9  A    between atoms: C_11  and  C_13
REMARK   10  A    between atoms: C_11  and  C_20
REMARK   11  A    between atoms: C_17  and  O_19
REMARK   12  A    between atoms: N_22  and  C_23
REMARK   13  A    between atoms: C_23  and  S_24
REMARK   14  A    between atoms: S_24  and  C_27
REMARK   15  A    between atoms: C_30  and  C_33
REMARK   16  A    between atoms: C_34  and  C_35
REMARK   17  A    between atoms: C_34  and  C_36
REMARK   18  A    between atoms: C_34  and  C_37
REMARK                            x       y       z     vdW  Elec       q    Type
REMARK                         _______ _______ _______ _____ _____    ______ ____
ROOT
ATOM      1  C   UNL     1       0.790  -8.630  -5.003  0.00  0.00    +0.193 C 
ENDROOT
BRANCH   1   2
ATOM      2  C   UNL     1       2.052  -8.697  -5.825  0.00  0.00    -0.015 A 
ATOM      3  C   UNL     1       2.198  -7.885  -6.935  0.00  0.00    +0.006 A 
ATOM      4  C   UNL     1       3.354  -7.944  -7.690  0.00  0.00    +0.004 A 
ATOM      5  C   UNL     1       4.366  -8.816  -7.339  0.00  0.00    +0.045 A 
ATOM      6  C   UNL     1       4.223  -9.632  -6.226  0.00  0.00    +0.117 A 
ATOM      7  C   UNL     1       3.064  -9.566  -5.466  0.00  0.00    +0.051 A 
BRANCH   6   8
ATOM      8  O   UNL     1       5.217 -10.490  -5.878  0.00  0.00    -0.507 OA
ATOM      9  H   UNL     1       5.868 -10.113  -5.271  0.00  0.00    +0.292 HD
ENDBRANCH   6   8
ENDBRANCH   1   2
BRANCH   1  10
ATOM     10  C   UNL     1      -0.128  -9.758  -5.400  0.00  0.00    +0.239 C 
ATOM     11  O   UNL     1      -1.249  -9.516  -5.795  0.00  0.00    -0.273 OA
ATOM     12  N   UNL     1       0.296 -11.034  -5.316  0.00  0.00    -0.294 N 
ATOM     13  H   UNL     1       1.193 -11.227  -5.000  0.00  0.00    +0.150 HD
BRANCH  12  14
ATOM     14  C   UNL     1      -0.596 -12.130  -5.701  0.00  0.00    +0.278 C 
BRANCH  14  15
ATOM     15  S   UNL     1      -0.276 -12.593  -7.425  0.00  0.00    +0.013 S 
ATOM     16  O   UNL     1      -1.090 -13.697  -7.795  0.00  0.00    -0.168 OA
ATOM     17  O   UNL     1      -0.216 -11.431  -8.241  0.00  0.00    -0.168 OA
BRANCH  15  18
ATOM     18  C   UNL     1       1.369 -13.227  -7.426  0.00  0.00    +0.090 A 
ATOM     19  C   UNL     1       2.437 -12.376  -7.636  0.00  0.00    +0.027 A 
ATOM     20  C   UNL     1       3.727 -12.873  -7.637  0.00  0.00    +0.005 A 
ATOM     21  C   UNL     1       3.948 -14.221  -7.426  0.00  0.00    -0.050 A 
ATOM     22  C   UNL     1       2.880 -15.072  -7.214  0.00  0.00    +0.005 A 
ATOM     23  C   UNL     1       1.590 -14.574  -7.210  0.00  0.00    +0.027 A 
ATOM     24  C   UNL     1       5.354 -14.764  -7.427  0.00  0.00    +0.044 C 
ENDBRANCH  15  18
ENDBRANCH  14  15
ENDBRANCH  12  14
ENDBRANCH   1  10
BRANCH   1  27
ATOM     25  C   UNL     1      -0.391  -7.070  -6.456  0.00  0.00    +0.240 C 
ATOM     26  O   UNL     1      -0.370  -7.914  -7.332  0.00  0.00    -0.271 OA
ATOM     27  N   UNL     1       0.121  -7.349  -5.240  0.00  0.00    -0.277 N 
BRANCH  27  28
ATOM     28  C   UNL     1       0.007  -6.370  -4.156  0.00  0.00    +0.030 C 
ATOM     29  C   UNL     1      -1.467  -6.032  -3.927  0.00  0.00    +0.031 C 
ATOM     30  C   UNL     1       0.601  -6.958  -2.874  0.00  0.00    +0.031 C 
ATOM     31  C   UNL     1       0.770  -5.099  -4.534  0.00  0.00    +0.031 C 
ENDBRANCH  27  28
BRANCH  25  33
ATOM     32  C   UNL     1      -1.379  -5.434  -7.950  0.00  0.00    -0.022 C 
ATOM     33  C   UNL     1      -0.973  -5.746  -6.723  0.00  0.00    +0.063 C 
BRANCH  32  34
ATOM     34  C   UNL     1      -1.976  -4.077  -8.223  0.00  0.00    +0.027 C 
BRANCH  34  35
ATOM     35  C   UNL     1      -1.206  -3.400  -9.359  0.00  0.00    +0.004 C 
BRANCH  35  36
ATOM     36  C   UNL     1      -1.812  -2.023  -9.636  0.00  0.00    +0.000 C 
BRANCH  36  38
ATOM     37  C   UNL     1      -1.648   0.031 -11.049  0.00  0.00    +0.004 C 
ATOM     38  C   UNL     1      -1.042  -1.346 -10.772  0.00  0.00    -0.003 C 
ENDBRANCH  36  38
ENDBRANCH  35  36
ENDBRANCH  34  35
ENDBRANCH  32  34
ENDBRANCH  25  33
ENDBRANCH   1  27
TORSDOF 13
