REMARK  Name = ZINC13498881
REMARK  11 active torsions:
REMARK  status: ('A' for Active; 'I' for Inactive)
REMARK    1  A    between atoms: C_1  and  C_2
REMARK    2  A    between atoms: C_6  and  C_15
REMARK    3  A    between atoms: C_13  and  C_14
REMARK    4  A    between atoms: C_15  and  N_72
REMARK    5  A    between atoms: C_16  and  N_72
REMARK    6  A    between atoms: C_21  and  C_23
REMARK    7  A    between atoms: C_21  and  C_33
REMARK    8  A    between atoms: C_21  and  N_72
REMARK    9  A    between atoms: N_27  and  C_28
REMARK   10  A    between atoms: C_33  and  C_34
REMARK   11  A    between atoms: C_33  and  C_35
REMARK                            x       y       z     vdW  Elec       q    Type
REMARK                         _______ _______ _______ _____ _____    ______ ____
ROOT
ATOM      1  N   UNL     1      -3.772   0.496  -1.429  0.00  0.00    +0.391 N 
ATOM      2  H   UNL     1      -2.823   0.297  -1.769  0.00  0.00    -0.080 HD
ENDROOT
BRANCH   1   3
ATOM      3  C   UNL     1      -4.339   1.612  -2.215  0.00  0.00    -0.067 C 
ATOM      4  C   UNL     1      -5.791   1.909  -1.788  0.00  0.00    -0.015 C 
ATOM      5  C   UNL     1      -6.509   2.271  -3.113  0.00  0.00    -0.002 C 
ATOM      6  C   UNL     1      -5.868   1.292  -4.128  0.00  0.00    -0.002 C 
ATOM      7  C   UNL     1      -4.388   1.220  -3.702  0.00  0.00    -0.015 C 
ENDBRANCH   1   3
BRANCH   1   8
ATOM      8  C   UNL     1      -3.701   0.869  -0.001  0.00  0.00    -0.036 C 
BRANCH   8  14
ATOM      9  C   UNL     1      -1.815   8.038   0.815  0.00  0.00    +0.044 C 
ATOM     10  C   UNL     1      -1.435   6.584   0.693  0.00  0.00    -0.047 A 
ATOM     11  C   UNL     1      -2.411   5.639   0.547  0.00  0.00    +0.013 A 
ATOM     12  C   UNL     1      -2.058   4.291   0.433  0.00  0.00    -0.001 A 
ATOM     13  C   UNL     1      -3.078   3.252   0.276  0.00  0.00    +0.017 A 
ATOM     14  C   UNL     1      -2.677   1.962   0.167  0.00  0.00    +0.001 A 
ATOM     15  C   UNL     1      -1.304   1.637   0.214  0.00  0.00    +0.251 A 
ATOM     16  O   UNL     1      -0.966   0.471   0.119  0.00  0.00    -0.268 OA
ATOM     17  N   UNL     1      -0.360   2.584   0.358  0.00  0.00    -0.322 N 
ATOM     18  H   UNL     1       0.575   2.327   0.383  0.00  0.00    +0.169 HD
ATOM     19  C   UNL     1      -0.702   3.915   0.469  0.00  0.00    +0.049 A 
ATOM     20  C   UNL     1       0.274   4.895   0.618  0.00  0.00    +0.030 A 
ATOM     21  C   UNL     1      -0.097   6.218   0.729  0.00  0.00    -0.046 A 
ATOM     22  C   UNL     1       0.963   7.278   0.890  0.00  0.00    +0.044 C 
ENDBRANCH   8  14
ENDBRANCH   1   8
BRANCH   1  23
ATOM     23  C   UNL     1      -4.605  -0.714  -1.595  0.00  0.00    +0.006 C 
BRANCH  23  24
ATOM     24  C   UNL     1      -5.661  -0.774  -0.522  0.00  0.00    +0.139 A 
ATOM     25  N   UNL     1      -5.487  -0.572   0.761  0.00  0.00    -0.115 NA
ATOM     26  N   UNL     1      -6.627  -0.711   1.345  0.00  0.00    -0.023 NA
ATOM     27  N   UNL     1      -7.523  -1.004   0.468  0.00  0.00    -0.044 NA
ATOM     28  N   UNL     1      -6.967  -1.052  -0.695  0.00  0.00    -0.228 N 
BRANCH  28  29
ATOM     29  C   UNL     1      -7.632  -1.352  -1.966  0.00  0.00    +0.111 C 
ATOM     30  C   UNL     1      -8.775  -0.347  -2.215  0.00  0.00    +0.027 C 
ATOM     31  C   UNL     1      -9.889  -1.196  -2.878  0.00  0.00    +0.002 C 
ATOM     32  C   UNL     1      -9.792  -2.542  -2.119  0.00  0.00    +0.002 C 
ATOM     33  C   UNL     1      -8.278  -2.748  -1.906  0.00  0.00    +0.027 C 
ENDBRANCH  28  29
ENDBRANCH  23  24
BRANCH  23  34
ATOM     34  C   UNL     1      -3.702  -1.944  -1.492  0.00  0.00    -0.024 C 
ATOM     35  C   UNL     1      -2.640  -1.892  -2.592  0.00  0.00    +0.006 C 
ATOM     36  C   UNL     1      -3.018  -1.962  -0.123  0.00  0.00    +0.006 C 
ENDBRANCH  23  34
ENDBRANCH   1  23
TORSDOF 7
