REMARK  Name = ZINC15229608
REMARK  8 active torsions:
REMARK  status: ('A' for Active; 'I' for Inactive)
REMARK    1  A    between atoms: C_1  and  C_2
REMARK    2  A    between atoms: C_4  and  C_36
REMARK    3  A    between atoms: C_10  and  C_14
REMARK    4  A    between atoms: C_11  and  C_13
REMARK    5  A    between atoms: C_16  and  C_28
REMARK    6  A    between atoms: C_18  and  C_23
REMARK    7  A    between atoms: C_18  and  O_27
REMARK    8  A    between atoms: C_28  and  C_30
REMARK                            x       y       z     vdW  Elec       q    Type
REMARK                         _______ _______ _______ _____ _____    ______ ____
ROOT
ATOM      1  C   UNL     1       0.270   3.901  -0.137  0.00  0.00    +0.123 C 
ATOM      2  C   UNL     1       1.357   3.048   0.526  0.00  0.00    +0.144 C 
ATOM      3  C   UNL     1       1.263   1.622  -0.028  0.00  0.00    +0.243 C 
ATOM      4  N   UNL     1      -0.094   1.114   0.180  0.00  0.00    -0.264 N 
ATOM      5  C   UNL     1      -1.151   1.940   0.210  0.00  0.00    +0.302 C 
ATOM      6  O   UNL     1      -2.258   1.465   0.369  0.00  0.00    -0.253 OA
ATOM      7  N   UNL     1      -1.033   3.269   0.076  0.00  0.00    -0.292 N 
ATOM      8  H   UNL     1      -0.232   0.161   0.293  0.00  0.00    +0.153 HD
ATOM      9  H   UNL     1      -1.828   3.823   0.117  0.00  0.00    +0.151 HD
ENDROOT
BRANCH   1  19
ATOM     10  C   UNL     1      -2.199   0.664  -6.392  0.00  0.00    +0.066 C 
ATOM     11  C   UNL     1      -1.148   1.740  -6.299  0.00  0.00    +0.044 A 
ATOM     12  C   UNL     1      -0.536   2.224  -7.445  0.00  0.00    +0.046 A 
ATOM     13  C   UNL     1       0.425   3.214  -7.314  0.00  0.00    +0.044 A 
ATOM     14  N   UNL     1       0.728   3.663  -6.107  0.00  0.00    -0.216 NA
ATOM     15  C   UNL     1       0.125   3.179  -5.034  0.00  0.00    +0.252 A 
ATOM     16  N   UNL     1      -0.793   2.230  -5.123  0.00  0.00    -0.216 NA
ATOM     17  N   UNL     1       0.470   3.676  -3.777  0.00  0.00    -0.205 N 
ATOM     18  C   UNL     1      -0.053   3.278  -2.587  0.00  0.00    +0.123 A 
ATOM     19  C   UNL     1       0.544   4.005  -1.615  0.00  0.00    +0.015 A 
ATOM     20  C   UNL     1       1.465   4.866  -2.223  0.00  0.00    +0.065 A 
ATOM     21  N   UNL     1       1.422   4.670  -3.516  0.00  0.00    -0.169 NA
ATOM     22  C   UNL     1       2.355   5.851  -1.510  0.00  0.00    +0.068 C 
ATOM     23  C   UNL     1       1.117   3.771  -8.531  0.00  0.00    +0.066 C 
ENDBRANCH   1  19
BRANCH   3  24
ATOM     24  C   UNL     1       2.263   0.722   0.702  0.00  0.00    +0.436 C 
ATOM     25  F   UNL     1       2.270  -0.545   0.108  0.00  0.00    -0.166 F 
ATOM     26  F   UNL     1       3.542   1.283   0.619  0.00  0.00    -0.166 F 
ATOM     27  F   UNL     1       1.891   0.605   2.046  0.00  0.00    -0.166 F 
ENDBRANCH   3  24
BRANCH   3  28
ATOM     28  O   UNL     1       1.561   1.632  -1.425  0.00  0.00    -0.364 OA
ATOM     29  H   UNL     1       1.516   0.761  -1.843  0.00  0.00    +0.212 HD
ENDBRANCH   3  28
BRANCH   2  30
ATOM     30  C   UNL     1       1.143   3.026   2.018  0.00  0.00    +0.173 C 
ATOM     31  O   UNL     1       0.146   2.514   2.480  0.00  0.00    -0.292 OA
BRANCH  30  32
ATOM     32  C   UNL     1       2.145   3.627   2.914  0.00  0.00    +0.018 A 
ATOM     33  C   UNL     1       3.226   4.338   2.383  0.00  0.00    +0.011 A 
ATOM     34  C   UNL     1       4.157   4.902   3.229  0.00  0.00    +0.001 A 
ATOM     35  C   UNL     1       4.030   4.757   4.599  0.00  0.00    +0.000 A 
ATOM     36  C   UNL     1       2.966   4.050   5.132  0.00  0.00    +0.001 A 
ATOM     37  C   UNL     1       2.023   3.484   4.300  0.00  0.00    +0.011 A 
ENDBRANCH  30  32
ENDBRANCH   2  30
TORSDOF 5
