REMARK  Name = ZINC12131757
REMARK  8 active torsions:
REMARK  status: ('A' for Active; 'I' for Inactive)
REMARK    1  A    between atoms: C_1  and  C_2
REMARK    2  A    between atoms: C_7  and  C_9
REMARK    3  A    between atoms: C_9  and  C_10
REMARK    4  A    between atoms: C_10  and  C_11
REMARK    5  A    between atoms: C_14  and  N_17
REMARK    6  A    between atoms: C_18  and  C_20
REMARK    7  A    between atoms: C_20  and  C_21
REMARK    8  A    between atoms: C_33  and  N_61
REMARK                            x       y       z     vdW  Elec       q    Type
REMARK                         _______ _______ _______ _____ _____    ______ ____
ROOT
ATOM      1  C   UNL     1      -6.751  -1.399   0.295  0.00  0.00    -0.047 A 
ATOM      2  C   UNL     1      -7.080  -0.058   0.209  0.00  0.00    +0.005 A 
ATOM      3  C   UNL     1      -6.084   0.894   0.120  0.00  0.00    +0.023 A 
ATOM      4  C   UNL     1      -4.751   0.505   0.118  0.00  0.00    +0.033 A 
ATOM      5  C   UNL     1      -4.424  -0.842   0.199  0.00  0.00    +0.023 A 
ATOM      6  C   UNL     1      -5.424  -1.790   0.292  0.00  0.00    +0.005 A 
ENDROOT
BRANCH   4   7
ATOM      7  N   UNL     1      -3.739   1.468   0.028  0.00  0.00    -0.285 N 
ATOM      8  C   UNL     1      -3.897   2.668   0.620  0.00  0.00    +0.223 C 
ATOM      9  O   UNL     1      -4.948   2.945   1.159  0.00  0.00    -0.275 OA
ATOM     10  H   UNL     1      -2.925   1.272  -0.461  0.00  0.00    +0.155 HD
BRANCH   8  11
ATOM     11  C   UNL     1      -2.768   3.666   0.613  0.00  0.00    +0.153 C 
BRANCH  11  12
ATOM     12  C   UNL     1      -3.198   4.917   1.335  0.00  0.00    +0.078 A 
ATOM     13  C   UNL     1      -2.270   6.040   1.470  0.00  0.00    +0.011 A 
ATOM     14  C   UNL     1      -0.979   5.996   0.940  0.00  0.00    +0.010 A 
ATOM     15  C   UNL     1      -0.149   7.072   1.090  0.00  0.00    +0.001 A 
ATOM     16  C   UNL     1      -0.572   8.210   1.766  0.00  0.00    +0.001 A 
ATOM     17  C   UNL     1      -1.839   8.281   2.300  0.00  0.00    +0.014 A 
ATOM     18  C   UNL     1      -2.703   7.196   2.158  0.00  0.00    +0.050 A 
ATOM     19  C   UNL     1      -4.066   7.209   2.705  0.00  0.00    +0.272 A 
ATOM     20  O   UNL     1      -4.484   8.183   3.306  0.00  0.00    -0.266 OA
ATOM     21  N   UNL     1      -4.846   6.123   2.528  0.00  0.00    -0.242 N 
ATOM     22  H   UNL     1      -5.748   6.126   2.887  0.00  0.00    +0.192 HD
ATOM     23  N   UNL     1      -4.392   4.995   1.844  0.00  0.00    -0.175 NA
ENDBRANCH  11  12
ENDBRANCH   8  11
ENDBRANCH   4   7
BRANCH   1  24
ATOM     24  C   UNL     1      -7.840  -2.435   0.392  0.00  0.00    +0.035 C 
BRANCH  24  25
ATOM     25  C   UNL     1      -8.241  -2.887  -1.014  0.00  0.00    +0.008 C 
BRANCH  25  31
ATOM     26  C   UNL     1     -10.076  -3.325  -3.226  0.00  0.00    +0.006 C 
ATOM     27  C   UNL     1      -9.665  -4.481  -2.312  0.00  0.00    -0.028 C 
ATOM     28  C   UNL     1     -10.814  -5.487  -2.214  0.00  0.00    -0.076 C 
ATOM     29  C   UNL     1     -11.728  -4.345  -0.282  0.00  0.00    -0.079 C 
ATOM     30  C   UNL     1     -10.608  -3.304  -0.322  0.00  0.00    -0.015 C 
ATOM     31  C   UNL     1      -9.347  -3.940  -0.915  0.00  0.00    -0.011 C 
ATOM     32  C   UNL     1     -13.159  -5.728  -1.661  0.00  0.00    -0.096 C 
ATOM     33  N   UNL     1     -12.004  -4.806  -1.659  0.00  0.00    +0.378 N 
ATOM     34  H   UNL     1     -12.225  -3.993  -2.245  0.00  0.00    -0.082 HD
ENDBRANCH  25  31
ENDBRANCH  24  25
ENDBRANCH   1  24
TORSDOF 6
