REMARK  Name = ZINC12524988
REMARK  11 active torsions:
REMARK  status: ('A' for Active; 'I' for Inactive)
REMARK    1  A    between atoms: C_1  and  C_2
REMARK    2  A    between atoms: C_2  and  O_3
REMARK    3  A    between atoms: O_3  and  C_4
REMARK    4  A    between atoms: C_4  and  C_6
REMARK    5  A    between atoms: C_7  and  C_30
REMARK    6  A    between atoms: C_10  and  N_11
REMARK    7  A    between atoms: C_12  and  C_14
REMARK    8  A    between atoms: C_14  and  N_15
REMARK    9  A    between atoms: N_18  and  C_21
REMARK   10  A    between atoms: C_26  and  N_27
REMARK   11  A    between atoms: C_33  and  C_36
REMARK                            x       y       z     vdW  Elec       q    Type
REMARK                         _______ _______ _______ _____ _____    ______ ____
ROOT
ATOM      1  N   UNL     1      -3.041  -2.526   2.495  0.00  0.00    -0.278 N 
ATOM      2  C   UNL     1      -3.819  -2.871   3.540  0.00  0.00    +0.232 C 
ATOM      3  O   UNL     1      -4.920  -3.342   3.348  0.00  0.00    -0.274 OA
ATOM      4  H   UNL     1      -2.161  -2.150   2.649  0.00  0.00    +0.155 HD
ENDROOT
BRANCH   1   9
ATOM      5  C   UNL     1      -2.841  -2.416   0.016  0.00  0.00    +0.095 A 
ATOM      6  C   UNL     1      -3.552  -2.716  -1.214  0.00  0.00    +0.005 A 
ATOM      7  C   UNL     1      -4.792  -3.249  -1.056  0.00  0.00    +0.056 A 
ATOM      8  S   UNL     1      -4.977  -3.336   0.712  0.00  0.00    -0.080 S 
ATOM      9  C   UNL     1      -3.499  -2.710   1.200  0.00  0.00    +0.086 A 
BRANCH   6  10
ATOM     10  C   UNL     1      -2.966  -2.457  -2.551  0.00  0.00    -0.017 A 
ATOM     11  C   UNL     1      -2.407  -1.214  -2.841  0.00  0.00    +0.009 A 
ATOM     12  C   UNL     1      -1.862  -0.979  -4.087  0.00  0.00    +0.004 A 
ATOM     13  C   UNL     1      -1.871  -1.975  -5.047  0.00  0.00    -0.050 A 
ATOM     14  C   UNL     1      -2.425  -3.211  -4.765  0.00  0.00    +0.004 A 
ATOM     15  C   UNL     1      -2.967  -3.459  -3.521  0.00  0.00    +0.009 A 
ATOM     16  C   UNL     1      -1.276  -1.712  -6.407  0.00  0.00    +0.044 C 
ENDBRANCH   6  10
BRANCH   5  17
ATOM     17  C   UNL     1      -1.497  -1.838   0.006  0.00  0.00    +0.342 C 
ATOM     18  O   UNL     1      -0.522  -2.566  -0.007  0.00  0.00    -0.245 OA
BRANCH  17  19
ATOM     19  O   UNL     1      -1.339  -0.499   0.012  0.00  0.00    -0.461 OA
BRANCH  19  21
ATOM     20  C   UNL     1      -0.019   1.526   0.010  0.00  0.00    +0.048 C 
ATOM     21  C   UNL     1       0.002  -0.004   0.002  0.00  0.00    +0.229 C 
ENDBRANCH  19  21
ENDBRANCH  17  19
ENDBRANCH   5  17
ENDBRANCH   1   9
BRANCH   2  22
ATOM     22  C   UNL     1      -3.321  -2.671   4.948  0.00  0.00    +0.181 C 
BRANCH  22  23
ATOM     23  N   UNL     1      -4.346  -3.121   5.899  0.00  0.00    -0.291 NA
ATOM     24  C   UNL     1      -5.544  -2.274   5.821  0.00  0.00    +0.104 C 
ATOM     25  C   UNL     1      -6.651  -2.880   6.690  0.00  0.00    +0.120 C 
ATOM     26  N   UNL     1      -6.121  -3.084   8.047  0.00  0.00    -0.326 N 
ATOM     27  C   UNL     1      -4.849  -3.807   8.195  0.00  0.00    +0.120 C 
ATOM     28  C   UNL     1      -3.813  -3.165   7.267  0.00  0.00    +0.104 C 
BRANCH  26  29
ATOM     29  C   UNL     1      -6.808  -2.604   9.164  0.00  0.00    +0.060 A 
ATOM     30  C   UNL     1      -7.745  -3.405   9.803  0.00  0.00    +0.025 A 
ATOM     31  C   UNL     1      -8.422  -2.928  10.908  0.00  0.00    +0.002 A 
ATOM     32  C   UNL     1      -8.167  -1.653  11.379  0.00  0.00    +0.002 A 
ATOM     33  C   UNL     1      -7.234  -0.852  10.745  0.00  0.00    +0.034 A 
ATOM     34  C   UNL     1      -6.550  -1.326   9.643  0.00  0.00    +0.147 A 
BRANCH  34  35
ATOM     35  N   UNL     1      -5.548  -0.470   8.969  0.00  0.00    +0.058 N 
ATOM     36  O   UNL     1      -5.324   0.642   9.387  0.00  0.00    -0.126 OA
ATOM     37  O   UNL     1      -4.953  -0.884   8.002  0.00  0.00    -0.126 OA
ENDBRANCH  34  35
ENDBRANCH  26  29
ENDBRANCH  22  23
ENDBRANCH   2  22
TORSDOF 9
