REMARK  Name = ZINC36087390
REMARK  9 active torsions:
REMARK  status: ('A' for Active; 'I' for Inactive)
REMARK    1  A    between atoms: C_1  and  C_2
REMARK    2  A    between atoms: C_2  and  C_3
REMARK    3  A    between atoms: C_3  and  C_5
REMARK    4  A    between atoms: C_3  and  N_6
REMARK    5  A    between atoms: C_7  and  C_9
REMARK    6  A    between atoms: N_12  and  C_24
REMARK    7  A    between atoms: N_15  and  C_17
REMARK    8  A    between atoms: C_24  and  C_25
REMARK    9  A    between atoms: C_28  and  C_31
REMARK                            x       y       z     vdW  Elec       q    Type
REMARK                         _______ _______ _______ _____ _____    ______ ____
ROOT
ATOM      1  C   UNL     1       4.279   0.345  -2.302  0.00  0.00    +0.210 A 
ATOM      2  C   UNL     1       5.015   0.635  -3.548  0.00  0.00    +0.288 A 
ATOM      3  O   UNL     1       4.510   0.440  -4.637  0.00  0.00    -0.265 OA
ATOM      4  N   UNL     1       6.272   1.125  -3.436  0.00  0.00    -0.253 N 
ATOM      5  C   UNL     1       6.782   1.321  -2.204  0.00  0.00    +0.353 A 
ATOM      6  O   UNL     1       7.909   1.761  -2.088  0.00  0.00    -0.244 OA
ATOM      7  N   UNL     1       6.068   1.041  -1.102  0.00  0.00    -0.181 N 
ATOM      8  N   UNL     1       4.870   0.580  -1.151  0.00  0.00    -0.152 NA
ENDROOT
BRANCH   7   9
ATOM      9  C   UNL     1       6.650   1.266   0.150  0.00  0.00    +0.072 A 
ATOM     10  C   UNL     1       7.261   2.483   0.426  0.00  0.00    +0.028 A 
ATOM     11  C   UNL     1       7.834   2.703   1.663  0.00  0.00    +0.003 A 
ATOM     12  C   UNL     1       7.802   1.712   2.627  0.00  0.00    +0.020 A 
ATOM     13  C   UNL     1       7.195   0.498   2.357  0.00  0.00    +0.043 A 
ATOM     14  C   UNL     1       6.614   0.275   1.123  0.00  0.00    +0.048 A 
ATOM     15 CL   UNL     1       7.157  -0.742   3.571  0.00  0.00    -0.083 Cl
ENDBRANCH   7   9
BRANCH   1  17
ATOM     16  N   UNL     1       2.244  -0.444  -1.201  0.00  0.00    -0.307 N 
ATOM     17  C   UNL     1       2.906  -0.190  -2.347  0.00  0.00    +0.270 C 
ATOM     18  O   UNL     1       2.370  -0.402  -3.418  0.00  0.00    -0.268 OA
ATOM     19  H   UNL     1       2.671  -0.275  -0.347  0.00  0.00    +0.149 HD
BRANCH  16  20
ATOM     20  C   UNL     1       0.879  -0.976  -1.246  0.00  0.00    +0.070 C 
ATOM     21  C   UNL     1       0.930  -2.499  -1.383  0.00  0.00    +0.028 C 
BRANCH  20  23
ATOM     22  C   UNL     1      -0.016   0.916   0.119  0.00  0.00    +0.005 C 
ATOM     23  C   UNL     1       0.144  -0.604   0.043  0.00  0.00    +0.018 C 
ENDBRANCH  20  23
ENDBRANCH  16  20
ENDBRANCH   1  17
BRANCH   4  24
ATOM     24  C   UNL     1       7.062   1.435  -4.630  0.00  0.00    +0.165 C 
BRANCH  24  25
ATOM     25  C   UNL     1       6.817   2.865  -5.037  0.00  0.00    -0.027 A 
ATOM     26  C   UNL     1       5.791   3.167  -5.913  0.00  0.00    +0.005 A 
ATOM     27  C   UNL     1       5.566   4.479  -6.287  0.00  0.00    +0.004 A 
ATOM     28  C   UNL     1       6.367   5.488  -5.785  0.00  0.00    -0.050 A 
ATOM     29  C   UNL     1       7.392   5.185  -4.908  0.00  0.00    +0.004 A 
ATOM     30  C   UNL     1       7.614   3.874  -4.531  0.00  0.00    +0.005 A 
ATOM     31  C   UNL     1       6.122   6.918  -6.193  0.00  0.00    +0.044 C 
ENDBRANCH  24  25
ENDBRANCH   4  24
TORSDOF 6
