REMARK  Name = ZINC39667484
REMARK  6 active torsions:
REMARK  status: ('A' for Active; 'I' for Inactive)
REMARK    1  A    between atoms: C_1  and  C_2
REMARK    2  A    between atoms: C_6  and  C_9
REMARK    3  A    between atoms: C_7  and  C_8
REMARK    4  A    between atoms: C_9  and  N_10
REMARK    5  A    between atoms: C_11  and  C_13
REMARK    6  A    between atoms: C_24  and  C_26
REMARK                            x       y       z     vdW  Elec       q    Type
REMARK                         _______ _______ _______ _____ _____    ______ ____
ROOT
ATOM      1  C   UNL     1      -2.728  -3.390   4.844  0.00  0.00    +0.100 C 
ATOM      2  C   UNL     1      -3.287  -2.027   5.309  0.00  0.00    +0.121 C 
ATOM      3  N   UNL     1      -4.121  -2.348   6.491  0.00  0.00    -0.296 N 
ATOM      4  C   UNL     1      -3.355  -3.392   7.211  0.00  0.00    +0.115 C 
ATOM      5  C   UNL     1      -2.774  -4.283   6.095  0.00  0.00    -0.004 C 
ATOM      6  C   UNL     1      -1.367  -4.744   6.467  0.00  0.00    -0.010 C 
ATOM      7  C   UNL     1      -1.444  -5.677   7.678  0.00  0.00    -0.082 C 
ATOM      8  N   UNL     1      -2.290  -6.833   7.355  0.00  0.00    +0.379 N 
ATOM      9  C   UNL     1      -3.664  -6.389   7.090  0.00  0.00    -0.082 C 
ATOM     10  C   UNL     1      -3.681  -5.486   5.853  0.00  0.00    -0.010 C 
ATOM     11  C   UNL     1      -5.309  -1.811   6.833  0.00  0.00    +0.247 C 
ATOM     12  O   UNL     1      -5.833  -2.117   7.887  0.00  0.00    -0.270 OA
ATOM     13  H   UNL     1      -1.924  -7.298   6.538  0.00  0.00    -0.086 HD
ATOM     14  H   UNL     1      -2.290  -7.476   8.133  0.00  0.00    -0.086 HD
ENDROOT
BRANCH  11  15
ATOM     15  C   UNL     1      -5.975  -0.852   5.928  0.00  0.00    +0.045 A 
ATOM     16  C   UNL     1      -5.265   0.241   5.417  0.00  0.00    +0.014 A 
ATOM     17  C   UNL     1      -5.883   1.137   4.573  0.00  0.00    +0.001 A 
ATOM     18  C   UNL     1      -7.213   0.968   4.220  0.00  0.00    +0.012 A 
ATOM     19  C   UNL     1      -7.936  -0.110   4.717  0.00  0.00    +0.031 A 
ATOM     20  C   UNL     1      -7.318  -1.035   5.573  0.00  0.00    +0.006 A 
ATOM     21  C   UNL     1      -8.307  -2.078   5.943  0.00  0.00    -0.006 A 
ATOM     22  C   UNL     1      -8.211  -3.199   6.757  0.00  0.00    +0.009 A 
ATOM     23  C   UNL     1      -9.312  -4.023   6.934  0.00  0.00    +0.001 A 
ATOM     24  C   UNL     1     -10.508  -3.738   6.306  0.00  0.00    +0.001 A 
ATOM     25  C   UNL     1     -10.620  -2.622   5.490  0.00  0.00    +0.012 A 
ATOM     26  C   UNL     1      -9.525  -1.788   5.305  0.00  0.00    +0.030 A 
ATOM     27  C   UNL     1      -9.341  -0.542   4.522  0.00  0.00    +0.194 C 
ATOM     28  O   UNL     1     -10.178   0.012   3.839  0.00  0.00    -0.287 OA
ENDBRANCH  11  15
BRANCH   1  30
ATOM     29  N   UNL     1      -0.784  -4.151   3.518  0.00  0.00    -0.311 N 
ATOM     30  C   UNL     1      -1.310  -3.239   4.359  0.00  0.00    +0.218 C 
ATOM     31  O   UNL     1      -0.641  -2.295   4.725  0.00  0.00    -0.275 OA
ATOM     32  H   UNL     1      -1.318  -4.905   3.224  0.00  0.00    +0.149 HD
BRANCH  29  33
ATOM     33  C   UNL     1       0.595  -4.003   3.046  0.00  0.00    +0.139 C 
BRANCH  33  39
ATOM     34  C   UNL     1       0.375  -6.139  -1.474  0.00  0.00    +0.044 C 
ATOM     35  C   UNL     1       0.830  -6.168  -0.038  0.00  0.00    -0.047 A 
ATOM     36  C   UNL     1       1.561  -7.243   0.434  0.00  0.00    +0.003 A 
ATOM     37  C   UNL     1       1.978  -7.269   1.752  0.00  0.00    +0.001 A 
ATOM     38  C   UNL     1       1.666  -6.221   2.597  0.00  0.00    +0.005 A 
ATOM     39  C   UNL     1       0.936  -5.146   2.124  0.00  0.00    -0.027 A 
ATOM     40  C   UNL     1       0.522  -5.117   0.806  0.00  0.00    -0.043 A 
ATOM     41  C   UNL     1      -0.269  -3.943   0.289  0.00  0.00    +0.044 C 
ENDBRANCH  33  39
ENDBRANCH  29  33
ENDBRANCH   1  30
TORSDOF 4
