REMARK  Name = ZINC09407156
REMARK  7 active torsions:
REMARK  status: ('A' for Active; 'I' for Inactive)
REMARK    1  A    between atoms: C_1  and  C_2
REMARK    2  A    between atoms: C_2  and  C_3
REMARK    3  A    between atoms: C_2  and  C_4
REMARK    4  A    between atoms: C_4  and  N_5
REMARK    5  A    between atoms: C_6  and  C_33
REMARK    6  A    between atoms: C_8  and  C_18
REMARK    7  A    between atoms: N_23  and  C_26
REMARK                            x       y       z     vdW  Elec       q    Type
REMARK                         _______ _______ _______ _____ _____    ______ ____
ROOT
ATOM      1  N   UNL     1       3.560   3.403   0.265  0.00  0.00    -0.289 N 
ATOM      2  C   UNL     1       3.630   2.134   0.985  0.00  0.00    +0.129 C 
ATOM      3  C   UNL     1       2.753   1.077   0.318  0.00  0.00    +0.131 C 
ATOM      4  C   UNL     1       1.368   1.623   0.089  0.00  0.00    -0.021 A 
ATOM      5  C   UNL     1       0.268   0.795   0.146  0.00  0.00    +0.005 A 
ATOM      6  C   UNL     1      -0.995   1.306  -0.103  0.00  0.00    +0.000 A 
ATOM      7  C   UNL     1      -1.162   2.647  -0.400  0.00  0.00    +0.001 A 
ATOM      8  C   UNL     1      -0.068   3.487  -0.455  0.00  0.00    +0.013 A 
ATOM      9  C   UNL     1       1.204   2.978  -0.204  0.00  0.00    +0.041 A 
ATOM     10  C   UNL     1       2.393   3.856  -0.234  0.00  0.00    +0.247 C 
ATOM     11  O   UNL     1       2.319   4.974  -0.704  0.00  0.00    -0.270 OA
ENDROOT
BRANCH   3  12
ATOM     12  C   UNL     1       3.361   0.686  -1.005  0.00  0.00    +0.225 C 
ATOM     13  O   UNL     1       2.959   1.193  -2.031  0.00  0.00    -0.275 OA
ATOM     14  N   UNL     1       4.350  -0.228  -1.048  0.00  0.00    -0.298 N 
ATOM     15  C   UNL     1       4.780  -0.933   0.169  0.00  0.00    +0.126 C 
ATOM     16  C   UNL     1       4.779  -2.442  -0.122  0.00  0.00    +0.124 C 
ATOM     17  N   UNL     1       5.596  -2.706  -1.314  0.00  0.00    -0.327 N 
ATOM     18  C   UNL     1       5.026  -2.062  -2.505  0.00  0.00    +0.124 C 
ATOM     19  C   UNL     1       5.033  -0.542  -2.312  0.00  0.00    +0.126 C 
BRANCH  17  20
ATOM     20  C   UNL     1       5.758  -4.080  -1.516  0.00  0.00    +0.030 A 
ATOM     21  C   UNL     1       5.386  -4.653  -2.725  0.00  0.00    +0.024 A 
ATOM     22  C   UNL     1       5.553  -6.010  -2.924  0.00  0.00    +0.022 A 
ATOM     23  C   UNL     1       6.077  -6.799  -1.916  0.00  0.00    +0.041 A 
ATOM     24  C   UNL     1       6.443  -6.231  -0.708  0.00  0.00    +0.022 A 
ATOM     25  C   UNL     1       6.285  -4.874  -0.506  0.00  0.00    +0.024 A 
ATOM     26 CL   UNL     1       6.278  -8.505  -2.167  0.00  0.00    -0.084 Cl
ENDBRANCH  17  20
ENDBRANCH   3  12
BRANCH   2  27
ATOM     27  C   UNL     1       3.163   2.342   2.402  0.00  0.00    +0.011 A 
ATOM     28  C   UNL     1       3.657   1.817   3.550  0.00  0.00    +0.013 A 
ATOM     29  C   UNL     1       3.064   2.155   4.752  0.00  0.00    +0.008 A 
ATOM     30  C   UNL     1       1.999   2.993   4.746  0.00  0.00    +0.045 A 
ATOM     31  S   UNL     1       1.810   3.338   3.005  0.00  0.00    -0.100 S 
ENDBRANCH   2  27
BRANCH   1  32
ATOM     32  C   UNL     1       4.778   4.197   0.082  0.00  0.00    +0.111 C 
BRANCH  32  34
ATOM     33  C   UNL     1       6.349   5.796   1.184  0.00  0.00    +0.009 C 
ATOM     34  C   UNL     1       5.019   5.054   1.326  0.00  0.00    +0.000 C 
ATOM     35  C   UNL     1       3.883   6.068   1.475  0.00  0.00    +0.009 C 
ENDBRANCH  32  34
ENDBRANCH   1  32
TORSDOF 5
