REMARK  Name = ZINC00719912
REMARK  7 active torsions:
REMARK  status: ('A' for Active; 'I' for Inactive)
REMARK    1  A    between atoms: C_1  and  N_2
REMARK    2  A    between atoms: N_2  and  C_3
REMARK    3  A    between atoms: C_6  and  O_9
REMARK    4  A    between atoms: O_9  and  C_10
REMARK    5  A    between atoms: C_14  and  C_16
REMARK    6  A    between atoms: C_21  and  C_36
REMARK    7  A    between atoms: C_24  and  C_27
REMARK                            x       y       z     vdW  Elec       q    Type
REMARK                         _______ _______ _______ _____ _____    ______ ____
ROOT
ATOM      1  C   UNL     1      -0.194   0.300  -2.383  0.00  0.00    +0.149 A 
ATOM      2  C   UNL     1      -0.268  -0.183  -3.709  0.00  0.00    +0.078 A 
ATOM      3  C   UNL     1      -0.273   0.884  -4.532  0.00  0.00    +0.119 A 
ATOM      4  N   UNL     1      -0.207   2.013  -3.764  0.00  0.00    -0.238 N 
ATOM      5  N   UNL     1      -0.162   1.620  -2.427  0.00  0.00    -0.164 NA
ATOM      6  C   UNL     1      -0.197   3.371  -4.315  0.00  0.00    +0.215 C 
ATOM      7  C   UNL     1      -0.745   3.330  -5.746  0.00  0.00    +0.063 C 
ATOM      8  C   UNL     1      -0.032   2.236  -6.547  0.00  0.00    +0.104 C 
ATOM      9  N   UNL     1      -0.331   0.930  -5.928  0.00  0.00    -0.322 N 
ATOM     10  H   UNL     1      -0.555   0.149  -6.458  0.00  0.00    +0.148 HD
ENDROOT
BRANCH   8  11
ATOM     11  C   UNL     1      -0.523   2.249  -7.972  0.00  0.00    -0.024 A 
ATOM     12  C   UNL     1      -1.730   1.654  -8.290  0.00  0.00    +0.009 A 
ATOM     13  C   UNL     1      -2.186   1.664  -9.595  0.00  0.00    +0.050 A 
ATOM     14  C   UNL     1      -1.433   2.271 -10.588  0.00  0.00    +0.166 A 
ATOM     15  C   UNL     1      -0.218   2.870 -10.267  0.00  0.00    +0.167 A 
ATOM     16  C   UNL     1       0.230   2.861  -8.956  0.00  0.00    +0.055 A 
ATOM     17  O   UNL     1       0.326   3.392 -11.405  0.00  0.00    -0.453 OA
ATOM     18  C   UNL     1      -0.369   2.751 -12.492  0.00  0.00    +0.466 C 
ATOM     19  O   UNL     1      -1.651   2.417 -11.928  0.00  0.00    -0.453 OA
ENDBRANCH   8  11
BRANCH   1  22
ATOM     20  C   UNL     1      -0.439   1.503   0.158  0.00  0.00    +0.138 C 
ATOM     21  N   UNL     1      -0.213   0.060   0.052  0.00  0.00    -0.269 N 
ATOM     22  C   UNL     1      -0.163  -0.527  -1.160  0.00  0.00    +0.271 C 
ATOM     23  O   UNL     1      -0.093  -1.738  -1.247  0.00  0.00    -0.268 OA
BRANCH  21  24
ATOM     24  C   UNL     1      -0.050  -0.710   1.210  0.00  0.00    +0.037 A 
ATOM     25  C   UNL     1       0.331  -2.042   1.111  0.00  0.00    +0.027 A 
ATOM     26  C   UNL     1       0.491  -2.800   2.254  0.00  0.00    +0.048 A 
ATOM     27  C   UNL     1       0.273  -2.232   3.501  0.00  0.00    +0.130 A 
ATOM     28  C   UNL     1      -0.107  -0.902   3.600  0.00  0.00    +0.048 A 
ATOM     29  C   UNL     1      -0.263  -0.141   2.459  0.00  0.00    +0.027 A 
BRANCH  27  30
ATOM     30  O   UNL     1       0.431  -2.980   4.625  0.00  0.00    -0.406 OA
BRANCH  30  31
ATOM     31  C   UNL     1       0.189  -2.331   5.875  0.00  0.00    +0.575 C 
ATOM     32  F   UNL     1      -1.131  -1.869   5.913  0.00  0.00    -0.133 F 
ATOM     33  F   UNL     1       0.396  -3.238   6.920  0.00  0.00    -0.133 F 
ATOM     34  F   UNL     1       1.066  -1.250   6.016  0.00  0.00    -0.133 F 
ENDBRANCH  30  31
ENDBRANCH  27  30
ENDBRANCH  21  24
ENDBRANCH   1  22
BRANCH   6  35
ATOM     35  C   UNL     1      -1.075   4.280  -3.453  0.00  0.00    +0.412 C 
ATOM     36  F   UNL     1      -0.578   4.305  -2.145  0.00  0.00    -0.168 F 
ATOM     37  F   UNL     1      -1.063   5.576  -3.980  0.00  0.00    -0.168 F 
ATOM     38  F   UNL     1      -2.385   3.792  -3.445  0.00  0.00    -0.168 F 
ENDBRANCH   6  35
TORSDOF 6
