REMARK  Name = ZINC21078565
REMARK  8 active torsions:
REMARK  status: ('A' for Active; 'I' for Inactive)
REMARK    1  A    between atoms: C_3  and  N_13
REMARK    2  A    between atoms: C_5  and  N_7
REMARK    3  A    between atoms: C_14  and  C_16
REMARK    4  A    between atoms: C_16  and  C_17
REMARK    5  A    between atoms: C_17  and  S_18
REMARK    6  A    between atoms: S_18  and  C_19
REMARK    7  A    between atoms: N_24  and  N_25
REMARK    8  A    between atoms: C_26  and  C_27
REMARK                            x       y       z     vdW  Elec       q    Type
REMARK                         _______ _______ _______ _____ _____    ______ ____
ROOT
ATOM      1  S   UNL     1      -5.453  10.751  -0.300  0.00  0.00    -0.084 S 
ENDROOT
BRANCH   1   2
ATOM      2  C   UNL     1      -4.395   9.365  -0.554  0.00  0.00    +0.210 A 
ATOM      3  N   UNL     1      -4.787   8.059  -0.634  0.00  0.00    -0.186 NA
ATOM      4  C   UNL     1      -3.671   7.295  -0.834  0.00  0.00    +0.232 A 
ATOM      5  N   UNL     1      -2.633   8.095  -0.870  0.00  0.00    -0.245 N 
ATOM      6  N   UNL     1      -3.091   9.407  -0.698  0.00  0.00    -0.144 NA
ATOM      7  N   UNL     1      -3.642   5.914  -0.969  0.00  0.00    -0.205 N 
ATOM      8  H   UNL     1      -4.577   5.337  -0.918  0.00  0.00    +0.177 HD
ATOM      9  H   UNL     1      -1.625   7.680  -1.018  0.00  0.00    +0.192 HD
BRANCH   7  10
ATOM     10  N   UNL     1      -2.422   5.255  -1.171  0.00  0.00    -0.188 NA
ATOM     11  C   UNL     1      -2.395   3.963  -1.297  0.00  0.00    +0.139 C 
BRANCH  11  12
ATOM     12  C   UNL     1      -1.112   3.270  -1.510  0.00  0.00    +0.014 A 
ATOM     13  C   UNL     1      -1.079   1.881  -1.651  0.00  0.00    +0.011 A 
ATOM     14  C   UNL     1       0.126   1.238  -1.844  0.00  0.00    +0.002 A 
ATOM     15  C   UNL     1       1.301   1.966  -1.909  0.00  0.00    +0.021 A 
ATOM     16  C   UNL     1       1.278   3.343  -1.775  0.00  0.00    +0.060 A 
ATOM     17  C   UNL     1       0.078   4.001  -1.576  0.00  0.00    +0.068 A 
ATOM     18 CL   UNL     1       0.050   5.728  -1.408  0.00  0.00    -0.081 Cl
ATOM     19 CL   UNL     1       2.757   4.247  -1.857  0.00  0.00    -0.082 Cl
ENDBRANCH  11  12
ENDBRANCH   7  10
ENDBRANCH   1   2
BRANCH   1  20
ATOM     20  C   UNL     1      -4.324  12.171  -0.293  0.00  0.00    +0.086 C 
BRANCH  20  21
ATOM     21  C   UNL     1      -5.124  13.457  -0.079  0.00  0.00    +0.107 C 
BRANCH  21  23
ATOM     22  N   UNL     1      -4.670  15.882   0.102  0.00  0.00    -0.285 N 
ATOM     23  C   UNL     1      -4.186  14.637  -0.073  0.00  0.00    +0.218 C 
ATOM     24  O   UNL     1      -2.995  14.465  -0.225  0.00  0.00    -0.275 OA
ATOM     25  H   UNL     1      -5.756  16.048   0.152  0.00  0.00    +0.155 HD
BRANCH  22  28
ATOM     26  C   UNL     1      -1.686  17.862   0.941  0.00  0.00    +0.004 A 
ATOM     27  C   UNL     1      -2.556  16.795   0.830  0.00  0.00    +0.023 A 
ATOM     28  C   UNL     1      -3.791  16.965   0.218  0.00  0.00    +0.035 A 
ATOM     29  C   UNL     1      -4.155  18.211  -0.273  0.00  0.00    +0.046 A 
ATOM     30  C   UNL     1      -3.281  19.282  -0.155  0.00  0.00    +0.038 A 
ATOM     31  C   UNL     1      -2.045  19.104   0.454  0.00  0.00    +0.023 A 
BRANCH  30  32
ATOM     32  N   UNL     1      -3.644  20.540  -0.648  0.00  0.00    -0.271 N 
ATOM     33  C   UNL     1      -2.753  21.705  -0.683  0.00  0.00    +0.114 C 
ATOM     34  C   UNL     1      -3.678  22.926  -0.881  0.00  0.00    +0.029 C 
ATOM     35  C   UNL     1      -4.899  22.286  -1.580  0.00  0.00    +0.098 C 
ATOM     36  C   UNL     1      -4.853  20.835  -1.157  0.00  0.00    +0.220 C 
ATOM     37  O   UNL     1      -5.774  20.052  -1.259  0.00  0.00    -0.275 OA
ENDBRANCH  30  32
ENDBRANCH  22  28
ENDBRANCH  21  23
ENDBRANCH  20  21
ENDBRANCH   1  20
TORSDOF 8
