REMARK  Name = ZINC47999037
REMARK  8 active torsions:
REMARK  status: ('A' for Active; 'I' for Inactive)
REMARK    1  A    between atoms: C_1  and  C_2
REMARK    2  A    between atoms: N_7  and  C_9
REMARK    3  A    between atoms: C_9  and  C_11
REMARK    4  A    between atoms: C_9  and  C_12
REMARK    5  A    between atoms: C_12  and  N_13
REMARK    6  A    between atoms: C_14  and  C_16
REMARK    7  A    between atoms: N_18  and  C_19
REMARK    8  A    between atoms: C_20  and  C_24
REMARK                            x       y       z     vdW  Elec       q    Type
REMARK                         _______ _______ _______ _____ _____    ______ ____
ROOT
ATOM      1  N   UNL     1       1.995  -4.565   1.353  0.00  0.00    -0.309 N 
ATOM      2  C   UNL     1       1.953  -5.895   1.139  0.00  0.00    +0.299 C 
ATOM      3  O   UNL     1       1.356  -6.615   1.912  0.00  0.00    -0.265 OA
ATOM      4  H   UNL     1       2.472  -3.989   0.736  0.00  0.00    +0.149 HD
ENDROOT
BRANCH   2   5
ATOM      5  C   UNL     1       2.641  -6.481  -0.049  0.00  0.00    +0.304 C 
ATOM      6  O   UNL     1       3.238  -5.761  -0.822  0.00  0.00    -0.265 OA
ATOM      7  N   UNL     1       2.600  -7.811  -0.263  0.00  0.00    -0.272 N 
ATOM      8  H   UNL     1       2.123  -8.387   0.355  0.00  0.00    +0.156 HD
BRANCH   7   9
ATOM      9  C   UNL     1       3.237  -8.355  -1.364  0.00  0.00    +0.084 A 
ATOM     10  C   UNL     1       3.296  -9.689  -1.744  0.00  0.00    +0.065 A 
ATOM     11  C   UNL     1       4.035  -9.986  -2.949  0.00  0.00    +0.022 A 
ATOM     12  C   UNL     1       4.590  -8.929  -3.572  0.00  0.00    +0.048 A 
ATOM     13  S   UNL     1       4.112  -7.553  -2.550  0.00  0.00    -0.081 S 
BRANCH  10  14
ATOM     14  C   UNL     1       2.640 -10.743  -0.963  0.00  0.00    +0.244 C 
ATOM     15  O   UNL     1       2.025 -10.457   0.048  0.00  0.00    -0.270 OA
ATOM     16  N   UNL     1       2.719 -12.027  -1.364  0.00  0.00    -0.325 N 
ATOM     17  H   UNL     1       3.209 -12.255  -2.169  0.00  0.00    +0.145 HD
ATOM     18  H   UNL     1       2.285 -12.724  -0.847  0.00  0.00    +0.145 HD
ENDBRANCH  10  14
ENDBRANCH   7   9
ENDBRANCH   2   5
BRANCH   1  19
ATOM     19  C   UNL     1       1.320  -3.989   2.519  0.00  0.00    +0.089 C 
BRANCH  19  20
ATOM     20  C   UNL     1       1.403  -2.463   2.455  0.00  0.00    -0.054 C 
ATOM     21  C   UNL     1       0.598  -1.859   3.607  0.00  0.00    -0.012 C 
BRANCH  20  27
ATOM     22  C   UNL     1      -2.636  -2.213  -0.299  0.00  0.00    +0.005 C 
ATOM     23  C   UNL     1      -1.141  -1.893  -0.244  0.00  0.00    -0.031 C 
ATOM     24  C   UNL     1      -0.932  -0.389  -0.444  0.00  0.00    -0.001 C 
ATOM     25  C   UNL     1       0.559  -0.068  -0.309  0.00  0.00    -0.018 C 
ATOM     26  C   UNL     1       1.057  -0.547   1.057  0.00  0.00    -0.078 C 
ATOM     27  N   UNL     1       0.854  -1.996   1.175  0.00  0.00    +0.383 N 
ATOM     28  C   UNL     1      -0.580  -2.305   1.118  0.00  0.00    -0.075 C 
ATOM     29  H   UNL     1       1.327  -2.464   0.417  0.00  0.00    -0.081 HD
ENDBRANCH  20  27
ENDBRANCH  19  20
ENDBRANCH   1  19
TORSDOF 6
