REMARK  Name = ZINC48328621
REMARK  4 active torsions:
REMARK  status: ('A' for Active; 'I' for Inactive)
REMARK    1  A    between atoms: C_1  and  C_2
REMARK    2  A    between atoms: C_2  and  C_4
REMARK    3  A    between atoms: C_2  and  N_10
REMARK    4  A    between atoms: N_13  and  C_14
REMARK                            x       y       z     vdW  Elec       q    Type
REMARK                         _______ _______ _______ _____ _____    ______ ____
ROOT
ATOM      1  N   UNL     1       0.710  -0.495   1.188  0.00  0.00    -0.294 N 
ATOM      2  C   UNL     1       0.052  -0.631   2.356  0.00  0.00    +0.304 C 
ATOM      3  O   UNL     1      -1.129  -0.349   2.425  0.00  0.00    -0.252 OA
ATOM      4  N   UNL     1       0.703  -1.080   3.447  0.00  0.00    -0.269 N 
ATOM      5  H   UNL     1       1.652  -0.720   1.132  0.00  0.00    +0.151 HD
ATOM      6  H   UNL     1       1.627  -1.368   3.377  0.00  0.00    +0.156 HD
ENDROOT
BRANCH   4   7
ATOM      7  C   UNL     1       0.047  -1.130   4.682  0.00  0.00    +0.038 A 
ATOM      8  C   UNL     1      -1.308  -1.449   4.732  0.00  0.00    +0.024 A 
ATOM      9  C   UNL     1      -1.960  -1.501   5.945  0.00  0.00    +0.014 A 
ATOM     10  C   UNL     1      -1.261  -1.234   7.118  0.00  0.00    +0.028 A 
ATOM     11  C   UNL     1      -1.633  -1.201   8.546  0.00  0.00    +0.028 A 
ATOM     12  C   UNL     1      -2.816  -1.424   9.241  0.00  0.00    +0.012 A 
ATOM     13  C   UNL     1      -2.834  -1.312  10.615  0.00  0.00    +0.001 A 
ATOM     14  C   UNL     1      -1.677  -0.977  11.301  0.00  0.00    +0.004 A 
ATOM     15  C   UNL     1      -0.498  -0.754  10.621  0.00  0.00    +0.047 A 
ATOM     16  C   UNL     1      -0.460  -0.864   9.236  0.00  0.00    +0.136 A 
ATOM     17  O   UNL     1       0.536  -0.703   8.337  0.00  0.00    -0.455 OA
ATOM     18  C   UNL     1       0.103  -0.913   7.074  0.00  0.00    +0.138 A 
ATOM     19  C   UNL     1       0.750  -0.869   5.846  0.00  0.00    +0.070 A 
ENDBRANCH   4   7
BRANCH   1  21
ATOM     20  C   UNL     1      -0.007   1.523   0.006  0.00  0.00    +0.030 C 
ATOM     21  C   UNL     1       0.002  -0.007   0.001  0.00  0.00    +0.100 C 
BRANCH  21  22
ATOM     22  C   UNL     1       0.711  -0.509  -1.258  0.00  0.00    +0.138 C 
ATOM     23  C   UNL     1       0.729  -2.052  -1.269  0.00  0.00    +0.035 C 
ATOM     24  C   UNL     1       2.144  -2.361  -1.831  0.00  0.00    +0.031 C 
ATOM     25  C   UNL     1       2.960  -1.188  -1.233  0.00  0.00    +0.160 C 
ATOM     26  O   UNL     1       2.071  -0.058  -1.262  0.00  0.00    -0.375 OA
ENDBRANCH  21  22
ENDBRANCH   1  21
TORSDOF 3
