REMARK  Name = ZINC36637951
REMARK  10 active torsions:
REMARK  status: ('A' for Active; 'I' for Inactive)
REMARK    1  A    between atoms: C_1  and  C_2
REMARK    2  A    between atoms: C_2  and  N_3
REMARK    3  A    between atoms: N_3  and  C_4
REMARK    4  A    between atoms: N_3  and  C_6
REMARK    5  A    between atoms: C_4  and  C_5
REMARK    6  A    between atoms: C_6  and  C_7
REMARK    7  A    between atoms: C_7  and  N_8
REMARK    8  A    between atoms: C_12  and  C_18
REMARK    9  A    between atoms: C_19  and  C_21
REMARK   10  A    between atoms: C_23  and  C_31
REMARK                            x       y       z     vdW  Elec       q    Type
REMARK                         _______ _______ _______ _____ _____    ______ ____
ROOT
ATOM      1  N   UNL     1      -2.672  -4.032   0.328  0.00  0.00    -0.248 N 
ATOM      2  C   UNL     1      -2.744  -4.634   1.572  0.00  0.00    +0.168 A 
ATOM      3  N   UNL     1      -2.798  -5.912   1.866  0.00  0.00    -0.224 NA
ATOM      4  C   UNL     1      -2.867  -6.362   3.138  0.00  0.00    +0.083 A 
ATOM      5  C   UNL     1      -2.929  -7.701   3.588  0.00  0.00    -0.024 A 
ATOM      6  C   UNL     1      -2.997  -7.987   4.927  0.00  0.00    +0.005 A 
ATOM      7  C   UNL     1      -3.006  -6.982   5.883  0.00  0.00    +0.001 A 
ATOM      8  C   UNL     1      -2.945  -5.661   5.479  0.00  0.00    +0.017 A 
ATOM      9  C   UNL     1      -2.877  -5.365   4.140  0.00  0.00    +0.041 A 
ATOM     10  S   UNL     1      -2.781  -3.869   3.187  0.00  0.00    -0.052 S 
ATOM     11  C   UNL     1      -2.923  -8.825   2.586  0.00  0.00    +0.046 C 
ATOM     12  C   UNL     1      -2.654  -4.789  -0.787  0.00  0.00    +0.253 C 
ATOM     13  O   UNL     1      -2.791  -5.994  -0.706  0.00  0.00    -0.270 OA
ENDROOT
BRANCH  12  14
ATOM     14  C   UNL     1      -2.469  -4.154  -2.109  0.00  0.00    +0.048 A 
ATOM     15  C   UNL     1      -3.326  -3.161  -2.558  0.00  0.00    +0.042 A 
ATOM     16  C   UNL     1      -3.112  -2.584  -3.822  0.00  0.00    +0.079 A 
ATOM     17  N   UNL     1      -2.117  -2.955  -4.605  0.00  0.00    -0.246 NA
ATOM     18  C   UNL     1      -1.246  -3.902  -4.251  0.00  0.00    +0.072 A 
ATOM     19  C   UNL     1      -1.369  -4.544  -2.993  0.00  0.00    +0.013 A 
ATOM     20  C   UNL     1      -0.451  -5.532  -2.624  0.00  0.00    +0.011 A 
ATOM     21  C   UNL     1       0.560  -5.866  -3.478  0.00  0.00    +0.001 A 
ATOM     22  C   UNL     1       0.689  -5.235  -4.712  0.00  0.00    +0.002 A 
ATOM     23  C   UNL     1      -0.195  -4.277  -5.108  0.00  0.00    +0.028 A 
BRANCH  16  24
ATOM     24  C   UNL     1      -4.031  -1.529  -4.289  0.00  0.00    +0.038 A 
ATOM     25  C   UNL     1      -4.078  -0.901  -5.508  0.00  0.00    +0.017 A 
ATOM     26  C   UNL     1      -5.035   0.065  -5.717  0.00  0.00    +0.008 A 
ATOM     27  C   UNL     1      -5.901   0.367  -4.714  0.00  0.00    +0.046 A 
ATOM     28  S   UNL     1      -5.376  -0.742  -3.418  0.00  0.00    -0.095 S 
ENDBRANCH  16  24
ENDBRANCH  12  14
BRANCH   1  29
ATOM     29  C   UNL     1      -2.614  -2.572   0.222  0.00  0.00    +0.097 C 
BRANCH  29  30
ATOM     30  C   UNL     1      -1.155  -2.127   0.103  0.00  0.00    -0.059 C 
BRANCH  30  31
ATOM     31  N   UNL     1      -1.102  -0.677  -0.129  0.00  0.00    +0.380 N 
ATOM     32  H   UNL     1      -1.652  -0.447  -0.943  0.00  0.00    -0.082 HD
BRANCH  31  34
ATOM     33  C   UNL     1      -1.705   1.527   0.752  0.00  0.00    -0.017 C 
ATOM     34  C   UNL     1      -1.643   0.026   1.042  0.00  0.00    -0.082 C 
ENDBRANCH  31  34
BRANCH  31  35
ATOM     35  C   UNL     1       0.291  -0.266  -0.346  0.00  0.00    -0.082 C 
ATOM     36  C   UNL     1       0.815  -0.901  -1.636  0.00  0.00    -0.017 C 
ENDBRANCH  31  35
ENDBRANCH  30  31
ENDBRANCH  29  30
ENDBRANCH   1  29
TORSDOF 7
