REMARK  Name = ZINC42981547
REMARK  12 active torsions:
REMARK  status: ('A' for Active; 'I' for Inactive)
REMARK    1  A    between atoms: C_1  and  C_2
REMARK    2  A    between atoms: C_5  and  C_8
REMARK    3  A    between atoms: C_8  and  N_9
REMARK    4  A    between atoms: C_10  and  C_12
REMARK    5  A    between atoms: C_12  and  C_14
REMARK    6  A    between atoms: C_12  and  S_17
REMARK    7  A    between atoms: C_14  and  C_15
REMARK    8  A    between atoms: C_14  and  C_16
REMARK    9  A    between atoms: S_17  and  C_18
REMARK   10  A    between atoms: C_21  and  C_24
REMARK   11  A    between atoms: N_22  and  N_23
REMARK   12  A    between atoms: C_28  and  C_29
REMARK                            x       y       z     vdW  Elec       q    Type
REMARK                         _______ _______ _______ _____ _____    ______ ____
ROOT
ATOM      1  C   UNL     1       3.139  -6.520  -0.042  0.00  0.00    +0.143 C 
ENDROOT
BRANCH   1   3
ATOM      2  N   UNL     1       1.245  -4.950  -0.306  0.00  0.00    -0.310 N 
ATOM      3  C   UNL     1       1.672  -6.226  -0.228  0.00  0.00    +0.227 C 
ATOM      4  O   UNL     1       0.877  -7.138  -0.308  0.00  0.00    -0.275 OA
ATOM      5  H   UNL     1       1.881  -4.221  -0.242  0.00  0.00    +0.149 HD
BRANCH   2   6
ATOM      6  C   UNL     1      -0.180  -4.665  -0.486  0.00  0.00    +0.139 C 
BRANCH   6  11
ATOM      7  C   UNL     1      -0.991   1.053  -0.698  0.00  0.00    +0.044 C 
ATOM      8  C   UNL     1      -0.780  -0.438  -0.643  0.00  0.00    -0.050 A 
ATOM      9  C   UNL     1      -0.536  -1.145  -1.805  0.00  0.00    +0.003 A 
ATOM     10  C   UNL     1      -0.342  -2.513  -1.755  0.00  0.00    +0.005 A 
ATOM     11  C   UNL     1      -0.391  -3.174  -0.541  0.00  0.00    -0.030 A 
ATOM     12  C   UNL     1      -0.634  -2.466   0.621  0.00  0.00    +0.005 A 
ATOM     13  C   UNL     1      -0.824  -1.098   0.571  0.00  0.00    +0.003 A 
ENDBRANCH   6  11
ENDBRANCH   2   6
ENDBRANCH   1   3
BRANCH   1  14
ATOM     14  C   UNL     1       3.857  -6.401  -1.388  0.00  0.00    +0.005 C 
ATOM     15  C   UNL     1       3.687  -4.982  -1.934  0.00  0.00    +0.009 C 
ATOM     16  C   UNL     1       5.346  -6.699  -1.199  0.00  0.00    +0.009 C 
ENDBRANCH   1  14
BRANCH   1  17
ATOM     17  S   UNL     1       3.341  -8.202   0.605  0.00  0.00    -0.071 S 
BRANCH  17  18
ATOM     18  C   UNL     1       2.671  -8.116   2.232  0.00  0.00    +0.209 A 
ATOM     19  N   UNL     1       2.234  -7.037   2.839  0.00  0.00    -0.121 NA
ATOM     20  N   UNL     1       1.813  -7.332   4.016  0.00  0.00    -0.127 NA
ATOM     21  C   UNL     1       1.955  -8.618   4.234  0.00  0.00    +0.185 A 
ATOM     22  N   UNL     1       2.504  -9.162   3.097  0.00  0.00    -0.224 N 
BRANCH  21  23
ATOM     23  C   UNL     1       1.588  -9.347   5.469  0.00  0.00    +0.061 A 
ATOM     24  C   UNL     1       1.746 -10.783   5.731  0.00  0.00    +0.053 A 
ATOM     25  C   UNL     1       1.280 -10.987   6.973  0.00  0.00    +0.196 A 
ATOM     26  O   UNL     1       0.859  -9.818   7.480  0.00  0.00    -0.467 OA
ATOM     27  C   UNL     1       1.040  -8.824   6.598  0.00  0.00    +0.112 A 
ATOM     28  C   UNL     1       0.691  -7.375   6.820  0.00  0.00    +0.087 C 
ENDBRANCH  21  23
BRANCH  22  29
ATOM     29  N   UNL     1       2.819 -10.473   2.878  0.00  0.00    -0.295 N 
ATOM     30  H   UNL     1       3.765 -10.671   3.167  0.00  0.00    +0.163 HD
ATOM     31  H   UNL     1       2.164 -11.085   3.341  0.00  0.00    +0.163 HD
ENDBRANCH  22  29
ENDBRANCH  17  18
ENDBRANCH   1  17
TORSDOF 8
