REMARK  Name = ZINC39012416
REMARK  10 active torsions:
REMARK  status: ('A' for Active; 'I' for Inactive)
REMARK    1  A    between atoms: C_1  and  C_2
REMARK    2  A    between atoms: C_6  and  N_9
REMARK    3  A    between atoms: C_7  and  C_8
REMARK    4  A    between atoms: C_10  and  C_12
REMARK    5  A    between atoms: C_12  and  S_13
REMARK    6  A    between atoms: S_13  and  C_14
REMARK    7  A    between atoms: C_18  and  C_21
REMARK    8  A    between atoms: C_21  and  C_23
REMARK    9  A    between atoms: C_21  and  N_33
REMARK   10  A    between atoms: C_23  and  C_24
REMARK                            x       y       z     vdW  Elec       q    Type
REMARK                         _______ _______ _______ _____ _____    ______ ____
ROOT
ATOM      1  C   UNL     1      -0.337  -7.434   4.990  0.00  0.00    +0.263 C 
ATOM      2  N   UNL     1       0.822  -7.035   5.821  0.00  0.00    -0.218 NA
ATOM      3  N   UNL     1       0.297  -6.849   7.175  0.00  0.00    -0.228 NA
ATOM      4  C   UNL     1      -1.152  -7.147   7.091  0.00  0.00    +0.188 C 
ATOM      5  O   UNL     1      -1.488  -6.928   5.701  0.00  0.00    -0.334 OA
ATOM      6  H   UNL     1       1.239  -6.183   5.476  0.00  0.00    +0.144 HD
ATOM      7  H   UNL     1       0.455  -5.907   7.499  0.00  0.00    +0.143 HD
ENDROOT
BRANCH   1   8
ATOM      8  S   UNL     1      -0.226  -6.677   3.345  0.00  0.00    -0.104 S 
BRANCH   8   9
ATOM      9  C   UNL     1      -0.129  -4.898   3.686  0.00  0.00    +0.169 C 
BRANCH   9  11
ATOM     10  N   UNL     1       0.052  -2.797   2.393  0.00  0.00    -0.285 N 
ATOM     11  C   UNL     1      -0.031  -4.143   2.385  0.00  0.00    +0.227 C 
ATOM     12  O   UNL     1      -0.028  -4.745   1.333  0.00  0.00    -0.275 OA
ATOM     13  H   UNL     1       0.130  -2.321   3.234  0.00  0.00    +0.155 HD
BRANCH  10  19
ATOM     14  C   UNL     1       1.206   1.236  -0.172  0.00  0.00    +0.044 C 
ATOM     15  C   UNL     1       0.577  -0.131  -0.084  0.00  0.00    -0.046 A 
ATOM     16  C   UNL     1      -0.027  -0.686  -1.198  0.00  0.00    +0.004 A 
ATOM     17  C   UNL     1      -0.605  -1.940  -1.122  0.00  0.00    +0.002 A 
ATOM     18  C   UNL     1      -0.580  -2.642   0.067  0.00  0.00    +0.023 A 
ATOM     19  C   UNL     1       0.026  -2.088   1.187  0.00  0.00    +0.037 A 
ATOM     20  C   UNL     1       0.610  -0.831   1.106  0.00  0.00    -0.026 A 
ATOM     21  C   UNL     1       1.274  -0.228   2.317  0.00  0.00    +0.046 C 
ENDBRANCH  10  19
ENDBRANCH   9  11
ENDBRANCH   8   9
ENDBRANCH   1   8
BRANCH   4  22
ATOM     22  C   UNL     1      -1.945  -6.198   7.992  0.00  0.00    -0.025 C 
BRANCH  22  23
ATOM     23  N   UNL     1      -1.811  -4.823   7.493  0.00  0.00    +0.383 N 
ATOM     24  H   UNL     1      -2.170  -4.771   6.551  0.00  0.00    -0.089 HD
ATOM     25  H   UNL     1      -2.334  -4.197   8.087  0.00  0.00    -0.089 HD
ATOM     26  H   UNL     1      -0.838  -4.556   7.498  0.00  0.00    -0.089 HD
ENDBRANCH  22  23
BRANCH  22  27
ATOM     27  C   UNL     1      -3.420  -6.602   7.985  0.00  0.00    +0.025 C 
BRANCH  27  28
ATOM     28  C   UNL     1      -4.180  -5.747   8.966  0.00  0.00    -0.024 A 
ATOM     29  C   UNL     1      -4.744  -4.419   8.710  0.00  0.00    +0.003 A 
ATOM     30  C   UNL     1      -4.773  -3.575   7.599  0.00  0.00    +0.010 A 
ATOM     31  C   UNL     1      -5.399  -2.363   7.684  0.00  0.00    +0.001 A 
ATOM     32  C   UNL     1      -6.004  -1.964   8.867  0.00  0.00    +0.002 A 
ATOM     33  C   UNL     1      -5.987  -2.781   9.976  0.00  0.00    +0.026 A 
ATOM     34  C   UNL     1      -5.356  -4.019   9.912  0.00  0.00    +0.047 A 
ATOM     35  N   UNL     1      -5.171  -5.037  10.821  0.00  0.00    -0.360 N 
ATOM     36  C   UNL     1      -4.474  -6.059  10.238  0.00  0.00    +0.087 A 
ATOM     37  H   UNL     1      -5.491  -5.031  11.737  0.00  0.00    +0.165 HD
ENDBRANCH  27  28
ENDBRANCH  22  27
ENDBRANCH   4  22
TORSDOF 8
