REMARK  Name = ZINC23423013
REMARK  7 active torsions:
REMARK  status: ('A' for Active; 'I' for Inactive)
REMARK    1  A    between atoms: C_1  and  N_2
REMARK    2  A    between atoms: C_11  and  S_12
REMARK    3  A    between atoms: S_12  and  C_13
REMARK    4  A    between atoms: C_13  and  C_14
REMARK    5  A    between atoms: N_16  and  C_17
REMARK    6  A    between atoms: N_16  and  C_18
REMARK    7  A    between atoms: C_18  and  C_24
REMARK                            x       y       z     vdW  Elec       q    Type
REMARK                         _______ _______ _______ _____ _____    ______ ____
ROOT
ATOM      1  C   UNL     1       0.055  -1.067   3.979  0.00  0.00    +0.173 C 
ENDROOT
BRANCH   1   2
ATOM      2  C   UNL     1       0.059  -0.423   5.341  0.00  0.00    +0.227 C 
ATOM      3  O   UNL     1       0.044   0.785   5.441  0.00  0.00    -0.275 OA
ATOM      4  N   UNL     1       0.080  -1.191   6.449  0.00  0.00    -0.285 N 
ATOM      5  C   UNL     1       0.098  -2.651   6.329  0.00  0.00    +0.133 C 
BRANCH   4   6
ATOM      6  C   UNL     1       0.085  -0.565   7.774  0.00  0.00    +0.123 C 
ATOM      7  C   UNL     1       1.324   0.322   7.915  0.00  0.00    +0.041 C 
ATOM      8  C   UNL     1       1.328   0.975   9.298  0.00  0.00    +0.003 C 
ATOM      9  C   UNL     1       1.353  -0.111  10.375  0.00  0.00    +0.000 C 
ATOM     10  C   UNL     1       0.114  -0.998  10.234  0.00  0.00    +0.003 C 
ATOM     11  C   UNL     1       0.110  -1.651   8.851  0.00  0.00    +0.041 C 
BRANCH   6  12
ATOM     12  C   UNL     1      -1.127   0.256   7.933  0.00  0.00    +0.089 C 
ATOM     13  N   UNL     1      -2.062   0.890   8.056  0.00  0.00    -0.194 NA
ENDBRANCH   6  12
ENDBRANCH   4   6
ENDBRANCH   1   2
BRANCH   1  14
ATOM     14  S   UNL     1       0.025   0.221   2.702  0.00  0.00    -0.078 S 
BRANCH  14  25
ATOM     15  C   UNL     1      -0.018   1.461   0.010  0.00  0.00    +0.154 C 
ATOM     16  N   UNL     1       0.002  -0.004   0.002  0.00  0.00    -0.290 N 
ATOM     17  C   UNL     1       0.005  -0.658  -1.174  0.00  0.00    +0.263 A 
ATOM     18  O   UNL     1      -0.008  -0.039  -2.224  0.00  0.00    -0.267 OA
ATOM     19  C   UNL     1       0.025  -2.088  -1.176  0.00  0.00    +0.072 A 
ATOM     20  C   UNL     1       0.032  -3.006  -2.302  0.00  0.00    +0.023 A 
ATOM     21  C   UNL     1       0.052  -4.327  -2.071  0.00  0.00    +0.048 A 
ATOM     22  S   UNL     1       0.061  -4.435  -0.291  0.00  0.00    -0.077 S 
ATOM     23  C   UNL     1       0.039  -2.702   0.090  0.00  0.00    +0.116 A 
ATOM     24  N   UNL     1       0.035  -1.997   1.215  0.00  0.00    -0.216 NA
ATOM     25  C   UNL     1       0.022  -0.680   1.188  0.00  0.00    +0.173 A 
ENDBRANCH  14  25
ENDBRANCH   1  14
TORSDOF 5
