REMARK  Name = ZINC49181184
REMARK  6 active torsions:
REMARK  status: ('A' for Active; 'I' for Inactive)
REMARK    1  A    between atoms: C_6  and  C_7
REMARK    2  A    between atoms: C_8  and  C_9
REMARK    3  A    between atoms: C_9  and  C_10
REMARK    4  A    between atoms: C_10  and  C_11
REMARK    5  A    between atoms: C_11  and  C_12
REMARK    6  A    between atoms: C_12  and  C_13
REMARK                            x       y       z     vdW  Elec       q    Type
REMARK                         _______ _______ _______ _____ _____    ______ ____
ROOT
ATOM      1  C   UNL     1      -1.266  -0.762   0.011  0.00  0.00    +0.004 C 
ATOM      2  C   UNL     1      -2.425  -0.116   0.026  0.00  0.00    -0.026 C 
ENDROOT
BRANCH   1   8
ATOM      3  C   UNL     1      -0.017   1.391   0.010  0.00  0.00    +0.012 A 
ATOM      4  C   UNL     1       1.168   2.097   0.002  0.00  0.00    +0.050 A 
ATOM      5  C   UNL     1       2.381   1.425  -0.013  0.00  0.00    +0.166 A 
ATOM      6  C   UNL     1       2.407   0.030  -0.021  0.00  0.00    +0.167 A 
ATOM      7  C   UNL     1       1.222  -0.682  -0.014  0.00  0.00    +0.057 A 
ATOM      8  C   UNL     1       0.002  -0.004   0.002  0.00  0.00    -0.022 A 
ATOM      9  O   UNL     1       3.708  -0.382  -0.036  0.00  0.00    -0.453 OA
ATOM     10  C   UNL     1       4.470   0.768  -0.450  0.00  0.00    +0.466 C 
ATOM     11  O   UNL     1       3.667   1.883  -0.023  0.00  0.00    -0.453 OA
ENDBRANCH   1   8
BRANCH   2  12
ATOM     12  C   UNL     1      -3.718  -0.889   0.035  0.00  0.00    +0.027 C 
BRANCH  12  13
ATOM     13  C   UNL     1      -4.568  -0.447   1.227  0.00  0.00    +0.004 C 
BRANCH  13  14
ATOM     14  C   UNL     1      -5.882  -1.232   1.236  0.00  0.00    +0.009 C 
BRANCH  14  15
ATOM     15  C   UNL     1      -6.732  -0.789   2.429  0.00  0.00    +0.096 C 
BRANCH  15  16
ATOM     16  C   UNL     1      -8.026  -1.562   2.438  0.00  0.00    +0.216 C 
ATOM     17  O   UNL     1      -8.246  -2.386   1.575  0.00  0.00    -0.276 OA
ATOM     18  N   UNL     1      -8.938  -1.338   3.404  0.00  0.00    -0.301 N 
ATOM     19  C   UNL     1      -8.803  -0.369   4.502  0.00  0.00    +0.108 C 
ATOM     20  C   UNL     1     -10.074  -0.481   5.370  0.00  0.00    +0.020 C 
ATOM     21  C   UNL     1     -10.599  -1.903   5.037  0.00  0.00    +0.020 C 
ATOM     22  C   UNL     1     -10.239  -2.020   3.532  0.00  0.00    +0.108 C 
ENDBRANCH  15  16
ENDBRANCH  14  15
ENDBRANCH  13  14
ENDBRANCH  12  13
ENDBRANCH   2  12
TORSDOF 6
