REMARK  Name = ZINC12493607
REMARK  12 active torsions:
REMARK  status: ('A' for Active; 'I' for Inactive)
REMARK    1  A    between atoms: C_1  and  C_2
REMARK    2  A    between atoms: C_2  and  C_3
REMARK    3  A    between atoms: C_3  and  C_5
REMARK    4  A    between atoms: C_3  and  N_64
REMARK    5  A    between atoms: N_9  and  C_10
REMARK    6  A    between atoms: C_10  and  C_11
REMARK    7  A    between atoms: C_16  and  C_17
REMARK    8  A    between atoms: C_16  and  N_64
REMARK    9  A    between atoms: C_22  and  C_23
REMARK   10  A    between atoms: C_22  and  N_64
REMARK   11  A    between atoms: C_26  and  C_37
REMARK   12  A    between atoms: C_28  and  C_36
REMARK                            x       y       z     vdW  Elec       q    Type
REMARK                         _______ _______ _______ _____ _____    ______ ____
ROOT
ATOM      1  N   UNL     1      -0.738   1.813   1.381  0.00  0.00    +0.392 N 
ATOM      2  H   UNL     1      -0.932   2.801   1.584  0.00  0.00    -0.080 HD
ENDROOT
BRANCH   1   3
ATOM      3  C   UNL     1       0.068   1.246   2.482  0.00  0.00    +0.003 C 
BRANCH   3   4
ATOM      4  C   UNL     1       1.002   2.312   2.993  0.00  0.00    +0.139 A 
ATOM      5  N   UNL     1       1.696   3.156   2.271  0.00  0.00    -0.115 NA
ATOM      6  N   UNL     1       2.369   3.907   3.073  0.00  0.00    -0.023 NA
ATOM      7  N   UNL     1       2.128   3.559   4.288  0.00  0.00    -0.044 NA
ATOM      8  N   UNL     1       1.290   2.578   4.281  0.00  0.00    -0.223 N 
BRANCH   8   9
ATOM      9  C   UNL     1       0.752   1.884   5.454  0.00  0.00    +0.221 C 
BRANCH   9  10
ATOM     10  C   UNL     1       1.647   0.724   5.806  0.00  0.00    +0.126 A 
ATOM     11  C   UNL     1       2.704   0.770   6.638  0.00  0.00    +0.046 A 
ATOM     12  C   UNL     1       3.249  -0.534   6.679  0.00  0.00    +0.041 A 
ATOM     13  C   UNL     1       2.498  -1.296   5.863  0.00  0.00    +0.195 A 
ATOM     14  O   UNL     1       1.530  -0.529   5.337  0.00  0.00    -0.466 OA
ENDBRANCH   9  10
ENDBRANCH   8   9
ENDBRANCH   3   4
BRANCH   3  16
ATOM     15  C   UNL     1      -0.066  -1.082   1.583  0.00  0.00    +0.002 C 
ATOM     16  C   UNL     1       0.882   0.049   1.986  0.00  0.00    -0.011 C 
ENDBRANCH   3  16
ENDBRANCH   1   3
BRANCH   1  17
ATOM     17  C   UNL     1      -2.020   1.086   1.266  0.00  0.00    -0.034 C 
BRANCH  17  18
ATOM     18  C   UNL     1      -2.912   1.494   2.410  0.00  0.00    -0.027 A 
ATOM     19  C   UNL     1      -3.725   2.574   2.516  0.00  0.00    +0.009 A 
ATOM     20  C   UNL     1      -4.461   2.749   3.673  0.00  0.00    +0.008 A 
ATOM     21  C   UNL     1      -4.348   1.835   4.667  0.00  0.00    +0.045 A 
ATOM     22  S   UNL     1      -3.179   0.677   3.975  0.00  0.00    -0.103 S 
ENDBRANCH  17  18
ENDBRANCH   1  17
BRANCH   1  23
ATOM     23  C   UNL     1       0.009   1.723   0.109  0.00  0.00    -0.038 C 
BRANCH  23  24
ATOM     24  C   UNL     1      -0.673   2.592  -0.917  0.00  0.00    -0.017 A 
ATOM     25  C   UNL     1      -1.476   2.029  -1.849  0.00  0.00    +0.015 A 
ATOM     26  C   UNL     1      -2.133   2.891  -2.833  0.00  0.00    +0.004 A 
ATOM     27  C   UNL     1      -2.976   2.357  -3.813  0.00  0.00    -0.041 A 
ATOM     28  C   UNL     1      -3.571   3.186  -4.721  0.00  0.00    +0.007 A 
ATOM     29  C   UNL     1      -3.346   4.555  -4.681  0.00  0.00    -0.048 A 
ATOM     30  C   UNL     1      -2.519   5.103  -3.724  0.00  0.00    +0.032 A 
ATOM     31  C   UNL     1      -1.903   4.279  -2.788  0.00  0.00    +0.077 A 
ATOM     32  N   UNL     1      -1.071   4.799  -1.821  0.00  0.00    -0.192 N 
ATOM     33  C   UNL     1      -0.466   3.990  -0.903  0.00  0.00    +0.181 A 
ATOM     34  N   UNL     1       0.258   4.780  -0.123  0.00  0.00    -0.108 NA
ATOM     35  N   UNL     1       0.140   6.005  -0.494  0.00  0.00    -0.022 NA
ATOM     36  N   UNL     1      -0.645   6.099  -1.512  0.00  0.00    -0.039 NA
ATOM     37  C   UNL     1      -4.013   5.451  -5.692  0.00  0.00    +0.044 C 
ATOM     38  C   UNL     1      -3.227   0.872  -3.867  0.00  0.00    +0.044 C 
ENDBRANCH  23  24
ENDBRANCH   1  23
TORSDOF 9
