REMARK  Name = ZINC03137448
REMARK  6 active torsions:
REMARK  status: ('A' for Active; 'I' for Inactive)
REMARK    1  A    between atoms: C_6  and  C_8
REMARK    2  A    between atoms: C_6  and  N_12
REMARK    3  A    between atoms: C_6  and  N_45
REMARK    4  A    between atoms: N_15  and  C_16
REMARK    5  A    between atoms: C_16  and  C_18
REMARK    6  A    between atoms: C_16  and  N_47
REMARK                            x       y       z     vdW  Elec       q    Type
REMARK                         _______ _______ _______ _____ _____    ______ ____
ROOT
ATOM      1  N   UNL     1       4.494   0.128   2.216  0.00  0.00    -0.309 N 
ATOM      2  C   UNL     1       5.299  -0.883   1.833  0.00  0.00    +0.297 C 
ATOM      3  O   UNL     1       4.824  -1.972   1.572  0.00  0.00    -0.253 OA
ATOM      4  N   UNL     1       6.629  -0.688   1.740  0.00  0.00    -0.309 N 
ATOM      5  H   UNL     1       4.873   0.997   2.425  0.00  0.00    +0.148 HD
ATOM      6  H   UNL     1       7.008   0.180   1.949  0.00  0.00    +0.148 HD
ENDROOT
BRANCH   1   7
ATOM      7  C   UNL     1       3.048  -0.084   2.318  0.00  0.00    +0.072 C 
BRANCH   7  13
ATOM      8  C   UNL     1       3.113   0.307  -0.072  0.00  0.00    -0.047 C 
ATOM      9  C   UNL     1       2.416   1.039  -1.222  0.00  0.00    +0.141 C 
ATOM     10  O   UNL     1       1.055   0.607  -1.299  0.00  0.00    -0.383 OA
ATOM     11  C   UNL     1       0.309   0.834  -0.100  0.00  0.00    +0.141 C 
ATOM     12  C   UNL     1       0.986   0.100   1.061  0.00  0.00    -0.047 C 
ATOM     13  N   UNL     1       2.377   0.583   1.180  0.00  0.00    +0.398 N 
ATOM     14  H   UNL     1       2.367   1.596   1.346  0.00  0.00    -0.079 HD
ENDBRANCH   7  13
BRANCH   7  15
ATOM     15  C   UNL     1       2.533   0.530   3.621  0.00  0.00    +0.194 C 
ATOM     16 CL   UNL     1       0.807   0.066   3.862  0.00  0.00    -0.084 Cl
ATOM     17 CL   UNL     1       3.518  -0.080   5.003  0.00  0.00    -0.084 Cl
ATOM     18 CL   UNL     1       2.666   2.326   3.534  0.00  0.00    -0.084 Cl
ENDBRANCH   7  15
ENDBRANCH   1   7
BRANCH   4  19
ATOM     19  C   UNL     1       7.503  -1.787   1.324  0.00  0.00    +0.072 C 
BRANCH  19  25
ATOM     20  C   UNL     1       7.340  -3.128   3.334  0.00  0.00    -0.047 C 
ATOM     21  C   UNL     1       8.145  -3.699   4.505  0.00  0.00    +0.141 C 
ATOM     22  O   UNL     1       8.743  -2.625   5.235  0.00  0.00    -0.383 OA
ATOM     23  C   UNL     1       9.611  -1.807   4.446  0.00  0.00    +0.141 C 
ATOM     24  C   UNL     1       8.822  -1.216   3.274  0.00  0.00    -0.047 C 
ATOM     25  N   UNL     1       8.245  -2.325   2.485  0.00  0.00    +0.398 N 
ATOM     26  H   UNL     1       9.005  -2.926   2.146  0.00  0.00    -0.079 HD
ENDBRANCH  19  25
BRANCH  19  27
ATOM     27  C   UNL     1       8.509  -1.276   0.291  0.00  0.00    +0.194 C 
ATOM     28 CL   UNL     1       9.327   0.200   0.927  0.00  0.00    -0.084 Cl
ATOM     29 CL   UNL     1       9.740  -2.553  -0.033  0.00  0.00    -0.084 Cl
ATOM     30 CL   UNL     1       7.646  -0.872  -1.240  0.00  0.00    -0.084 Cl
ENDBRANCH  19  27
ENDBRANCH   4  19
TORSDOF 6
