REMARK  Name = ZINC05766627
REMARK  12 active torsions:
REMARK  status: ('A' for Active; 'I' for Inactive)
REMARK    1  A    between atoms: C_1  and  C_2
REMARK    2  A    between atoms: C_2  and  C_33
REMARK    3  A    between atoms: C_3  and  C_4
REMARK    4  A    between atoms: C_4  and  C_5
REMARK    5  A    between atoms: C_5  and  C_6
REMARK    6  A    between atoms: C_6  and  C_32
REMARK    7  A    between atoms: C_7  and  C_8
REMARK    8  A    between atoms: C_8  and  C_9
REMARK    9  A    between atoms: C_14  and  O_31
REMARK   10  A    between atoms: C_16  and  O_30
REMARK   11  A    between atoms: C_24  and  C_26
REMARK   12  A    between atoms: C_24  and  C_27
REMARK                            x       y       z     vdW  Elec       q    Type
REMARK                         _______ _______ _______ _____ _____    ______ ____
ROOT
ATOM      1  C   UNL     1      -1.553  -0.090   4.862  0.00  0.00    +0.162 C 
ATOM      2  C   UNL     1      -1.304  -1.425   4.179  0.00  0.00    +0.198 C 
ATOM      3  O   UNL     1      -0.176  -1.775   3.906  0.00  0.00    -0.289 OA
ATOM      4  C   UNL     1      -2.468  -2.276   3.861  0.00  0.00    +0.038 A 
ATOM      5  C   UNL     1      -2.317  -3.401   3.060  0.00  0.00    +0.057 A 
ATOM      6  C   UNL     1      -3.432  -4.156   2.706  0.00  0.00    +0.121 A 
ATOM      7  C   UNL     1      -4.696  -3.802   3.153  0.00  0.00    +0.091 A 
ATOM      8  C   UNL     1      -4.865  -2.698   3.980  0.00  0.00    +0.132 A 
ATOM      9  C   UNL     1      -3.754  -1.937   4.349  0.00  0.00    +0.071 A 
ATOM     10  C   UNL     1      -3.879  -0.777   5.248  0.00  0.00    +0.191 C 
ATOM     11  O   UNL     1      -4.928  -0.203   5.419  0.00  0.00    -0.290 OA
ATOM     12  C   UNL     1      -2.609  -0.344   5.948  0.00  0.00    +0.145 C 
ATOM     13  C   UNL     1      -2.816   0.929   6.757  0.00  0.00    +0.056 C 
ATOM     14  C   UNL     1      -1.492   1.276   7.443  0.00  0.00    +0.114 C 
ATOM     15  C   UNL     1      -0.356   1.399   6.431  0.00  0.00    +0.082 C 
ATOM     16  O   UNL     1      -0.364   0.406   5.428  0.00  0.00    -0.356 OA
ATOM     17  C   UNL     1       0.972   1.274   7.211  0.00  0.00    +0.043 C 
ATOM     18  C   UNL     1      -0.382   2.804   5.813  0.00  0.00    +0.043 C 
ATOM     19 CL   UNL     1      -1.673   2.838   8.329  0.00  0.00    -0.119 Cl
ATOM     20 CL   UNL     1      -2.047  -1.673   7.034  0.00  0.00    -0.106 Cl
ENDROOT
BRANCH   8  21
ATOM     21  O   UNL     1      -6.106  -2.373   4.423  0.00  0.00    -0.506 OA
ATOM     22  H   UNL     1      -6.583  -1.764   3.843  0.00  0.00    +0.292 HD
ENDBRANCH   8  21
BRANCH   6  23
ATOM     23  O   UNL     1      -3.280  -5.248   1.915  0.00  0.00    -0.507 OA
ATOM     24  H   UNL     1      -3.123  -6.068   2.403  0.00  0.00    +0.292 HD
ENDBRANCH   6  23
BRANCH   1  25
ATOM     25  C   UNL     1      -2.109   0.873   3.807  0.00  0.00    +0.072 C 
BRANCH  25  27
ATOM     26  C   UNL     1      -1.536   0.615   1.447  0.00  0.00    -0.076 C 
ATOM     27  C   UNL     1      -1.147   0.959   2.650  0.00  0.00    -0.025 C 
ATOM     28  C   UNL     1      -2.976   0.247   1.198  0.00  0.00    +0.039 C 
BRANCH  26  29
ATOM     29  C   UNL     1      -0.544   0.586   0.313  0.00  0.00    +0.034 C 
BRANCH  29  30
ATOM     30  C   UNL     1       0.000  -0.834   0.148  0.00  0.00    +0.031 C 
BRANCH  30  33
ATOM     31  C   UNL     1       2.692  -1.517   0.640  0.00  0.00    +0.038 C 
ATOM     32  C   UNL     1       2.227  -1.243  -0.767  0.00  0.00    -0.080 C 
ATOM     33  C   UNL     1       0.992  -0.863  -0.986  0.00  0.00    -0.028 C 
ATOM     34  C   UNL     1       3.182  -1.405  -1.921  0.00  0.00    +0.038 C 
ENDBRANCH  30  33
ENDBRANCH  29  30
ENDBRANCH  26  29
ENDBRANCH  25  27
ENDBRANCH   1  25
TORSDOF 7
