REMARK  Name = ZINC38604664
REMARK  9 active torsions:
REMARK  status: ('A' for Active; 'I' for Inactive)
REMARK    1  A    between atoms: C_1  and  O_2
REMARK    2  A    between atoms: O_2  and  C_3
REMARK    3  A    between atoms: C_8  and  S_9
REMARK    4  A    between atoms: S_9  and  N_12
REMARK    5  A    between atoms: N_12  and  C_13
REMARK    6  A    between atoms: C_13  and  C_14
REMARK    7  A    between atoms: C_14  and  C_16
REMARK    8  A    between atoms: C_14  and  N_21
REMARK    9  A    between atoms: N_24  and  C_27
REMARK                            x       y       z     vdW  Elec       q    Type
REMARK                         _______ _______ _______ _____ _____    ______ ____
ROOT
ATOM      1  C   UNL     1       2.376  -1.489  -2.935  0.00  0.00    +0.015 C 
ENDROOT
BRANCH   1   2
ATOM      2  N   UNL     1       1.627  -2.073  -4.056  0.00  0.00    +0.389 N 
ATOM      3  C   UNL     1       0.982  -3.316  -3.615  0.00  0.00    -0.059 C 
ATOM      4  C   UNL     1       0.108  -3.866  -4.748  0.00  0.00    +0.086 C 
ATOM      5  N   UNL     1       0.940  -4.007  -5.952  0.00  0.00    -0.333 N 
ATOM      6  C   UNL     1       1.751  -2.854  -6.374  0.00  0.00    +0.086 C 
ATOM      7  C   UNL     1       2.547  -2.353  -5.165  0.00  0.00    -0.059 C 
ATOM      8  H   UNL     1       0.921  -1.421  -4.363  0.00  0.00    -0.081 HD
BRANCH   5   9
ATOM      9  C   UNL     1       0.960  -5.203  -6.677  0.00  0.00    +0.030 A 
ATOM     10  C   UNL     1       0.284  -6.317  -6.197  0.00  0.00    +0.026 A 
ATOM     11  C   UNL     1       0.304  -7.498  -6.914  0.00  0.00    +0.040 A 
ATOM     12  C   UNL     1       0.997  -7.570  -8.111  0.00  0.00    +0.124 A 
ATOM     13  C   UNL     1       1.671  -6.460  -8.591  0.00  0.00    +0.040 A 
ATOM     14  C   UNL     1       1.650  -5.276  -7.880  0.00  0.00    +0.026 A 
ATOM     15  F   UNL     1       1.016  -8.726  -8.810  0.00  0.00    -0.205 F 
ENDBRANCH   5   9
ENDBRANCH   1   2
BRANCH   1  16
ATOM     16  C   UNL     1       2.959  -0.165  -3.357  0.00  0.00    +0.093 A 
ATOM     17  C   UNL     1       4.185   0.291  -3.041  0.00  0.00    +0.043 A 
ATOM     18  C   UNL     1       4.315   1.565  -3.641  0.00  0.00    +0.041 A 
ATOM     19  C   UNL     1       3.161   1.811  -4.287  0.00  0.00    +0.195 A 
ATOM     20  O   UNL     1       2.346   0.758  -4.116  0.00  0.00    -0.469 OA
ENDBRANCH   1  16
BRANCH   1  21
ATOM     21  C   UNL     1       1.435  -1.276  -1.748  0.00  0.00    +0.098 C 
BRANCH  21  22
ATOM     22  N   UNL     1       0.281  -0.481  -2.175  0.00  0.00    -0.191 NA
ATOM     23  H   UNL     1       0.321   0.025  -3.002  0.00  0.00    +0.148 HD
BRANCH  22  24
ATOM     24  S   UNL     1      -1.090  -0.446  -1.247  0.00  0.00    +0.062 S 
ATOM     25  O   UNL     1      -1.407  -1.796  -0.940  0.00  0.00    -0.153 OA
ATOM     26  O   UNL     1      -2.003   0.421  -1.905  0.00  0.00    -0.153 OA
BRANCH  24  32
ATOM     27  C   UNL     1       0.237  -0.274   1.137  0.00  0.00    +0.147 A 
ATOM     28  C   UNL     1       0.573   0.342   2.334  0.00  0.00    +0.050 A 
ATOM     29  C   UNL     1       0.002   1.554   2.670  0.00  0.00    +0.042 A 
ATOM     30  C   UNL     1      -0.905   2.154   1.813  0.00  0.00    +0.125 A 
ATOM     31  C   UNL     1      -1.242   1.541   0.619  0.00  0.00    +0.070 A 
ATOM     32  C   UNL     1      -0.667   0.331   0.277  0.00  0.00    +0.149 A 
ATOM     33  F   UNL     1      -1.463   3.340   2.144  0.00  0.00    -0.205 F 
BRANCH  27  35
ATOM     34  C   UNL     1       1.721  -2.032   1.738  0.00  0.00    +0.277 C 
ATOM     35  O   UNL     1       0.798  -1.467   0.804  0.00  0.00    -0.493 OA
ENDBRANCH  27  35
ENDBRANCH  24  32
ENDBRANCH  22  24
ENDBRANCH  21  22
ENDBRANCH   1  21
TORSDOF 8
