REMARK  Name = ZINC40846235
REMARK  14 active torsions:
REMARK  status: ('A' for Active; 'I' for Inactive)
REMARK    1  A    between atoms: C_1  and  C_2
REMARK    2  A    between atoms: C_2  and  C_3
REMARK    3  A    between atoms: C_3  and  C_4
REMARK    4  A    between atoms: C_4  and  C_5
REMARK    5  A    between atoms: C_5  and  N_6
REMARK    6  A    between atoms: N_14  and  N_15
REMARK    7  A    between atoms: C_16  and  C_18
REMARK    8  A    between atoms: C_18  and  O_19
REMARK    9  A    between atoms: O_19  and  C_20
REMARK   10  A    between atoms: C_22  and  C_30
REMARK   11  A    between atoms: C_25  and  C_26
REMARK   12  A    between atoms: C_26  and  C_27
REMARK   13  A    between atoms: C_26  and  C_28
REMARK   14  A    between atoms: C_26  and  C_29
REMARK                            x       y       z     vdW  Elec       q    Type
REMARK                         _______ _______ _______ _____ _____    ______ ____
ROOT
ATOM      1  N   UNL     1       1.475  -3.986  -2.532  0.00  0.00    -0.266 N 
ATOM      2  C   UNL     1       2.484  -4.758  -1.966  0.00  0.00    +0.046 A 
ATOM      3  C   UNL     1       3.651  -4.407  -1.296  0.00  0.00    +0.025 A 
ATOM      4  C   UNL     1       4.501  -5.387  -0.825  0.00  0.00    +0.017 A 
ATOM      5  C   UNL     1       4.205  -6.728  -1.011  0.00  0.00    +0.019 A 
ATOM      6  C   UNL     1       3.050  -7.095  -1.675  0.00  0.00    +0.027 A 
ATOM      7  C   UNL     1       2.188  -6.115  -2.153  0.00  0.00    +0.029 A 
ATOM      8  C   UNL     1       0.902  -6.165  -2.888  0.00  0.00    +0.153 C 
ATOM      9  N   UNL     1       0.247  -7.232  -3.276  0.00  0.00    -0.174 NA
ATOM     10  C   UNL     1       0.518  -4.753  -3.082  0.00  0.00    +0.271 C 
ATOM     11  O   UNL     1      -0.486  -4.354  -3.642  0.00  0.00    -0.268 OA
ATOM     12 BR   UNL     1       5.382  -8.055  -0.358  0.00  0.00    -0.050 Br
ENDROOT
BRANCH   9  13
ATOM     13  N   UNL     1      -0.965  -7.096  -3.966  0.00  0.00    -0.203 N 
ATOM     14  C   UNL     1      -1.639  -8.192  -4.366  0.00  0.00    +0.270 C 
ATOM     15  O   UNL     1      -1.197  -9.296  -4.128  0.00  0.00    -0.270 OA
ATOM     16  H   UNL     1      -1.319  -6.213  -4.157  0.00  0.00    +0.177 HD
BRANCH  14  17
ATOM     17  C   UNL     1      -2.943  -8.046  -5.108  0.00  0.00    +0.326 C 
BRANCH  17  18
ATOM     18  O   UNL     1      -3.460  -9.341  -5.421  0.00  0.00    -0.482 OA
BRANCH  18  19
ATOM     19  C   UNL     1      -4.640  -9.388  -6.095  0.00  0.00    +0.125 A 
ATOM     20  C   UNL     1      -5.282  -8.212  -6.453  0.00  0.00    +0.049 A 
ATOM     21  C   UNL     1      -6.481  -8.262  -7.139  0.00  0.00    -0.047 A 
ATOM     22  C   UNL     1      -7.040  -9.483  -7.468  0.00  0.00    +0.004 A 
ATOM     23  C   UNL     1      -6.401 -10.657  -7.112  0.00  0.00    +0.008 A 
ATOM     24  C   UNL     1      -5.200 -10.612  -6.431  0.00  0.00    -0.000 A 
ATOM     25  C   UNL     1      -7.180  -6.985  -7.527  0.00  0.00    +0.044 C 
BRANCH  24  26
ATOM     26  C   UNL     1      -4.501 -11.891  -6.049  0.00  0.00    -0.009 C 
ATOM     27  C   UNL     1      -5.324 -13.086  -6.535  0.00  0.00    +0.015 C 
ATOM     28  C   UNL     1      -3.116 -11.929  -6.696  0.00  0.00    +0.015 C 
ATOM     29  C   UNL     1      -4.355 -11.957  -4.527  0.00  0.00    +0.015 C 
ENDBRANCH  24  26
ENDBRANCH  18  19
ENDBRANCH  17  18
ENDBRANCH  14  17
ENDBRANCH   9  13
BRANCH   1  30
ATOM     30  C   UNL     1       1.455  -2.521  -2.524  0.00  0.00    +0.114 C 
BRANCH  30  31
ATOM     31  C   UNL     1       0.739  -2.027  -1.265  0.00  0.00    +0.019 C 
BRANCH  31  32
ATOM     32  C   UNL     1       0.718  -0.497  -1.257  0.00  0.00    +0.001 C 
BRANCH  32  34
ATOM     33  C   UNL     1      -0.019   1.526   0.010  0.00  0.00    +0.004 C 
ATOM     34  C   UNL     1       0.002  -0.004   0.002  0.00  0.00    -0.003 C 
ENDBRANCH  32  34
ENDBRANCH  31  32
ENDBRANCH  30  31
ENDBRANCH   1  30
TORSDOF 9
