REMARK  Name = ZINC39745340
REMARK  1 active torsions:
REMARK  status: ('A' for Active; 'I' for Inactive)
REMARK    1  A    between atoms: C_6  and  C_11
REMARK                            x       y       z     vdW  Elec       q    Type
REMARK                         _______ _______ _______ _____ _____    ______ ____
ROOT
ATOM      1  C   UNL     1       4.987  -2.717  -0.072  0.00  0.00    +0.248 C 
ATOM      2  O   UNL     1       6.029  -2.103  -0.202  0.00  0.00    -0.270 OA
ATOM      3  N   UNL     1       4.995  -4.077  -0.067  0.00  0.00    -0.281 N 
ATOM      4  C   UNL     1       5.747  -4.728   0.796  0.00  0.00    +0.036 C 
ATOM      5  C   UNL     1       6.472  -3.992   1.840  0.00  0.00    +0.025 C 
ATOM      6  C   UNL     1       7.244  -4.652   2.726  0.00  0.00    +0.032 C 
ATOM      7  C   UNL     1       7.365  -6.110   2.654  0.00  0.00    +0.095 C 
ATOM      8  N   UNL     1       8.022  -7.015   3.355  0.00  0.00    -0.190 NA
ATOM      9  C   UNL     1       7.774  -8.233   2.847  0.00  0.00    +0.369 C 
ATOM     10  O   UNL     1       8.296  -9.383   3.337  0.00  0.00    -0.243 OA
ATOM     11  N   UNL     1       6.963  -8.169   1.817  0.00  0.00    -0.190 NA
ATOM     12  C   UNL     1       6.641  -6.860   1.609  0.00  0.00    +0.097 C 
ATOM     13  C   UNL     1       5.858  -6.199   0.718  0.00  0.00    +0.053 C 
ATOM     14  H   UNL     1       4.446  -4.567  -0.699  0.00  0.00    +0.155 HD
ENDROOT
BRANCH   1  20
ATOM     15  C   UNL     1       0.076   1.413   0.504  0.00  0.00    +0.001 A 
ATOM     16  C   UNL     1       1.259   2.134   0.358  0.00  0.00    +0.001 A 
ATOM     17  C   UNL     1       2.454   1.497   0.216  0.00  0.00    +0.008 A 
ATOM     18  C   UNL     1       2.497   0.091   0.217  0.00  0.00    -0.017 A 
ATOM     19  C   UNL     1       3.711  -0.597   0.073  0.00  0.00    +0.021 A 
ATOM     20  C   UNL     1       3.713  -1.986   0.079  0.00  0.00    +0.038 A 
ATOM     21  C   UNL     1       2.510  -2.700   0.228  0.00  0.00    +0.013 A 
ATOM     22  C   UNL     1       1.328  -2.051   0.368  0.00  0.00    +0.009 A 
ATOM     23  C   UNL     1       1.292  -0.643   0.366  0.00  0.00    -0.018 A 
ATOM     24  C   UNL     1       0.080   0.050   0.509  0.00  0.00    +0.008 A 
ENDBRANCH   1  20
TORSDOF 1
