REMARK  Name = ZINC11326722
REMARK  8 active torsions:
REMARK  status: ('A' for Active; 'I' for Inactive)
REMARK    1  A    between atoms: C_1  and  C_2
REMARK    2  A    between atoms: C_5  and  C_9
REMARK    3  A    between atoms: C_7  and  C_8
REMARK    4  A    between atoms: C_12  and  C_14
REMARK    5  A    between atoms: C_14  and  C_15
REMARK    6  A    between atoms: C_15  and  C_16
REMARK    7  A    between atoms: C_24  and  S_28
REMARK    8  A    between atoms: S_28  and  C_31
REMARK                            x       y       z     vdW  Elec       q    Type
REMARK                         _______ _______ _______ _____ _____    ______ ____
ROOT
ATOM      1  C   UNL     1      -0.718   1.572   1.248  0.00  0.00    +0.219 C 
ATOM      2  O   UNL     1      -1.714   2.256   1.150  0.00  0.00    -0.275 OA
ATOM      3  N   UNL     1      -0.242   1.246   2.466  0.00  0.00    -0.265 N 
ATOM      4  C   UNL     1      -0.890   1.693   3.606  0.00  0.00    +0.165 A 
ATOM      5  N   UNL     1      -1.969   2.434   3.702  0.00  0.00    -0.225 NA
ATOM      6  C   UNL     1      -2.497   2.797   4.891  0.00  0.00    +0.080 A 
ATOM      7  C   UNL     1      -3.646   3.586   5.132  0.00  0.00    +0.031 A 
ATOM      8  C   UNL     1      -4.047   3.864   6.412  0.00  0.00    +0.029 A 
ATOM      9  C   UNL     1      -3.349   3.386   7.512  0.00  0.00    +0.089 A 
ATOM     10  C   UNL     1      -2.221   2.612   7.313  0.00  0.00    +0.044 A 
ATOM     11  C   UNL     1      -1.810   2.328   6.034  0.00  0.00    +0.043 A 
ATOM     12  S   UNL     1      -0.474   1.400   5.319  0.00  0.00    -0.052 S 
ATOM     13  H   UNL     1       0.555   0.699   2.544  0.00  0.00    +0.157 HD
ENDROOT
BRANCH   9  14
ATOM     14  S   UNL     1      -3.894   3.762   9.145  0.00  0.00    -0.006 S 
ATOM     15  O   UNL     1      -5.291   3.990   9.017  0.00  0.00    -0.170 OA
ATOM     16  O   UNL     1      -3.404   2.695   9.945  0.00  0.00    -0.170 OA
ATOM     17  C   UNL     1      -3.046   5.307   9.575  0.00  0.00    +0.200 C 
ENDBRANCH   9  14
BRANCH   1  18
ATOM     18  C   UNL     1      -0.013   1.086   0.008  0.00  0.00    +0.105 C 
BRANCH  18  19
ATOM     19  C   UNL     1      -0.753   1.593  -1.232  0.00  0.00    +0.105 C 
BRANCH  19  23
ATOM     20  C   UNL     1       1.304   1.000  -4.170  0.00  0.00    +0.155 A 
ATOM     21  C   UNL     1       0.525  -0.112  -4.150  0.00  0.00    +0.161 A 
ATOM     22  N   UNL     1      -0.290  -0.015  -3.090  0.00  0.00    -0.221 NA
ATOM     23  C   UNL     1      -0.047   1.107  -2.471  0.00  0.00    +0.197 A 
ATOM     24  O   UNL     1       0.934   1.755  -3.112  0.00  0.00    -0.440 OA
BRANCH  20  29
ATOM     25  C   UNL     1       5.392   2.256  -8.020  0.00  0.00    +0.044 C 
ATOM     26  C   UNL     1       4.322   1.927  -7.012  0.00  0.00    -0.047 A 
ATOM     27  C   UNL     1       4.056   2.806  -5.977  0.00  0.00    +0.004 A 
ATOM     28  C   UNL     1       3.078   2.511  -5.051  0.00  0.00    +0.012 A 
ATOM     29  C   UNL     1       2.354   1.323  -5.159  0.00  0.00    +0.019 A 
ATOM     30  C   UNL     1       2.630   0.437  -6.202  0.00  0.00    +0.015 A 
ATOM     31  C   UNL     1       3.608   0.747  -7.125  0.00  0.00    -0.047 A 
ATOM     32  C   UNL     1       3.904  -0.205  -8.255  0.00  0.00    +0.044 C 
ENDBRANCH  20  29
ENDBRANCH  19  23
ENDBRANCH  18  19
ENDBRANCH   1  18
TORSDOF 5
