REMARK  Name = ZINC08620097
REMARK  7 active torsions:
REMARK  status: ('A' for Active; 'I' for Inactive)
REMARK    1  A    between atoms: C_1  and  C_2
REMARK    2  A    between atoms: C_2  and  N_3
REMARK    3  A    between atoms: C_4  and  C_26
REMARK    4  A    between atoms: C_7  and  S_8
REMARK    5  A    between atoms: S_8  and  C_9
REMARK    6  A    between atoms: C_9  and  C_10
REMARK    7  A    between atoms: N_15  and  C_16
REMARK                            x       y       z     vdW  Elec       q    Type
REMARK                         _______ _______ _______ _____ _____    ______ ____
ROOT
ATOM      1  C   UNL     1      -6.622  -3.938   0.257  0.00  0.00    +0.231 C 
ATOM      2  O   UNL     1      -7.428  -3.092   0.581  0.00  0.00    -0.274 OA
ATOM      3  N   UNL     1      -7.025  -5.206   0.045  0.00  0.00    -0.239 N 
ATOM      4  C   UNL     1      -8.323  -5.535   0.193  0.00  0.00    +0.306 C 
ATOM      5  O   UNL     1      -9.132  -4.688   0.517  0.00  0.00    -0.252 OA
ATOM      6  N   UNL     1      -8.726  -6.804  -0.020  0.00  0.00    -0.294 N 
ATOM      7  H   UNL     1      -6.380  -5.883  -0.214  0.00  0.00    +0.159 HD
ATOM      8  H   UNL     1      -8.081  -7.480  -0.279  0.00  0.00    +0.151 HD
ENDROOT
BRANCH   6   9
ATOM      9  C   UNL     1     -10.137  -7.161   0.141  0.00  0.00    +0.037 C 
ATOM     10  C   UNL     1     -10.577  -6.869   1.577  0.00  0.00    +0.029 C 
ATOM     11  C   UNL     1     -12.051  -7.242   1.745  0.00  0.00    -0.008 C 
ATOM     12  C   UNL     1     -12.238  -8.732   1.447  0.00  0.00    +0.007 C 
ATOM     13  C   UNL     1     -11.798  -9.023   0.011  0.00  0.00    -0.008 C 
ATOM     14  C   UNL     1     -10.324  -8.650  -0.157  0.00  0.00    +0.029 C 
ATOM     15  C   UNL     1     -12.646  -8.199  -0.960  0.00  0.00    +0.007 C 
ATOM     16  C   UNL     1     -12.460  -6.710  -0.662  0.00  0.00    -0.008 C 
ATOM     17  C   UNL     1     -12.900  -6.418   0.774  0.00  0.00    +0.007 C 
ATOM     18  C   UNL     1     -10.986  -6.337  -0.830  0.00  0.00    +0.029 C 
ENDBRANCH   6   9
BRANCH   1  19
ATOM     19  C   UNL     1      -5.170  -3.570   0.092  0.00  0.00    +0.173 C 
BRANCH  19  20
ATOM     20  S   UNL     1      -4.950  -1.808   0.445  0.00  0.00    -0.077 S 
BRANCH  20  25
ATOM     21  N   UNL     1      -2.471  -0.519   0.309  0.00  0.00    -0.300 N 
ATOM     22  C   UNL     1      -1.177  -0.884   0.008  0.00  0.00    +0.200 A 
ATOM     23  N   UNL     1      -1.196  -2.167  -0.278  0.00  0.00    -0.125 NA
ATOM     24  N   UNL     1      -2.393  -2.623  -0.170  0.00  0.00    -0.122 NA
ATOM     25  C   UNL     1      -3.214  -1.659   0.183  0.00  0.00    +0.192 A 
BRANCH  22  26
ATOM     26  C   UNL     1       0.002  -0.004   0.002  0.00  0.00    +0.172 A 
ATOM     27  C   UNL     1       1.303  -0.409  -0.013  0.00  0.00    +0.053 A 
ATOM     28  C   UNL     1       2.091   0.758  -0.014  0.00  0.00    +0.042 A 
ATOM     29  C   UNL     1       1.245   1.807  -0.000  0.00  0.00    +0.196 A 
ATOM     30  O   UNL     1      -0.016   1.343   0.009  0.00  0.00    -0.460 OA
ENDBRANCH  22  26
BRANCH  21  32
ATOM     31  C   UNL     1      -3.353   1.585  -0.572  0.00  0.00    +0.027 C 
ATOM     32  C   UNL     1      -2.950   0.813   0.686  0.00  0.00    +0.122 C 
ENDBRANCH  21  32
ENDBRANCH  20  25
ENDBRANCH  19  20
ENDBRANCH   1  19
TORSDOF 6
