REMARK  Name = ZINC38872339
REMARK  11 active torsions:
REMARK  status: ('A' for Active; 'I' for Inactive)
REMARK    1  A    between atoms: C_1  and  C_2
REMARK    2  A    between atoms: N_7  and  C_9
REMARK    3  A    between atoms: C_12  and  C_15
REMARK    4  A    between atoms: C_15  and  C_17
REMARK    5  A    between atoms: C_15  and  N_18
REMARK    6  A    between atoms: C_19  and  C_21
REMARK    7  A    between atoms: N_24  and  C_27
REMARK    8  A    between atoms: C_27  and  C_28
REMARK    9  A    between atoms: C_30  and  C_33
REMARK   10  A    between atoms: C_36  and  O_39
REMARK   11  A    between atoms: O_39  and  C_40
REMARK                            x       y       z     vdW  Elec       q    Type
REMARK                         _______ _______ _______ _____ _____    ______ ____
ROOT
ATOM      1  C   UNL     1       1.011  -8.278   6.821  0.00  0.00    +0.071 C 
ATOM      2  C   UNL     1       0.557  -9.376   5.855  0.00  0.00    -0.006 C 
ATOM      3  C   UNL     1       1.442 -10.611   6.043  0.00  0.00    -0.077 C 
ATOM      4  N   UNL     1       1.327 -11.094   7.425  0.00  0.00    +0.386 N 
ATOM      5  C   UNL     1       1.828 -10.072   8.353  0.00  0.00    -0.077 C 
ATOM      6  C   UNL     1       0.958  -8.817   8.253  0.00  0.00    -0.006 C 
ATOM      7  H   UNL     1       0.359 -11.289   7.632  0.00  0.00    -0.081 HD
ENDROOT
BRANCH   1   9
ATOM      8  N   UNL     1      -0.019  -6.446   5.517  0.00  0.00    -0.309 N 
ATOM      9  C   UNL     1       0.096  -7.087   6.697  0.00  0.00    +0.216 C 
ATOM     10  O   UNL     1      -0.538  -6.706   7.658  0.00  0.00    -0.276 OA
ATOM     11  H   UNL     1       0.488  -6.750   4.748  0.00  0.00    +0.149 HD
BRANCH   8  12
ATOM     12  C   UNL     1      -0.909  -5.288   5.396  0.00  0.00    +0.100 C 
ATOM     13  C   UNL     1      -2.333  -5.768   5.107  0.00  0.00    +0.033 C 
BRANCH  12  17
ATOM     14  C   UNL     1       0.431  -2.790   2.198  0.00  0.00    +0.030 A 
ATOM     15  C   UNL     1      -0.037  -2.222   3.375  0.00  0.00    +0.023 A 
ATOM     16  C   UNL     1      -0.470  -3.032   4.407  0.00  0.00    +0.007 A 
ATOM     17  C   UNL     1      -0.437  -4.407   4.268  0.00  0.00    -0.027 A 
ATOM     18  C   UNL     1       0.029  -4.976   3.097  0.00  0.00    +0.007 A 
ATOM     19  C   UNL     1       0.458  -4.172   2.060  0.00  0.00    +0.023 A 
BRANCH  14  25
ATOM     20  C   UNL     1       3.428  -2.393  -1.607  0.00  0.00    +0.009 C 
ATOM     21  C   UNL     1       2.839  -1.894  -0.286  0.00  0.00    +0.003 C 
ATOM     22  C   UNL     1       2.657  -0.376  -0.349  0.00  0.00    +0.006 C 
ATOM     23  C   UNL     1       2.098   0.128   0.984  0.00  0.00    +0.019 C 
ATOM     24  C   UNL     1       0.729  -0.513   1.234  0.00  0.00    +0.105 C 
ATOM     25  N   UNL     1       0.869  -1.973   1.153  0.00  0.00    -0.330 N 
ATOM     26  C   UNL     1       1.479  -2.559  -0.049  0.00  0.00    +0.108 C 
ENDBRANCH  14  25
ENDBRANCH  12  17
ENDBRANCH   8  12
ENDBRANCH   1   9
BRANCH   4  27
ATOM     27  C   UNL     1       2.116 -12.323   7.579  0.00  0.00    +0.022 C 
BRANCH  27  28
ATOM     28  C   UNL     1       1.901 -12.887   8.960  0.00  0.00    +0.211 A 
ATOM     29  N   UNL     1       0.981 -13.745   9.297  0.00  0.00    -0.193 NA
ATOM     30  C   UNL     1       1.077 -14.032  10.608  0.00  0.00    +0.202 A 
ATOM     31  N   UNL     1       2.074 -13.349  11.114  0.00  0.00    -0.056 NA
ATOM     32  O   UNL     1       2.629 -12.596  10.046  0.00  0.00    -0.340 OA
BRANCH  30  33
ATOM     33  C   UNL     1       0.201 -14.968  11.355  0.00  0.00    +0.023 A 
ATOM     34  C   UNL     1      -0.826 -15.641  10.696  0.00  0.00    +0.015 A 
ATOM     35  C   UNL     1      -1.638 -16.509  11.393  0.00  0.00    +0.046 A 
ATOM     36  C   UNL     1      -1.435 -16.714  12.751  0.00  0.00    +0.120 A 
ATOM     37  C   UNL     1      -0.412 -16.044  13.411  0.00  0.00    +0.046 A 
ATOM     38  C   UNL     1       0.407 -15.179  12.718  0.00  0.00    +0.015 A 
BRANCH  36  39
ATOM     39  O   UNL     1      -2.237 -17.570  13.435  0.00  0.00    -0.495 OA
ATOM     40  C   UNL     1      -1.971 -17.733  14.830  0.00  0.00    +0.277 C 
ENDBRANCH  36  39
ENDBRANCH  30  33
ENDBRANCH  27  28
ENDBRANCH   4  27
TORSDOF 8
