REMARK  Name = ZINC12878628
REMARK  11 active torsions:
REMARK  status: ('A' for Active; 'I' for Inactive)
REMARK    1  A    between atoms: C_1  and  C_2
REMARK    2  A    between atoms: C_2  and  C_3
REMARK    3  A    between atoms: C_3  and  O_4
REMARK    4  A    between atoms: O_4  and  C_5
REMARK    5  A    between atoms: C_8  and  C_14
REMARK    6  A    between atoms: C_10  and  O_11
REMARK    7  A    between atoms: O_11  and  C_12
REMARK    8  A    between atoms: C_12  and  C_13
REMARK    9  A    between atoms: N_21  and  C_36
REMARK   10  A    between atoms: C_24  and  C_35
REMARK   11  A    between atoms: C_36  and  C_37
REMARK                            x       y       z     vdW  Elec       q    Type
REMARK                         _______ _______ _______ _____ _____    ______ ____
ROOT
ATOM      1  C   UNL     1      -2.051   1.808  -1.305  0.00  0.00    +0.069 C 
ATOM      2  C   UNL     1      -1.329   2.134   0.007  0.00  0.00    +0.122 C 
ATOM      3  N   UNL     1      -0.018   1.458   0.010  0.00  0.00    -0.280 N 
ATOM      4  C   UNL     1       1.096   2.195   0.003  0.00  0.00    +0.234 C 
ATOM      5  O   UNL     1       0.985   3.394   0.150  0.00  0.00    -0.274 OA
ATOM      6  C   UNL     1       2.469   1.638  -0.206  0.00  0.00    +0.203 C 
ATOM      7  N   UNL     1       2.453   0.200  -0.415  0.00  0.00    -0.288 N 
ATOM      8  C   UNL     1       1.353  -0.548  -0.327  0.00  0.00    +0.245 C 
ATOM      9  O   UNL     1       1.456  -1.740  -0.526  0.00  0.00    -0.273 OA
ATOM     10  C   UNL     1       0.002  -0.004   0.002  0.00  0.00    +0.151 C 
ATOM     11  C   UNL     1      -1.007  -0.481  -1.016  0.00  0.00    +0.054 A 
ATOM     12  C   UNL     1      -1.921   0.334  -1.589  0.00  0.00    -0.008 A 
ATOM     13  C   UNL     1      -2.703  -0.481  -2.495  0.00  0.00    +0.004 A 
ATOM     14  C   UNL     1      -3.775  -0.191  -3.345  0.00  0.00    +0.010 A 
ATOM     15  C   UNL     1      -4.283  -1.233  -4.082  0.00  0.00    +0.001 A 
ATOM     16  C   UNL     1      -3.765  -2.515  -3.997  0.00  0.00    +0.002 A 
ATOM     17  C   UNL     1      -2.706  -2.830  -3.164  0.00  0.00    +0.026 A 
ATOM     18  C   UNL     1      -2.171  -1.793  -2.402  0.00  0.00    +0.047 A 
ATOM     19  N   UNL     1      -1.149  -1.754  -1.498  0.00  0.00    -0.356 N 
ATOM     20  H   UNL     1      -0.606  -2.514  -1.237  0.00  0.00    +0.166 HD
ATOM     21  C   UNL     1      -0.413  -0.512   1.384  0.00  0.00    +0.048 C 
ENDROOT
BRANCH   1  25
ATOM     22  C   UNL     1      -0.286   4.036  -4.500  0.00  0.00    +0.162 A 
ATOM     23  C   UNL     1       0.482   3.148  -3.764  0.00  0.00    +0.050 A 
ATOM     24  C   UNL     1      -0.092   2.429  -2.732  0.00  0.00    +0.008 A 
ATOM     25  C   UNL     1      -1.431   2.594  -2.431  0.00  0.00    -0.035 A 
ATOM     26  C   UNL     1      -2.204   3.475  -3.165  0.00  0.00    +0.053 A 
ATOM     27  C   UNL     1      -1.634   4.202  -4.197  0.00  0.00    +0.162 A 
BRANCH  22  28
ATOM     28  O   UNL     1       0.276   4.743  -5.517  0.00  0.00    -0.488 OA
BRANCH  28  29
ATOM     29  C   UNL     1       1.665   4.520  -5.771  0.00  0.00    +0.229 C 
BRANCH  29  31
ATOM     30  C   UNL     1       3.602   5.159  -7.214  0.00  0.00    +0.007 C 
ATOM     31  C   UNL     1       2.116   5.397  -6.941  0.00  0.00    +0.038 C 
ENDBRANCH  29  31
ENDBRANCH  28  29
ENDBRANCH  22  28
BRANCH  27  32
ATOM     32  O   UNL     1      -2.392   5.073  -4.917  0.00  0.00    -0.489 OA
BRANCH  32  33
ATOM     33  C   UNL     1      -3.768   5.192  -4.550  0.00  0.00    +0.226 C 
ATOM     34  C   UNL     1      -4.453   6.210  -5.464  0.00  0.00    +0.048 C 
ENDBRANCH  32  33
ENDBRANCH  27  32
ENDBRANCH   1  25
BRANCH   7  35
ATOM     35  C   UNL     1       3.717  -0.466  -0.741  0.00  0.00    +0.140 C 
BRANCH  35  36
ATOM     36  C   UNL     1       3.904  -0.490  -2.259  0.00  0.00    +0.136 C 
ATOM     37  C   UNL     1       5.167  -1.296  -2.632  0.00  0.00    +0.035 C 
ATOM     38  C   UNL     1       5.764  -0.525  -3.831  0.00  0.00    +0.031 C 
ATOM     39  C   UNL     1       4.791   0.656  -4.040  0.00  0.00    +0.160 C 
ATOM     40  O   UNL     1       4.156   0.843  -2.756  0.00  0.00    -0.375 OA
ENDBRANCH  35  36
ENDBRANCH   7  35
TORSDOF 8
