REMARK  Name = ZINC20535389
REMARK  13 active torsions:
REMARK  status: ('A' for Active; 'I' for Inactive)
REMARK    1  A    between atoms: C_1  and  C_2
REMARK    2  A    between atoms: C_2  and  N_3
REMARK    3  A    between atoms: N_3  and  C_4
REMARK    4  A    between atoms: C_4  and  C_5
REMARK    5  A    between atoms: N_8  and  C_11
REMARK    6  A    between atoms: C_11  and  C_12
REMARK    7  A    between atoms: C_12  and  C_13
REMARK    8  A    between atoms: C_18  and  C_19
REMARK    9  A    between atoms: C_20  and  C_22
REMARK   10  A    between atoms: C_24  and  C_30
REMARK   11  A    between atoms: C_30  and  C_31
REMARK   12  A    between atoms: C_31  and  C_32
REMARK   13  A    between atoms: C_31  and  C_33
REMARK                            x       y       z     vdW  Elec       q    Type
REMARK                         _______ _______ _______ _____ _____    ______ ____
ROOT
ATOM      1  N   UNL     1      -0.918   1.663   1.119  0.00  0.00    -0.296 N 
ATOM      2  C   UNL     1      -1.863   0.943   1.756  0.00  0.00    +0.265 C 
ATOM      3  O   UNL     1      -2.246   1.284   2.857  0.00  0.00    -0.268 OA
ENDROOT
BRANCH   2   4
ATOM      4  C   UNL     1      -2.437  -0.269   1.110  0.00  0.00    +0.133 A 
ATOM      5  C   UNL     1      -3.516  -0.942   1.704  0.00  0.00    +0.054 A 
ATOM      6  C   UNL     1      -4.025  -2.047   1.089  0.00  0.00    +0.023 A 
ATOM      7  N   UNL     1      -3.473  -2.472  -0.069  0.00  0.00    -0.310 N 
ATOM      8  H   UNL     1      -3.872  -3.365  -0.573  0.00  0.00    +0.170 HD
ATOM      9  C   UNL     1      -2.436  -1.809  -0.612  0.00  0.00    +0.347 A 
ATOM     10  O   UNL     1      -1.950  -2.208  -1.657  0.00  0.00    -0.245 OA
ATOM     11  N   UNL     1      -1.929  -0.723  -0.025  0.00  0.00    -0.188 NA
BRANCH   6  12
ATOM     12  C   UNL     1      -5.187  -2.790   1.697  0.00  0.00    +0.056 C 
BRANCH  12  13
ATOM     13  C   UNL     1      -6.492  -2.297   1.068  0.00  0.00    -0.011 C 
ATOM     14  C   UNL     1      -7.659  -3.136   1.593  0.00  0.00    +0.007 C 
ATOM     15  C   UNL     1      -6.713  -0.829   1.436  0.00  0.00    +0.007 C 
ENDBRANCH  12  13
ENDBRANCH   6  12
ENDBRANCH   2   4
BRANCH   1  17
ATOM     16  C   UNL     1       0.698   0.165   0.057  0.00  0.00    +0.024 C 
ATOM     17  C   UNL     1      -0.398   1.208  -0.173  0.00  0.00    +0.105 C 
ENDBRANCH   1  17
BRANCH   1  18
ATOM     18  C   UNL     1      -0.412   2.900   1.717  0.00  0.00    +0.111 C 
BRANCH  18  19
ATOM     19  C   UNL     1      -1.345   4.059   1.359  0.00  0.00    +0.003 C 
ATOM     20  C   UNL     1      -1.362   4.251  -0.160  0.00  0.00    -0.014 C 
ATOM     21  C   UNL     1      -2.248   5.450  -0.507  0.00  0.00    -0.078 C 
ATOM     22  N   UNL     1      -1.726   6.654   0.151  0.00  0.00    +0.380 N 
ATOM     23  C   UNL     1      -1.744   6.511   1.612  0.00  0.00    -0.078 C 
ATOM     24  C   UNL     1      -0.843   5.344   2.023  0.00  0.00    -0.014 C 
ATOM     25  H   UNL     1      -0.678   6.778  -0.161  0.00  0.00    -0.082 HD
BRANCH  22  26
ATOM     26  C   UNL     1      -2.470   7.849  -0.271  0.00  0.00    -0.074 C 
BRANCH  26  27
ATOM     27  C   UNL     1      -2.643   7.832  -1.791  0.00  0.00    +0.017 C 
BRANCH  27  28
ATOM     28  C   UNL     1      -3.405   9.058  -2.223  0.00  0.00    -0.046 A 
ATOM     29  C   UNL     1      -4.775   8.992  -2.403  0.00  0.00    +0.004 A 
ATOM     30  C   UNL     1      -5.475  10.117  -2.795  0.00  0.00    +0.000 A 
ATOM     31  C   UNL     1      -4.805  11.306  -3.017  0.00  0.00    +0.000 A 
ATOM     32  C   UNL     1      -3.435  11.370  -2.842  0.00  0.00    +0.003 A 
ATOM     33  C   UNL     1      -2.736  10.246  -2.445  0.00  0.00    -0.047 A 
ATOM     34  C   UNL     1      -1.242  10.316  -2.255  0.00  0.00    +0.044 C 
ENDBRANCH  27  28
ENDBRANCH  26  27
ENDBRANCH  22  26
ENDBRANCH  18  19
ENDBRANCH   1  18
TORSDOF 9
