REMARK  Name = ZINC37444192
REMARK  8 active torsions:
REMARK  status: ('A' for Active; 'I' for Inactive)
REMARK    1  A    between atoms: C_1  and  C_2
REMARK    2  A    between atoms: C_7  and  C_8
REMARK    3  A    between atoms: C_8  and  N_9
REMARK    4  A    between atoms: C_22  and  C_23
REMARK    5  A    between atoms: C_22  and  C_24
REMARK    6  A    between atoms: N_26  and  C_27
REMARK    7  A    between atoms: C_32  and  C_37
REMARK    8  A    between atoms: C_34  and  C_36
REMARK                            x       y       z     vdW  Elec       q    Type
REMARK                         _______ _______ _______ _____ _____    ______ ____
ROOT
ATOM      1  N   UNL     1      -0.913   0.597   3.028  0.00  0.00    -0.275 N 
ATOM      2  C   UNL     1      -1.407   1.784   2.608  0.00  0.00    +0.283 C 
ATOM      3  O   UNL     1      -0.879   2.416   1.715  0.00  0.00    -0.267 OA
ATOM      4  C   UNL     1      -2.628   2.275   3.295  0.00  0.00    +0.198 A 
ATOM      5  N   UNL     1      -3.409   3.271   2.993  0.00  0.00    -0.223 NA
ATOM      6  C   UNL     1      -4.405   3.338   3.880  0.00  0.00    +0.090 A 
ATOM      7  C   UNL     1      -5.496   4.213   3.995  0.00  0.00    +0.030 A 
ATOM      8  C   UNL     1      -6.357   4.004   5.041  0.00  0.00    +0.002 A 
ATOM      9  C   UNL     1      -6.175   2.977   5.955  0.00  0.00    +0.002 A 
ATOM     10  C   UNL     1      -5.110   2.099   5.872  0.00  0.00    +0.028 A 
ATOM     11  C   UNL     1      -4.216   2.286   4.820  0.00  0.00    +0.069 A 
ATOM     12  N   UNL     1      -3.090   1.642   4.437  0.00  0.00    -0.317 N 
ATOM     13  C   UNL     1      -2.383   0.503   5.028  0.00  0.00    +0.159 C 
ATOM     14  C   UNL     1      -1.666  -0.277   3.922  0.00  0.00    +0.129 C 
ATOM     15  C   UNL     1      -0.702  -1.276   4.565  0.00  0.00    +0.043 C 
ENDROOT
BRANCH  14  16
ATOM     16  C   UNL     1      -2.686  -1.038   3.115  0.00  0.00    +0.238 C 
ATOM     17  O   UNL     1      -2.714  -0.921   1.908  0.00  0.00    -0.273 OA
ATOM     18  N   UNL     1      -3.567  -1.848   3.734  0.00  0.00    -0.310 N 
ATOM     19  H   UNL     1      -3.592  -1.887   4.703  0.00  0.00    +0.149 HD
BRANCH  18  20
ATOM     20  C   UNL     1      -4.485  -2.671   2.943  0.00  0.00    +0.076 C 
ATOM     21  C   UNL     1      -3.829  -4.020   2.640  0.00  0.00    +0.022 C 
ATOM     22  C   UNL     1      -4.789  -4.879   1.814  0.00  0.00    +0.002 C 
ATOM     23  C   UNL     1      -6.079  -5.106   2.605  0.00  0.00    +0.003 C 
ATOM     24  C   UNL     1      -6.735  -3.758   2.909  0.00  0.00    -0.009 C 
ATOM     25  C   UNL     1      -5.775  -2.898   3.734  0.00  0.00    +0.009 C 
ATOM     26  C   UNL     1      -6.431  -1.550   4.038  0.00  0.00    +0.009 C 
ATOM     27  C   UNL     1      -7.061  -3.042   1.597  0.00  0.00    +0.008 C 
ENDBRANCH  18  20
ENDBRANCH  14  16
BRANCH   1  28
ATOM     28  C   UNL     1       0.412   0.173   2.568  0.00  0.00    +0.144 C 
BRANCH  28  35
ATOM     29  C   UNL     1      -0.606   0.403  -0.126  0.00  0.00    +0.044 C 
ATOM     30  C   UNL     1      -0.211  -0.945   0.418  0.00  0.00    -0.046 A 
ATOM     31  C   UNL     1      -0.330  -2.072  -0.374  0.00  0.00    +0.003 A 
ATOM     32  C   UNL     1       0.032  -3.309   0.124  0.00  0.00    +0.000 A 
ATOM     33  C   UNL     1       0.514  -3.420   1.415  0.00  0.00    +0.000 A 
ATOM     34  C   UNL     1       0.634  -2.293   2.207  0.00  0.00    +0.005 A 
ATOM     35  C   UNL     1       0.276  -1.055   1.707  0.00  0.00    -0.027 A 
ENDBRANCH  28  35
ENDBRANCH   1  28
TORSDOF 4
