REMARK  Name = ZINC16626149
REMARK  5 active torsions:
REMARK  status: ('A' for Active; 'I' for Inactive)
REMARK    1  A    between atoms: C_4  and  C_7
REMARK    2  A    between atoms: C_10  and  S_12
REMARK    3  A    between atoms: S_12  and  C_13
REMARK    4  A    between atoms: C_13  and  C_14
REMARK    5  A    between atoms: N_20  and  C_21
REMARK                            x       y       z     vdW  Elec       q    Type
REMARK                         _______ _______ _______ _____ _____    ______ ____
ROOT
ATOM      1  C   UNL     1      -0.972   1.736  -1.045  0.00  0.00    +0.146 A 
ATOM      2  N   UNL     1      -2.046   1.106  -1.490  0.00  0.00    -0.199 NA
ATOM      3  C   UNL     1      -2.693   1.565  -2.559  0.00  0.00    +0.217 A 
ATOM      4  N   UNL     1      -2.252   2.650  -3.185  0.00  0.00    -0.181 NA
ATOM      5  C   UNL     1      -1.170   3.277  -2.737  0.00  0.00    +0.224 A 
ATOM      6  N   UNL     1      -0.531   2.816  -1.665  0.00  0.00    -0.198 NA
ATOM      7  N   UNL     1      -0.708   4.407  -3.385  0.00  0.00    -0.284 N 
ATOM      8  N   UNL     1      -3.817   0.909  -3.019  0.00  0.00    -0.327 N 
ATOM      9  H   UNL     1       0.033   4.910  -3.012  0.00  0.00    +0.155 HD
ATOM     10  H   UNL     1      -4.286   1.242  -3.801  0.00  0.00    +0.145 HD
ATOM     11  H   UNL     1      -4.138   0.117  -2.562  0.00  0.00    +0.145 HD
ENDROOT
BRANCH   7  12
ATOM     12  C   UNL     1      -1.310   4.825  -4.577  0.00  0.00    +0.034 A 
ATOM     13  C   UNL     1      -1.819   3.887  -5.465  0.00  0.00    +0.026 A 
ATOM     14  C   UNL     1      -2.417   4.303  -6.639  0.00  0.00    +0.040 A 
ATOM     15  C   UNL     1      -2.498   5.653  -6.936  0.00  0.00    +0.124 A 
ATOM     16  C   UNL     1      -1.986   6.590  -6.054  0.00  0.00    +0.040 A 
ATOM     17  C   UNL     1      -1.393   6.179  -4.876  0.00  0.00    +0.026 A 
ATOM     18  F   UNL     1      -3.079   6.056  -8.087  0.00  0.00    -0.205 F 
ENDBRANCH   7  12
BRANCH   1  19
ATOM     19  C   UNL     1      -0.246   1.217   0.170  0.00  0.00    +0.155 C 
BRANCH  19  20
ATOM     20  S   UNL     1      -0.934   1.984   1.658  0.00  0.00    -0.058 S 
BRANCH  20  24
ATOM     21  C   UNL     1       0.944   0.639   4.775  0.00  0.00    +0.249 A 
ATOM     22  N   UNL     1       1.547   0.001   3.802  0.00  0.00    -0.106 NA
ATOM     23  N   UNL     1       1.028   0.346   2.677  0.00  0.00    -0.101 NA
ATOM     24  C   UNL     1       0.070   1.220   2.888  0.00  0.00    +0.278 A 
ATOM     25  O   UNL     1      -0.001   1.428   4.216  0.00  0.00    -0.411 OA
BRANCH  21  29
ATOM     26  C   UNL     1       1.810   0.304   8.919  0.00  0.00    +0.000 A 
ATOM     27  C   UNL     1       2.534  -0.437   8.002  0.00  0.00    +0.001 A 
ATOM     28  C   UNL     1       2.258  -0.333   6.654  0.00  0.00    +0.013 A 
ATOM     29  C   UNL     1       1.245   0.522   6.217  0.00  0.00    +0.039 A 
ATOM     30  C   UNL     1       0.521   1.270   7.147  0.00  0.00    +0.013 A 
ATOM     31  C   UNL     1       0.804   1.153   8.492  0.00  0.00    +0.001 A 
ENDBRANCH  21  29
ENDBRANCH  20  24
ENDBRANCH  19  20
ENDBRANCH   1  19
TORSDOF 5
