REMARK  Name = ZINC01303174
REMARK  11 active torsions:
REMARK  status: ('A' for Active; 'I' for Inactive)
REMARK    1  A    between atoms: C_1  and  C_2
REMARK    2  A    between atoms: C_5  and  C_32
REMARK    3  A    between atoms: C_6  and  O_8
REMARK    4  A    between atoms: O_8  and  C_9
REMARK    5  A    between atoms: C_11  and  N_18
REMARK    6  A    between atoms: C_13  and  N_15
REMARK    7  A    between atoms: C_19  and  C_21
REMARK    8  A    between atoms: C_21  and  N_22
REMARK    9  A    between atoms: C_23  and  C_31
REMARK   10  A    between atoms: C_32  and  C_33
REMARK   11  A    between atoms: C_32  and  C_34
REMARK                            x       y       z     vdW  Elec       q    Type
REMARK                         _______ _______ _______ _____ _____    ______ ____
ROOT
ATOM      1  C   UNL     1       2.363  -0.218   0.038  0.00  0.00    +0.132 A 
ATOM      2  C   UNL     1       3.545  -0.934   0.146  0.00  0.00    +0.069 A 
ATOM      3  C   UNL     1       3.507  -2.316   0.264  0.00  0.00    +0.039 A 
ATOM      4  C   UNL     1       2.286  -2.978   0.275  0.00  0.00    +0.056 A 
ATOM      5  C   UNL     1       1.110  -2.260   0.168  0.00  0.00    +0.131 A 
ATOM      6  C   UNL     1       1.145  -0.883   0.055  0.00  0.00    +0.079 A 
ENDROOT
BRANCH   3   7
ATOM      7  N   UNL     1       4.698  -3.043   0.373  0.00  0.00    -0.284 N 
ATOM      8  C   UNL     1       5.746  -2.524   1.043  0.00  0.00    +0.239 C 
ATOM      9  O   UNL     1       5.684  -1.397   1.486  0.00  0.00    -0.273 OA
ATOM     10  H   UNL     1       4.779  -4.038  -0.089  0.00  0.00    +0.155 HD
BRANCH   8  11
ATOM     11  C   UNL     1       6.995  -3.344   1.242  0.00  0.00    +0.239 C 
BRANCH  11  12
ATOM     12  N   UNL     1       7.978  -2.561   1.994  0.00  0.00    -0.256 N 
ATOM     13  C   UNL     1       8.106  -2.527   3.338  0.00  0.00    +0.053 A 
ATOM     14  C   UNL     1       9.127  -1.689   3.634  0.00  0.00    +0.089 A 
ATOM     15  C   UNL     1       9.640  -1.194   2.429  0.00  0.00    +0.249 A 
ATOM     16  N   UNL     1       8.956  -1.721   1.446  0.00  0.00    -0.145 NA
ATOM     17  N   UNL     1      10.766  -0.243   2.292  0.00  0.00    +0.078 N 
ATOM     18  O   UNL     1      11.334   0.177   3.284  0.00  0.00    -0.125 OA
ATOM     19  O   UNL     1      11.126   0.118   1.185  0.00  0.00    -0.125 OA
ATOM     20 BR   UNL     1       9.749  -1.261   5.367  0.00  0.00    -0.044 Br
ATOM     21  C   UNL     1       7.264  -3.287   4.330  0.00  0.00    +0.066 C 
ENDBRANCH  11  12
ENDBRANCH   8  11
ENDBRANCH   3   7
BRANCH   5  22
ATOM     22  N   UNL     1      -0.190  -2.967   0.180  0.00  0.00    +0.057 N 
ATOM     23  O   UNL     1      -0.223  -4.181   0.284  0.00  0.00    -0.126 OA
ATOM     24  O   UNL     1      -1.228  -2.336   0.085  0.00  0.00    -0.126 OA
ENDBRANCH   5  22
BRANCH   1  25
ATOM     25  O   UNL     1       2.397   1.136  -0.078  0.00  0.00    -0.456 OA
BRANCH  25  31
ATOM     26  C   UNL     1      -1.185   3.351  -2.545  0.00  0.00    +0.044 C 
ATOM     27  C   UNL     1      -0.561   2.901  -1.249  0.00  0.00    -0.047 A 
ATOM     28  C   UNL     1      -1.192   3.171  -0.048  0.00  0.00    +0.004 A 
ATOM     29  C   UNL     1      -0.619   2.764   1.143  0.00  0.00    +0.008 A 
ATOM     30  C   UNL     1       0.583   2.083   1.136  0.00  0.00    -0.003 A 
ATOM     31  C   UNL     1       1.215   1.806  -0.068  0.00  0.00    +0.132 A 
ATOM     32  C   UNL     1       0.638   2.215  -1.262  0.00  0.00    +0.050 A 
BRANCH  30  33
ATOM     33  C   UNL     1       1.206   1.640   2.434  0.00  0.00    +0.016 C 
ATOM     34  C   UNL     1       1.481   2.864   3.311  0.00  0.00    +0.012 C 
ATOM     35  C   UNL     1       0.250   0.695   3.163  0.00  0.00    +0.012 C 
ENDBRANCH  30  33
ENDBRANCH  25  31
ENDBRANCH   1  25
TORSDOF 7
