REMARK  Name = ZINC13031758
REMARK  16 active torsions:
REMARK  status: ('A' for Active; 'I' for Inactive)
REMARK    1  A    between atoms: C_1  and  C_2
REMARK    2  A    between atoms: C_5  and  N_8
REMARK    3  A    between atoms: N_8  and  C_9
REMARK    4  A    between atoms: C_9  and  C_11
REMARK    5  A    between atoms: C_9  and  C_21
REMARK    6  A    between atoms: C_15  and  O_19
REMARK    7  A    between atoms: C_16  and  O_17
REMARK    8  A    between atoms: O_17  and  C_18
REMARK    9  A    between atoms: O_19  and  C_20
REMARK   10  A    between atoms: N_23  and  C_24
REMARK   11  A    between atoms: C_24  and  C_25
REMARK   12  A    between atoms: C_25  and  C_26
REMARK   13  A    between atoms: C_26  and  C_27
REMARK   14  A    between atoms: C_26  and  C_28
REMARK   15  A    between atoms: C_29  and  C_31
REMARK   16  A    between atoms: C_31  and  N_32
REMARK                            x       y       z     vdW  Elec       q    Type
REMARK                         _______ _______ _______ _____ _____    ______ ____
ROOT
ATOM      1  N   UNL     1      -5.139   3.402  -1.569  0.00  0.00    -0.254 N 
ATOM      2  C   UNL     1      -3.848   3.786  -1.621  0.00  0.00    +0.242 C 
ATOM      3  O   UNL     1      -3.260   3.799  -2.682  0.00  0.00    -0.273 OA
ENDROOT
BRANCH   1   8
ATOM      4  C   UNL     1      -8.006   3.735   3.314  0.00  0.00    +0.044 C 
ATOM      5  C   UNL     1      -7.245   3.647   2.017  0.00  0.00    -0.050 A 
ATOM      6  C   UNL     1      -7.521   4.533   0.993  0.00  0.00    +0.005 A 
ATOM      7  C   UNL     1      -6.825   4.455  -0.198  0.00  0.00    +0.024 A 
ATOM      8  C   UNL     1      -5.846   3.484  -0.365  0.00  0.00    +0.038 A 
ATOM      9  C   UNL     1      -5.574   2.592   0.664  0.00  0.00    +0.024 A 
ATOM     10  C   UNL     1      -6.271   2.679   1.853  0.00  0.00    +0.005 A 
ENDBRANCH   1   8
BRANCH   1  11
ATOM     11  C   UNL     1      -5.801   2.898  -2.775  0.00  0.00    +0.201 C 
BRANCH  11  12
ATOM     12  C   UNL     1      -7.064   3.684  -3.020  0.00  0.00    +0.027 A 
ATOM     13  C   UNL     1      -8.291   3.142  -2.687  0.00  0.00    +0.010 A 
ATOM     14  C   UNL     1      -9.451   3.860  -2.911  0.00  0.00    +0.004 A 
ATOM     15  C   UNL     1      -9.389   5.124  -3.467  0.00  0.00    +0.049 A 
ATOM     16  C   UNL     1      -8.162   5.673  -3.803  0.00  0.00    +0.162 A 
ATOM     17  C   UNL     1      -6.994   4.952  -3.573  0.00  0.00    +0.167 A 
BRANCH  17  18
ATOM     18  O   UNL     1      -5.787   5.489  -3.896  0.00  0.00    -0.491 OA
ATOM     19  C   UNL     1      -5.351   5.341  -5.249  0.00  0.00    +0.277 C 
ENDBRANCH  17  18
BRANCH  16  20
ATOM     20  O   UNL     1      -8.099   6.917  -4.351  0.00  0.00    -0.491 OA
ATOM     21  C   UNL     1      -9.337   7.600  -4.552  0.00  0.00    +0.277 C 
ENDBRANCH  16  20
ENDBRANCH  11  12
BRANCH  11  22
ATOM     22  C   UNL     1      -6.144   1.443  -2.589  0.00  0.00    +0.239 C 
ATOM     23  O   UNL     1      -6.079   0.940  -1.487  0.00  0.00    -0.273 OA
ATOM     24  N   UNL     1      -6.523   0.699  -3.647  0.00  0.00    -0.313 N 
ATOM     25  H   UNL     1      -6.507   1.081  -4.539  0.00  0.00    +0.149 HD
BRANCH  24  26
ATOM     26  C   UNL     1      -6.960  -0.686  -3.451  0.00  0.00    +0.104 C 
BRANCH  26  27
ATOM     27  C   UNL     1      -7.332  -1.300  -4.802  0.00  0.00    +0.022 C 
BRANCH  27  28
ATOM     28  C   UNL     1      -7.788  -2.745  -4.596  0.00  0.00    -0.016 C 
ATOM     29  C   UNL     1      -9.079  -2.762  -3.775  0.00  0.00    +0.007 C 
ATOM     30  C   UNL     1      -8.042  -3.398  -5.957  0.00  0.00    +0.007 C 
ENDBRANCH  27  28
ENDBRANCH  26  27
ENDBRANCH  24  26
ENDBRANCH  11  22
ENDBRANCH   1  11
BRANCH   2  31
ATOM     31  C   UNL     1      -3.134   4.200  -0.359  0.00  0.00    +0.242 C 
BRANCH  31  32
ATOM     32  N   UNL     1      -1.736   4.508  -0.668  0.00  0.00    -0.235 N 
ATOM     33  C   UNL     1      -0.677   3.631  -0.652  0.00  0.00    +0.090 A 
ATOM     34  C   UNL     1      -0.551   2.274  -0.374  0.00  0.00    +0.029 A 
ATOM     35  C   UNL     1       0.677   1.678  -0.445  0.00  0.00    +0.002 A 
ATOM     36  C   UNL     1       1.800   2.413  -0.802  0.00  0.00    +0.002 A 
ATOM     37  C   UNL     1       1.702   3.744  -1.085  0.00  0.00    +0.032 A 
ATOM     38  C   UNL     1       0.455   4.380  -1.014  0.00  0.00    +0.113 A 
ATOM     39  N   UNL     1       0.054   5.649  -1.231  0.00  0.00    -0.129 NA
ATOM     40  N   UNL     1      -1.213   5.756  -1.038  0.00  0.00    -0.064 NA
ENDBRANCH  31  32
ENDBRANCH   2  31
TORSDOF 11
