REMARK  Name = ZINC63671410
REMARK  8 active torsions:
REMARK  status: ('A' for Active; 'I' for Inactive)
REMARK    1  A    between atoms: C_1  and  C_2
REMARK    2  A    between atoms: C_2  and  N_3
REMARK    3  A    between atoms: C_10  and  S_12
REMARK    4  A    between atoms: S_12  and  N_15
REMARK    5  A    between atoms: C_18  and  C_21
REMARK    6  A    between atoms: N_23  and  C_24
REMARK    7  A    between atoms: C_24  and  C_25
REMARK    8  A    between atoms: C_25  and  C_26
REMARK                            x       y       z     vdW  Elec       q    Type
REMARK                         _______ _______ _______ _____ _____    ______ ____
ROOT
ATOM      1  N   UNL     1      -5.266  -3.171  -4.562  0.00  0.00    -0.177 NA
ATOM      2  C   UNL     1      -4.416  -3.509  -5.713  0.00  0.00    +0.110 C 
ATOM      3  C   UNL     1      -5.232  -4.353  -6.697  0.00  0.00    +0.030 C 
ATOM      4  C   UNL     1      -5.809  -5.567  -5.965  0.00  0.00    +0.077 C 
ATOM      5  C   UNL     1      -6.741  -5.094  -4.847  0.00  0.00    +0.030 C 
ATOM      6  C   UNL     1      -5.938  -4.259  -3.838  0.00  0.00    +0.110 C 
ENDROOT
BRANCH   4   7
ATOM      7  C   UNL     1      -6.584  -6.418  -6.938  0.00  0.00    +0.216 C 
ATOM      8  O   UNL     1      -6.666  -6.087  -8.101  0.00  0.00    -0.276 OA
ATOM      9  N   UNL     1      -7.185  -7.548  -6.514  0.00  0.00    -0.315 N 
ATOM     10  H   UNL     1      -7.120  -7.812  -5.583  0.00  0.00    +0.149 HD
BRANCH   9  11
ATOM     11  C   UNL     1      -7.938  -8.375  -7.460  0.00  0.00    +0.108 C 
BRANCH  11  12
ATOM     12  C   UNL     1      -8.515  -9.589  -6.728  0.00  0.00    +0.052 C 
BRANCH  12  13
ATOM     13  C   UNL     1      -9.290 -10.440  -7.701  0.00  0.00    -0.040 C 
ATOM     14  C   UNL     1      -8.837 -11.522  -8.374  0.00  0.00    -0.001 A 
ATOM     15  C   UNL     1      -7.537 -12.203  -8.403  0.00  0.00    +0.010 A 
ATOM     16  C   UNL     1      -7.382 -13.288  -9.196  0.00  0.00    +0.001 A 
ATOM     17  C   UNL     1      -8.429 -13.776  -9.989  0.00  0.00    +0.002 A 
ATOM     18  C   UNL     1      -9.652 -13.204 -10.017  0.00  0.00    +0.026 A 
ATOM     19  C   UNL     1      -9.927 -12.058  -9.222  0.00  0.00    +0.043 A 
ATOM     20  N   UNL     1     -11.011 -11.335  -9.077  0.00  0.00    -0.380 N 
ATOM     21  C   UNL     1     -10.733 -10.262  -8.117  0.00  0.00    +0.144 C 
ATOM     22  H   UNL     1     -11.857 -11.487  -9.527  0.00  0.00    +0.160 HD
ENDBRANCH  12  13
ENDBRANCH  11  12
ENDBRANCH   9  11
ENDBRANCH   4   7
BRANCH   1  23
ATOM     23  S   UNL     1      -5.456  -1.597  -4.087  0.00  0.00    +0.061 S 
ATOM     24  O   UNL     1      -6.686  -1.532  -3.378  0.00  0.00    -0.153 OA
ATOM     25  O   UNL     1      -5.192  -0.793  -5.229  0.00  0.00    -0.153 OA
BRANCH  23  33
ATOM     26  N   UNL     1      -1.372  -0.511   0.012  0.00  0.00    -0.347 N 
ATOM     27  C   UNL     1      -2.067  -0.875   1.133  0.00  0.00    +0.087 A 
ATOM     28  C   UNL     1      -3.296  -1.295   0.794  0.00  0.00    +0.027 A 
ATOM     29  C   UNL     1      -3.397  -1.191  -0.664  0.00  0.00    +0.002 A 
ATOM     30  C   UNL     1      -2.159  -0.687  -1.104  0.00  0.00    +0.049 A 
ATOM     31  C   UNL     1      -1.955  -0.473  -2.463  0.00  0.00    +0.028 A 
ATOM     32  C   UNL     1      -2.963  -0.753  -3.359  0.00  0.00    +0.030 A 
ATOM     33  C   UNL     1      -4.183  -1.247  -2.920  0.00  0.00    +0.106 A 
ATOM     34  C   UNL     1      -4.403  -1.473  -1.590  0.00  0.00    +0.038 A 
BRANCH  26  36
ATOM     35  C   UNL     1      -0.019   1.526   0.010  0.00  0.00    +0.027 C 
ATOM     36  C   UNL     1       0.002  -0.004   0.002  0.00  0.00    +0.118 C 
ENDBRANCH  26  36
ENDBRANCH  23  33
ENDBRANCH   1  23
TORSDOF 7
