REMARK  Name = ZINC13347386
REMARK  11 active torsions:
REMARK  status: ('A' for Active; 'I' for Inactive)
REMARK    1  A    between atoms: C_1  and  C_2
REMARK    2  A    between atoms: C_2  and  N_59
REMARK    3  A    between atoms: C_3  and  C_4
REMARK    4  A    between atoms: C_3  and  N_59
REMARK    5  A    between atoms: C_7  and  O_10
REMARK    6  A    between atoms: O_10  and  C_11
REMARK    7  A    between atoms: C_11  and  C_12
REMARK    8  A    between atoms: C_13  and  C_14
REMARK    9  A    between atoms: C_13  and  N_59
REMARK   10  A    between atoms: C_22  and  C_25
REMARK   11  A    between atoms: C_28  and  C_31
REMARK                            x       y       z     vdW  Elec       q    Type
REMARK                         _______ _______ _______ _____ _____    ______ ____
ROOT
ATOM      1  C   UNL     1      -1.151   2.104  -1.280  0.00  0.00    +0.032 A 
ATOM      2  C   UNL     1      -0.704   3.125  -2.071  0.00  0.00    +0.093 A 
ATOM      3  C   UNL     1      -1.563   3.657  -3.049  0.00  0.00    +0.273 A 
ATOM      4  O   UNL     1      -1.193   4.566  -3.773  0.00  0.00    -0.266 OA
ATOM      5  N   UNL     1      -2.806   3.147  -3.167  0.00  0.00    -0.201 N 
ATOM      6  C   UNL     1      -3.207   2.126  -2.344  0.00  0.00    +0.158 A 
ATOM      7  N   UNL     1      -2.383   1.631  -1.429  0.00  0.00    -0.234 NA
ATOM      8  C   UNL     1      -4.535   1.799  -2.691  0.00  0.00    +0.075 A 
ATOM      9  C   UNL     1      -4.923   2.616  -3.708  0.00  0.00    +0.066 A 
ATOM     10  N   UNL     1      -3.874   3.455  -4.018  0.00  0.00    -0.288 N 
ATOM     11  H   UNL     1      -3.876   4.139  -4.706  0.00  0.00    +0.187 HD
ENDROOT
BRANCH   9  12
ATOM     12  C   UNL     1      -6.243   2.605  -4.369  0.00  0.00    -0.000 A 
ATOM     13  C   UNL     1      -6.518   3.503  -5.403  0.00  0.00    +0.010 A 
ATOM     14  C   UNL     1      -7.752   3.484  -6.019  0.00  0.00    +0.004 A 
ATOM     15  C   UNL     1      -8.720   2.585  -5.608  0.00  0.00    -0.050 A 
ATOM     16  C   UNL     1      -8.457   1.696  -4.580  0.00  0.00    +0.004 A 
ATOM     17  C   UNL     1      -7.225   1.701  -3.959  0.00  0.00    +0.010 A 
ATOM     18  C   UNL     1     -10.068   2.574  -6.282  0.00  0.00    +0.044 C 
ENDBRANCH   9  12
BRANCH   1  19
ATOM     19  C   UNL     1      -0.244   1.517  -0.230  0.00  0.00    -0.022 C 
BRANCH  19  20
ATOM     20  N   UNL     1      -0.802   1.821   1.105  0.00  0.00    +0.386 N 
ATOM     21  H   UNL     1      -0.989   2.828   1.167  0.00  0.00    -0.081 HD
BRANCH  20  23
ATOM     22  C   UNL     1      -2.781   1.652   2.532  0.00  0.00    -0.017 C 
ATOM     23  C   UNL     1      -2.068   1.084   1.303  0.00  0.00    -0.081 C 
ENDBRANCH  20  23
BRANCH  20  24
ATOM     24  C   UNL     1       0.169   1.447   2.155  0.00  0.00    -0.042 C 
BRANCH  24  25
ATOM     25  C   UNL     1       1.242   2.504   2.218  0.00  0.00    -0.064 A 
ATOM     26  C   UNL     1       2.432   2.321   1.538  0.00  0.00    +0.005 A 
ATOM     27  C   UNL     1       3.415   3.290   1.590  0.00  0.00    +0.046 A 
ATOM     28  C   UNL     1       3.211   4.443   2.334  0.00  0.00    +0.121 A 
ATOM     29  C   UNL     1       2.018   4.622   3.019  0.00  0.00    +0.046 A 
ATOM     30  C   UNL     1       1.037   3.652   2.960  0.00  0.00    +0.005 A 
BRANCH  28  31
ATOM     31  O   UNL     1       4.178   5.396   2.390  0.00  0.00    -0.492 OA
BRANCH  31  32
ATOM     32  C   UNL     1       5.380   5.145   1.660  0.00  0.00    +0.225 C 
ATOM     33  C   UNL     1       6.343   6.320   1.842  0.00  0.00    +0.048 C 
ENDBRANCH  31  32
ENDBRANCH  28  31
ENDBRANCH  24  25
ENDBRANCH  20  24
ENDBRANCH  19  20
ENDBRANCH   1  19
TORSDOF 8
