REMARK  Name = ZINC09467755
REMARK  5 active torsions:
REMARK  status: ('A' for Active; 'I' for Inactive)
REMARK    1  A    between atoms: C_1  and  C_2
REMARK    2  A    between atoms: C_9  and  C_11
REMARK    3  A    between atoms: C_18  and  S_20
REMARK    4  A    between atoms: S_20  and  C_21
REMARK    5  A    between atoms: C_21  and  C_22
REMARK                            x       y       z     vdW  Elec       q    Type
REMARK                         _______ _______ _______ _____ _____    ______ ____
ROOT
ATOM      1  C   UNL     1       1.660   3.192   0.003  0.00  0.00    +0.270 C 
ATOM      2  O   UNL     1       2.840   3.483  -0.007  0.00  0.00    -0.268 OA
ATOM      3  N   UNL     1       0.726   4.163   0.017  0.00  0.00    -0.250 N 
ATOM      4  C   UNL     1       1.111   5.495   0.019  0.00  0.00    +0.218 A 
ATOM      5  N   UNL     1       2.379   5.954   0.009  0.00  0.00    -0.246 N 
ATOM      6  H   UNL     1       3.189   5.420  -0.001  0.00  0.00    +0.192 HD
ATOM      7  N   UNL     1       2.296   7.355   0.017  0.00  0.00    -0.144 NA
ATOM      8  C   UNL     1       1.020   7.662   0.031  0.00  0.00    +0.210 A 
ATOM      9  N   UNL     1       0.303   6.533   0.026  0.00  0.00    -0.187 NA
ATOM     10  H   UNL     1      -0.216   3.930   0.025  0.00  0.00    +0.158 HD
ENDROOT
BRANCH   1  19
ATOM     11  C   UNL     1       3.054  -2.191  -0.040  0.00  0.00    +0.064 C 
ATOM     12  C   UNL     1       1.612  -1.752  -0.023  0.00  0.00    +0.022 A 
ATOM     13  C   UNL     1       0.633  -2.679  -0.018  0.00  0.00    +0.021 A 
ATOM     14  C   UNL     1      -0.717  -2.285  -0.003  0.00  0.00    +0.005 A 
ATOM     15  C   UNL     1      -1.034  -0.964   0.007  0.00  0.00    +0.047 A 
ATOM     16  C   UNL     1       0.002  -0.004   0.002  0.00  0.00    +0.139 A 
ATOM     17  N   UNL     1       1.310  -0.419  -0.013  0.00  0.00    -0.303 N 
ATOM     18  C   UNL     1       2.091   0.697  -0.014  0.00  0.00    +0.126 A 
ATOM     19  C   UNL     1       1.250   1.774  -0.000  0.00  0.00    +0.144 A 
ATOM     20  N   UNL     1      -0.016   1.318   0.009  0.00  0.00    -0.223 NA
ENDBRANCH   1  19
BRANCH   8  21
ATOM     21  S   UNL     1       0.360   9.295   0.046  0.00  0.00    -0.080 S 
BRANCH  21  22
ATOM     22  C   UNL     1       1.827  10.362   0.037  0.00  0.00    +0.112 C 
BRANCH  22  23
ATOM     23  C   UNL     1       1.398  11.807   0.049  0.00  0.00    -0.037 A 
ATOM     24  C   UNL     1       1.194  12.477  -1.143  0.00  0.00    +0.006 A 
ATOM     25  C   UNL     1       0.795  13.800  -1.132  0.00  0.00    +0.020 A 
ATOM     26  C   UNL     1       0.610  14.457   0.071  0.00  0.00    +0.041 A 
ATOM     27  C   UNL     1       0.819  13.787   1.264  0.00  0.00    +0.020 A 
ATOM     28  C   UNL     1       1.213  12.463   1.252  0.00  0.00    +0.006 A 
ATOM     29 CL   UNL     1       0.115  16.121   0.085  0.00  0.00    -0.084 Cl
ENDBRANCH  22  23
ENDBRANCH  21  22
ENDBRANCH   8  21
TORSDOF 4
