REMARK  Name = ZINC66980050
REMARK  7 active torsions:
REMARK  status: ('A' for Active; 'I' for Inactive)
REMARK    1  A    between atoms: C_1  and  C_2
REMARK    2  A    between atoms: C_2  and  C_4
REMARK    3  A    between atoms: C_2  and  N_14
REMARK    4  A    between atoms: N_17  and  C_18
REMARK    5  A    between atoms: C_25  and  C_27
REMARK    6  A    between atoms: C_27  and  C_28
REMARK    7  A    between atoms: C_27  and  C_29
REMARK                            x       y       z     vdW  Elec       q    Type
REMARK                         _______ _______ _______ _____ _____    ______ ____
ROOT
ATOM      1  N   UNL     1       0.709  -0.496   1.187  0.00  0.00    -0.293 N 
ATOM      2  C   UNL     1       0.051  -0.633   2.356  0.00  0.00    +0.304 C 
ATOM      3  O   UNL     1      -1.130  -0.355   2.424  0.00  0.00    -0.252 OA
ATOM      4  N   UNL     1       0.703  -1.080   3.447  0.00  0.00    -0.269 N 
ATOM      5  H   UNL     1       1.652  -0.718   1.132  0.00  0.00    +0.151 HD
ATOM      6  H   UNL     1       1.627  -1.366   3.377  0.00  0.00    +0.156 HD
ENDROOT
BRANCH   4   7
ATOM      7  C   UNL     1       0.046  -1.131   4.683  0.00  0.00    +0.036 A 
ATOM      8  C   UNL     1       0.740  -0.864   5.862  0.00  0.00    +0.025 A 
ATOM      9  C   UNL     1       0.127  -0.907   7.074  0.00  0.00    +0.031 A 
ATOM     10  C   UNL     1      -1.247  -1.225   7.184  0.00  0.00    +0.079 A 
ATOM     11  C   UNL     1      -1.926  -1.490   5.972  0.00  0.00    +0.041 A 
ATOM     12  C   UNL     1      -1.305  -1.441   4.749  0.00  0.00    +0.040 A 
ATOM     13  S   UNL     1      -3.576  -1.835   6.535  0.00  0.00    -0.072 S 
ATOM     14  C   UNL     1      -3.267  -1.613   8.281  0.00  0.00    +0.082 A 
ATOM     15  N   UNL     1      -1.998  -1.309   8.303  0.00  0.00    -0.244 NA
BRANCH  14  16
ATOM     16  C   UNL     1      -4.228  -1.744   9.434  0.00  0.00    +0.039 C 
ATOM     17  C   UNL     1      -3.735  -2.833  10.388  0.00  0.00    +0.014 C 
ATOM     18  C   UNL     1      -4.312  -0.411  10.182  0.00  0.00    +0.014 C 
ENDBRANCH  14  16
ENDBRANCH   4   7
BRANCH   1  20
ATOM     19  C   UNL     1      -0.013   1.520   0.005  0.00  0.00    +0.033 C 
ATOM     20  C   UNL     1       0.001  -0.010   0.000  0.00  0.00    +0.102 C 
BRANCH  20  21
ATOM     21  C   UNL     1       0.701  -0.503  -1.240  0.00  0.00    -0.027 A 
ATOM     22  C   UNL     1       2.083  -0.531  -1.290  0.00  0.00    +0.007 A 
ATOM     23  C   UNL     1       2.730  -0.982  -2.422  0.00  0.00    +0.024 A 
ATOM     24  C   UNL     1       1.994  -1.412  -3.524  0.00  0.00    +0.037 A 
ATOM     25  C   UNL     1       0.607  -1.379  -3.461  0.00  0.00    -0.017 A 
ATOM     26  C   UNL     1      -0.036  -0.934  -2.328  0.00  0.00    +0.011 A 
ATOM     27  C   UNL     1       0.108  -1.900  -4.789  0.00  0.00    +0.133 C 
ATOM     28  C   UNL     1       1.373  -2.211  -5.561  0.00  0.00    +0.222 C 
ATOM     29  O   UNL     1       1.439  -2.656  -6.687  0.00  0.00    -0.275 OA
ATOM     30  N   UNL     1       2.409  -1.903  -4.763  0.00  0.00    -0.285 N 
ATOM     31  H   UNL     1       3.339  -2.009  -5.019  0.00  0.00    +0.155 HD
ENDBRANCH  20  21
ENDBRANCH   1  20
TORSDOF 4
