REMARK  Name = ZINC35069876
REMARK  13 active torsions:
REMARK  status: ('A' for Active; 'I' for Inactive)
REMARK    1  A    between atoms: C_1  and  C_2
REMARK    2  A    between atoms: C_2  and  C_3
REMARK    3  A    between atoms: C_3  and  C_4
REMARK    4  A    between atoms: C_4  and  C_5
REMARK    5  A    between atoms: C_5  and  C_6
REMARK    6  A    between atoms: C_6  and  N_7
REMARK    7  A    between atoms: N_7  and  C_8
REMARK    8  A    between atoms: C_8  and  C_10
REMARK    9  A    between atoms: C_8  and  C_11
REMARK   10  A    between atoms: N_21  and  C_22
REMARK   11  A    between atoms: C_25  and  C_29
REMARK   12  A    between atoms: C_26  and  C_28
REMARK   13  A    between atoms: N_32  and  C_33
REMARK                            x       y       z     vdW  Elec       q    Type
REMARK                         _______ _______ _______ _____ _____    ______ ____
ROOT
ATOM      1  C   UNL     1       3.215  -5.600  -3.790  0.00  0.00    +0.141 C 
ATOM      2  C   UNL     1       3.502  -4.102  -3.671  0.00  0.00    +0.036 C 
ENDROOT
BRANCH   1   3
ATOM      3  C   UNL     1       3.525  -6.276  -2.479  0.00  0.00    +0.138 A 
ATOM      4  N   UNL     1       2.959  -5.821  -1.403  0.00  0.00    -0.231 NA
ATOM      5  C   UNL     1       3.190  -6.379  -0.188  0.00  0.00    +0.078 A 
ATOM      6  C   UNL     1       2.581  -5.890   0.970  0.00  0.00    +0.028 A 
ATOM      7  C   UNL     1       2.844  -6.487   2.183  0.00  0.00    +0.002 A 
ATOM      8  C   UNL     1       3.709  -7.571   2.270  0.00  0.00    +0.001 A 
ATOM      9  C   UNL     1       4.322  -8.070   1.142  0.00  0.00    +0.015 A 
ATOM     10  C   UNL     1       4.069  -7.481  -0.095  0.00  0.00    +0.065 A 
ATOM     11  C   UNL     1       4.693  -7.972  -1.332  0.00  0.00    +0.266 A 
ATOM     12  O   UNL     1       5.460  -8.918  -1.322  0.00  0.00    -0.267 OA
ATOM     13  N   UNL     1       4.379  -7.335  -2.484  0.00  0.00    -0.263 N 
BRANCH  13  14
ATOM     14  C   UNL     1       4.943  -7.766  -3.692  0.00  0.00    +0.051 A 
ATOM     15  C   UNL     1       6.105  -7.173  -4.168  0.00  0.00    +0.026 A 
ATOM     16  C   UNL     1       6.658  -7.601  -5.359  0.00  0.00    +0.005 A 
ATOM     17  C   UNL     1       6.056  -8.618  -6.077  0.00  0.00    -0.047 A 
ATOM     18  C   UNL     1       4.899  -9.210  -5.606  0.00  0.00    -0.046 A 
ATOM     19  C   UNL     1       4.344  -8.791  -4.412  0.00  0.00    +0.030 A 
ATOM     20  C   UNL     1       4.246 -10.318  -6.392  0.00  0.00    +0.044 C 
ATOM     21  C   UNL     1       6.663  -9.082  -7.376  0.00  0.00    +0.044 C 
ENDBRANCH  13  14
ENDBRANCH   1   3
BRANCH   1  22
ATOM     22  N   UNL     1       1.803  -5.802  -4.122  0.00  0.00    -0.276 N 
ATOM     23  C   UNL     1       1.462  -6.438  -5.260  0.00  0.00    +0.307 C 
ATOM     24  O   UNL     1       2.328  -6.844  -6.012  0.00  0.00    -0.252 OA
ATOM     25  N   UNL     1       0.163  -6.624  -5.566  0.00  0.00    -0.267 N 
ATOM     26  H   UNL     1      -0.526  -6.352  -4.939  0.00  0.00    +0.156 HD
BRANCH  25  27
ATOM     27  C   UNL     1      -0.193  -7.209  -6.789  0.00  0.00    +0.070 A 
ATOM     28  C   UNL     1       0.672  -8.098  -7.411  0.00  0.00    +0.029 A 
ATOM     29  C   UNL     1       0.319  -8.674  -8.617  0.00  0.00    +0.040 A 
ATOM     30  C   UNL     1      -0.896  -8.365  -9.205  0.00  0.00    +0.126 A 
ATOM     31  C   UNL     1      -1.761  -7.478  -8.587  0.00  0.00    +0.078 A 
ATOM     32  C   UNL     1      -1.415  -6.904  -7.377  0.00  0.00    +0.147 A 
ATOM     33  F   UNL     1      -2.261  -6.043  -6.771  0.00  0.00    -0.203 F 
ATOM     34  F   UNL     1      -1.238  -8.930 -10.383  0.00  0.00    -0.205 F 
ENDBRANCH  25  27
BRANCH  22  35
ATOM     35  C   UNL     1       0.760  -5.312  -3.216  0.00  0.00    +0.110 C 
BRANCH  35  36
ATOM     36  C   UNL     1       0.382  -3.881  -3.601  0.00  0.00    +0.019 C 
BRANCH  36  37
ATOM     37  C   UNL     1      -0.707  -3.369  -2.655  0.00  0.00    +0.002 C 
BRANCH  37  38
ATOM     38  C   UNL     1      -1.086  -1.938  -3.040  0.00  0.00    -0.000 C 
BRANCH  38  40
ATOM     39  C   UNL     1      -2.553   0.005  -2.479  0.00  0.00    +0.004 C 
ATOM     40  C   UNL     1      -2.175  -1.427  -2.095  0.00  0.00    -0.003 C 
ENDBRANCH  38  40
ENDBRANCH  37  38
ENDBRANCH  36  37
ENDBRANCH  35  36
ENDBRANCH  22  35
ENDBRANCH   1  22
TORSDOF 9
