REMARK  Name = ZINC14022521
REMARK  8 active torsions:
REMARK  status: ('A' for Active; 'I' for Inactive)
REMARK    1  A    between atoms: C_1  and  C_2
REMARK    2  A    between atoms: C_2  and  C_3
REMARK    3  A    between atoms: C_2  and  C_4
REMARK    4  A    between atoms: C_14  and  C_16
REMARK    5  A    between atoms: N_21  and  S_23
REMARK    6  A    between atoms: S_23  and  C_26
REMARK    7  A    between atoms: C_29  and  O_32
REMARK    8  A    between atoms: O_32  and  C_33
REMARK                            x       y       z     vdW  Elec       q    Type
REMARK                         _______ _______ _______ _____ _____    ______ ____
ROOT
ATOM      1  C   UNL     1      -0.346   3.007   3.448  0.00  0.00    +0.091 C 
ATOM      2  C   UNL     1      -1.456   2.180   4.104  0.00  0.00    +0.015 C 
ATOM      3  C   UNL     1      -1.521   0.799   3.447  0.00  0.00    +0.018 C 
ATOM      4  C   UNL     1      -1.852   0.960   1.960  0.00  0.00    +0.109 C 
ATOM      5  N   UNL     1      -0.872   1.871   1.353  0.00  0.00    -0.176 NA
ATOM      6  C   UNL     1      -0.660   3.190   1.965  0.00  0.00    +0.122 C 
ENDROOT
BRANCH   1  17
ATOM      7  C   UNL     1       0.636   7.660   9.094  0.00  0.00    -0.018 A 
ATOM      8  C   UNL     1       0.646   8.996   9.400  0.00  0.00    +0.006 A 
ATOM      9  C   UNL     1       0.409   9.963   8.435  0.00  0.00    +0.001 A 
ATOM     10  C   UNL     1       0.156   9.572   7.132  0.00  0.00    +0.017 A 
ATOM     11  C   UNL     1       0.143   8.237   6.816  0.00  0.00    +0.041 A 
ATOM     12  C   UNL     1       0.381   7.224   7.773  0.00  0.00    +0.084 A 
ATOM     13  N   UNL     1       0.329   5.957   7.309  0.00  0.00    -0.224 NA
ATOM     14  C   UNL     1       0.086   5.676   6.050  0.00  0.00    +0.165 A 
ATOM     15  S   UNL     1      -0.127   7.299   5.331  0.00  0.00    -0.052 S 
ATOM     16  N   UNL     1       0.007   4.437   5.435  0.00  0.00    -0.264 N 
ATOM     17  C   UNL     1      -0.261   4.354   4.117  0.00  0.00    +0.223 C 
ATOM     18  O   UNL     1      -0.434   5.365   3.469  0.00  0.00    -0.275 OA
ATOM     19  H   UNL     1       0.146   3.629   5.953  0.00  0.00    +0.157 HD
BRANCH   7  21
ATOM     20  C   UNL     1       2.289   6.882  10.770  0.00  0.00    +0.012 C 
ATOM     21  C   UNL     1       0.899   6.645  10.176  0.00  0.00    +0.015 C 
ATOM     22  C   UNL     1      -0.156   6.785  11.274  0.00  0.00    +0.012 C 
ENDBRANCH   7  21
ENDBRANCH   1  17
BRANCH   5  23
ATOM     23  S   UNL     1      -0.017   1.417   0.010  0.00  0.00    +0.061 S 
ATOM     24  O   UNL     1       0.002  -0.004   0.002  0.00  0.00    -0.153 OA
ATOM     25  O   UNL     1       1.172   2.195   0.003  0.00  0.00    -0.153 OA
BRANCH  23  26
ATOM     26  C   UNL     1      -0.954   1.915  -1.397  0.00  0.00    +0.106 A 
ATOM     27  C   UNL     1      -1.879   1.051  -1.952  0.00  0.00    +0.032 A 
ATOM     28  C   UNL     1      -2.619   1.442  -3.051  0.00  0.00    +0.047 A 
ATOM     29  C   UNL     1      -2.424   2.698  -3.605  0.00  0.00    +0.120 A 
ATOM     30  C   UNL     1      -1.491   3.562  -3.050  0.00  0.00    +0.047 A 
ATOM     31  C   UNL     1      -0.758   3.168  -1.948  0.00  0.00    +0.032 A 
BRANCH  29  32
ATOM     32  O   UNL     1      -3.147   3.083  -4.690  0.00  0.00    -0.495 OA
ATOM     33  C   UNL     1      -4.090   2.143  -5.208  0.00  0.00    +0.277 C 
ENDBRANCH  29  32
ENDBRANCH  23  26
ENDBRANCH   5  23
TORSDOF 5
