REMARK  Name = ZINC13552697
REMARK  10 active torsions:
REMARK  status: ('A' for Active; 'I' for Inactive)
REMARK    1  A    between atoms: C_1  and  C_2
REMARK    2  A    between atoms: C_2  and  C_4
REMARK    3  A    between atoms: C_2  and  S_7
REMARK    4  A    between atoms: S_7  and  C_8
REMARK    5  A    between atoms: C_17  and  C_20
REMARK    6  A    between atoms: C_20  and  C_21
REMARK    7  A    between atoms: C_20  and  C_22
REMARK    8  A    between atoms: N_25  and  C_26
REMARK    9  A    between atoms: C_29  and  O_32
REMARK   10  A    between atoms: O_32  and  C_33
REMARK                            x       y       z     vdW  Elec       q    Type
REMARK                         _______ _______ _______ _____ _____    ______ ____
ROOT
ATOM      1  C   UNL     1       0.115   0.539  -3.052  0.00  0.00    +0.178 A 
ATOM      2  N   UNL     1      -0.980   1.224  -2.791  0.00  0.00    -0.215 NA
ATOM      3  C   UNL     1      -2.069   1.076  -3.536  0.00  0.00    +0.117 A 
ATOM      4  C   UNL     1      -2.113   0.193  -4.630  0.00  0.00    +0.076 A 
ATOM      5  C   UNL     1      -3.381   0.141  -5.354  0.00  0.00    -0.018 A 
ATOM      6  C   UNL     1      -4.378   0.936  -4.907  0.00  0.00    +0.021 A 
ATOM      7  S   UNL     1      -3.694   1.790  -3.515  0.00  0.00    -0.071 S 
ATOM      8  C   UNL     1      -5.753   1.045  -5.489  0.00  0.00    +0.203 C 
ATOM      9  O   UNL     1      -5.938  -0.056  -6.393  0.00  0.00    -0.371 OA
ATOM     10  C   UNL     1      -4.853  -0.232  -7.308  0.00  0.00    +0.126 C 
ATOM     11  C   UNL     1      -3.619  -0.755  -6.567  0.00  0.00    +0.068 C 
ATOM     12  C   UNL     1      -0.910  -0.537  -4.890  0.00  0.00    +0.268 A 
ATOM     13  O   UNL     1      -0.855  -1.326  -5.818  0.00  0.00    -0.267 OA
ATOM     14  N   UNL     1       0.161  -0.338  -4.100  0.00  0.00    -0.255 N 
ENDROOT
BRANCH  14  15
ATOM     15  C   UNL     1       1.344  -1.046  -4.353  0.00  0.00    +0.052 A 
ATOM     16  C   UNL     1       2.305  -0.512  -5.201  0.00  0.00    +0.030 A 
ATOM     17  C   UNL     1       3.470  -1.210  -5.450  0.00  0.00    +0.047 A 
ATOM     18  C   UNL     1       3.681  -2.445  -4.854  0.00  0.00    +0.120 A 
ATOM     19  C   UNL     1       2.720  -2.979  -4.007  0.00  0.00    +0.047 A 
ATOM     20  C   UNL     1       1.558  -2.279  -3.752  0.00  0.00    +0.030 A 
BRANCH  18  21
ATOM     21  O   UNL     1       4.828  -3.132  -5.100  0.00  0.00    -0.495 OA
ATOM     22  C   UNL     1       4.978  -4.397  -4.452  0.00  0.00    +0.277 C 
ENDBRANCH  18  21
ENDBRANCH  14  15
BRANCH  10  23
ATOM     23  C   UNL     1      -5.258  -1.238  -8.387  0.00  0.00    +0.012 C 
ATOM     24  C   UNL     1      -6.482  -0.714  -9.140  0.00  0.00    +0.010 C 
ATOM     25  C   UNL     1      -4.098  -1.428  -9.367  0.00  0.00    +0.010 C 
ENDBRANCH  10  23
BRANCH   1  26
ATOM     26  S   UNL     1       1.542   0.761  -2.042  0.00  0.00    -0.073 S 
BRANCH  26  28
ATOM     27  C   UNL     1       0.729   3.318  -1.510  0.00  0.00    +0.031 C 
ATOM     28  C   UNL     1       1.021   1.989  -0.812  0.00  0.00    +0.164 C 
BRANCH  28  29
ATOM     29  C   UNL     1       2.120   2.183   0.201  0.00  0.00    +0.369 C 
ATOM     30  O   UNL     1       1.853   2.579   1.322  0.00  0.00    -0.245 OA
ATOM     31  O   UNL     1       3.277   1.944  -0.102  0.00  0.00    -0.245 OA
ENDBRANCH  28  29
ENDBRANCH  26  28
ENDBRANCH   1  26
TORSDOF 6
