REMARK  Name = ZINC67021953
REMARK  6 active torsions:
REMARK  status: ('A' for Active; 'I' for Inactive)
REMARK    1  A    between atoms: C_1  and  C_2
REMARK    2  A    between atoms: N_4  and  C_5
REMARK    3  A    between atoms: C_5  and  C_6
REMARK    4  A    between atoms: C_9  and  C_11
REMARK    5  A    between atoms: C_11  and  N_13
REMARK    6  A    between atoms: N_15  and  C_23
REMARK                            x       y       z     vdW  Elec       q    Type
REMARK                         _______ _______ _______ _____ _____    ______ ____
ROOT
ATOM      1  C   UNL     1      -1.029  -3.951  -6.356  0.00  0.00    +0.276 C 
ATOM      2  O   UNL     1      -0.255  -4.183  -7.270  0.00  0.00    -0.267 OA
ENDROOT
BRANCH   1   3
ATOM      3  N   UNL     1      -2.351  -4.024  -6.563  0.00  0.00    -0.152 NA
ATOM      4  C   UNL     1      -3.049  -2.919  -6.792  0.00  0.00    +0.166 A 
ATOM      5  N   UNL     1      -2.596  -1.649  -6.998  0.00  0.00    -0.324 N 
ATOM      6  C   UNL     1      -3.490  -0.618  -7.222  0.00  0.00    +0.057 A 
ATOM      7  C   UNL     1      -3.193   0.738  -7.449  0.00  0.00    +0.027 A 
ATOM      8  C   UNL     1      -4.196   1.654  -7.657  0.00  0.00    +0.002 A 
ATOM      9  C   UNL     1      -5.528   1.276  -7.650  0.00  0.00    +0.001 A 
ATOM     10  C   UNL     1      -5.850  -0.052  -7.428  0.00  0.00    +0.017 A 
ATOM     11  C   UNL     1      -4.848  -0.969  -7.221  0.00  0.00    +0.039 A 
ATOM     12  S   UNL     1      -4.819  -2.719  -6.915  0.00  0.00    -0.052 S 
ATOM     13  C   UNL     1      -1.157  -1.377  -6.981  0.00  0.00    +0.151 C 
ENDBRANCH   1   3
BRANCH   1  17
ATOM     14  C   UNL     1      -0.114  -2.917  -2.510  0.00  0.00    +0.008 A 
ATOM     15  C   UNL     1       0.977  -3.109  -3.291  0.00  0.00    +0.013 A 
ATOM     16  C   UNL     1       0.802  -3.461  -4.609  0.00  0.00    +0.021 A 
ATOM     17  C   UNL     1      -0.511  -3.591  -5.028  0.00  0.00    +0.076 A 
ATOM     18  S   UNL     1      -1.411  -3.215  -3.535  0.00  0.00    -0.087 S 
BRANCH  14  19
ATOM     19  C   UNL     1      -0.154  -2.531  -1.054  0.00  0.00    +0.146 C 
BRANCH  19  23
ATOM     20  C   UNL     1      -0.273   1.008   0.401  0.00  0.00    +0.109 C 
ATOM     21  C   UNL     1      -0.233  -0.493   0.280  0.00  0.00    +0.210 C 
ATOM     22  O   UNL     1      -0.237  -1.182   1.278  0.00  0.00    -0.276 OA
ATOM     23  N   UNL     1      -0.193  -1.071  -0.937  0.00  0.00    -0.311 N 
ATOM     24  H   UNL     1      -0.190  -0.520  -1.735  0.00  0.00    +0.149 HD
ENDBRANCH  19  23
ENDBRANCH  14  19
ENDBRANCH   1  17
TORSDOF 4
