REMARK  Name = ZINC66588557
REMARK  8 active torsions:
REMARK  status: ('A' for Active; 'I' for Inactive)
REMARK    1  A    between atoms: C_1  and  C_2
REMARK    2  A    between atoms: C_4  and  N_23
REMARK    3  A    between atoms: C_7  and  S_8
REMARK    4  A    between atoms: S_8  and  N_11
REMARK    5  A    between atoms: N_11  and  N_12
REMARK    6  A    between atoms: C_13  and  C_15
REMARK    7  A    between atoms: C_15  and  C_16
REMARK    8  A    between atoms: C_16  and  C_17
REMARK                            x       y       z     vdW  Elec       q    Type
REMARK                         _______ _______ _______ _____ _____    ______ ____
ROOT
ATOM      1  N   UNL     1       1.176   1.029   2.916  0.00  0.00    -0.108 NA
ATOM      2  H   UNL     1       1.835   0.904   3.617  0.00  0.00    +0.172 HD
ENDROOT
BRANCH   1   3
ATOM      3  N   UNL     1       1.266   2.135   2.060  0.00  0.00    -0.232 N 
ATOM      4  C   UNL     1       1.315   3.381   2.571  0.00  0.00    +0.228 C 
ATOM      5  O   UNL     1       1.281   3.545   3.772  0.00  0.00    -0.274 OA
ATOM      6  H   UNL     1       1.293   2.003   1.099  0.00  0.00    +0.171 HD
BRANCH   4   7
ATOM      7  C   UNL     1       1.411   4.570   1.650  0.00  0.00    +0.097 C 
BRANCH   7   8
ATOM      8  C   UNL     1       1.450   5.855   2.479  0.00  0.00    +0.013 C 
BRANCH   8   9
ATOM      9  C   UNL     1       1.548   7.062   1.544  0.00  0.00    -0.011 C 
ATOM     10  C   UNL     1       0.273   7.161   0.704  0.00  0.00    +0.003 C 
ATOM     11  C   UNL     1       0.371   8.368  -0.232  0.00  0.00    +0.000 C 
ATOM     12  C   UNL     1       0.536   9.643   0.597  0.00  0.00    +0.000 C 
ATOM     13  C   UNL     1       1.810   9.544   1.437  0.00  0.00    +0.000 C 
ATOM     14  C   UNL     1       1.713   8.338   2.373  0.00  0.00    +0.003 C 
ENDBRANCH   8   9
ENDBRANCH   7   8
ENDBRANCH   4   7
ENDBRANCH   1   3
BRANCH   1  15
ATOM     15  S   UNL     1      -0.054  -0.063   2.732  0.00  0.00    +0.074 S 
ATOM     16  O   UNL     1      -1.266   0.679   2.773  0.00  0.00    -0.152 OA
ATOM     17  O   UNL     1       0.215  -1.133   3.628  0.00  0.00    -0.152 OA
BRANCH  15  24
ATOM     18  C   UNL     1       2.262  -1.749   1.763  0.00  0.00    +0.046 C 
ATOM     19  C   UNL     1       1.175  -1.486   0.753  0.00  0.00    -0.022 A 
ATOM     20  C   UNL     1       1.274  -2.010  -0.522  0.00  0.00    +0.038 A 
ATOM     21  C   UNL     1       0.277  -1.768  -1.448  0.00  0.00    +0.127 A 
ATOM     22  C   UNL     1      -0.820  -1.002  -1.099  0.00  0.00    +0.034 A 
ATOM     23  C   UNL     1      -0.920  -0.479   0.176  0.00  0.00    +0.031 A 
ATOM     24  C   UNL     1       0.076  -0.725   1.104  0.00  0.00    +0.110 A 
BRANCH  21  25
ATOM     25  N   UNL     1       0.384  -2.328  -2.814  0.00  0.00    +0.056 N 
ATOM     26  O   UNL     1       1.343  -2.997  -3.120  0.00  0.00    -0.126 OA
ATOM     27  O   UNL     1      -0.488  -2.116  -3.624  0.00  0.00    -0.126 OA
ENDBRANCH  21  25
ENDBRANCH  15  24
ENDBRANCH   1  15
TORSDOF 7
