REMARK  Name = ZINC65265834
REMARK  6 active torsions:
REMARK  status: ('A' for Active; 'I' for Inactive)
REMARK    1  A    between atoms: C_1  and  O_2
REMARK    2  A    between atoms: O_2  and  C_3
REMARK    3  A    between atoms: C_3  and  C_4
REMARK    4  A    between atoms: C_4  and  N_5
REMARK    5  A    between atoms: N_19  and  S_21
REMARK    6  A    between atoms: S_21  and  C_24
REMARK                            x       y       z     vdW  Elec       q    Type
REMARK                         _______ _______ _______ _____ _____    ______ ____
ROOT
ATOM      1  N   UNL     1       1.401  -2.532  -0.162  0.00  0.00    -0.373 N 
ATOM      2  C   UNL     1       1.501  -3.788  -0.450  0.00  0.00    +0.094 C 
ATOM      3  N   UNL     1       0.896  -4.756   0.316  0.00  0.00    -0.303 N 
ATOM      4  C   UNL     1      -0.394  -5.162  -0.010  0.00  0.00    +0.037 A 
ATOM      5  C   UNL     1      -1.349  -5.305   0.987  0.00  0.00    +0.023 A 
ATOM      6  C   UNL     1      -2.626  -5.722   0.670  0.00  0.00    +0.002 A 
ATOM      7  C   UNL     1      -2.943  -5.997  -0.647  0.00  0.00    +0.000 A 
ATOM      8  C   UNL     1      -1.997  -5.849  -1.638  0.00  0.00    +0.007 A 
ATOM      9  C   UNL     1      -0.707  -5.422  -1.338  0.00  0.00    -0.012 A 
ATOM     10  C   UNL     1       0.243  -5.258  -2.497  0.00  0.00    +0.119 C 
ATOM     11  N   UNL     1       1.642  -5.505  -2.123  0.00  0.00    -0.299 NA
ATOM     12  C   UNL     1       2.273  -4.263  -1.634  0.00  0.00    +0.089 C 
ATOM     13  C   UNL     1       3.753  -4.511  -1.296  0.00  0.00    +0.048 C 
ATOM     14  C   UNL     1       4.450  -4.345  -2.665  0.00  0.00    +0.112 C 
ATOM     15  N   UNL     1       3.549  -3.557  -3.522  0.00  0.00    -0.174 NA
ATOM     16  C   UNL     1       2.341  -3.209  -2.747  0.00  0.00    +0.139 C 
ATOM     17  H   UNL     1       1.835  -1.870  -0.723  0.00  0.00    +0.161 HD
ATOM     18  H   UNL     1       1.709  -6.242  -1.438  0.00  0.00    +0.123 HD
ATOM     19  H   UNL     1       1.361  -5.149   1.071  0.00  0.00    +0.153 HD
ENDROOT
BRANCH  15  20
ATOM     20  S   UNL     1       3.842  -3.132  -5.095  0.00  0.00    +0.061 S 
ATOM     21  O   UNL     1       3.062  -1.973  -5.355  0.00  0.00    -0.153 OA
ATOM     22  O   UNL     1       5.253  -3.156  -5.266  0.00  0.00    -0.153 OA
BRANCH  20  23
ATOM     23  C   UNL     1       3.190  -4.416  -6.111  0.00  0.00    +0.107 A 
ATOM     24  C   UNL     1       3.986  -5.490  -6.463  0.00  0.00    +0.028 A 
ATOM     25  C   UNL     1       3.475  -6.497  -7.260  0.00  0.00    +0.003 A 
ATOM     26  C   UNL     1       2.168  -6.430  -7.707  0.00  0.00    +0.020 A 
ATOM     27  C   UNL     1       1.372  -5.355  -7.355  0.00  0.00    +0.043 A 
ATOM     28  C   UNL     1       1.882  -4.350  -6.552  0.00  0.00    +0.048 A 
ATOM     29 CL   UNL     1      -0.269  -5.270  -7.916  0.00  0.00    -0.083 Cl
ENDBRANCH  20  23
ENDBRANCH  15  20
BRANCH   1  30
ATOM     30  C   UNL     1       0.633  -2.108   1.011  0.00  0.00    +0.141 C 
BRANCH  30  31
ATOM     31  C   UNL     1       0.673  -0.582   1.123  0.00  0.00    +0.180 C 
BRANCH  31  33
ATOM     32  C   UNL     1      -0.017   1.425   0.010  0.00  0.00    +0.194 C 
ATOM     33  O   UNL     1       0.002  -0.004   0.002  0.00  0.00    -0.381 OA
ENDBRANCH  31  33
ENDBRANCH  30  31
ENDBRANCH   1  30
TORSDOF 5
