REMARK  Name = ZINC63068284
REMARK  11 active torsions:
REMARK  status: ('A' for Active; 'I' for Inactive)
REMARK    1  A    between atoms: C_1  and  C_2
REMARK    2  A    between atoms: C_3  and  C_9
REMARK    3  A    between atoms: C_4  and  C_8
REMARK    4  A    between atoms: N_5  and  C_7
REMARK    5  A    between atoms: C_9  and  C_10
REMARK    6  A    between atoms: C_9  and  N_11
REMARK    7  A    between atoms: N_14  and  C_15
REMARK    8  A    between atoms: C_15  and  C_16
REMARK    9  A    between atoms: C_21  and  C_22
REMARK   10  A    between atoms: C_22  and  N_23
REMARK   11  A    between atoms: C_26  and  C_29
REMARK                            x       y       z     vdW  Elec       q    Type
REMARK                         _______ _______ _______ _____ _____    ______ ____
ROOT
ATOM      1  N   UNL     1      -0.616   0.845  -2.745  0.00  0.00    -0.293 N 
ATOM      2  C   UNL     1      -1.168   1.100  -3.947  0.00  0.00    +0.300 C 
ATOM      3  O   UNL     1      -0.975   0.342  -4.878  0.00  0.00    -0.253 OA
ATOM      4  N   UNL     1      -1.935   2.195  -4.118  0.00  0.00    -0.295 N 
ATOM      5  H   UNL     1      -0.769   1.450  -2.002  0.00  0.00    +0.151 HD
ATOM      6  H   UNL     1      -2.088   2.800  -3.375  0.00  0.00    +0.151 HD
ENDROOT
BRANCH   1   7
ATOM      7  C   UNL     1       0.218  -0.346  -2.559  0.00  0.00    +0.105 C 
ATOM      8  C   UNL     1       1.648  -0.043  -3.010  0.00  0.00    +0.033 C 
BRANCH   7  11
ATOM      9  C   UNL     1      -0.183  -3.272  -1.411  0.00  0.00    +0.068 C 
ATOM     10  C   UNL     1       0.045  -2.025  -0.595  0.00  0.00    +0.065 A 
ATOM     11  C   UNL     1       0.222  -0.734  -1.103  0.00  0.00    +0.016 A 
ATOM     12  C   UNL     1       0.398   0.105  -0.056  0.00  0.00    +0.041 A 
ATOM     13  N   UNL     1       0.335  -0.630   1.075  0.00  0.00    -0.271 N 
ATOM     14  N   UNL     1       0.108  -1.963   0.710  0.00  0.00    -0.176 NA
ATOM     15  C   UNL     1       0.474  -0.121   2.442  0.00  0.00    +0.172 C 
ATOM     16  C   UNL     1       0.624   1.592  -0.137  0.00  0.00    +0.065 C 
ENDBRANCH   7  11
ENDBRANCH   1   7
BRANCH   4  17
ATOM     17  C   UNL     1      -2.535   2.473  -5.425  0.00  0.00    +0.141 C 
BRANCH  17  18
ATOM     18  C   UNL     1      -3.338   3.746  -5.349  0.00  0.00    -0.029 A 
ATOM     19  C   UNL     1      -4.712   3.689  -5.201  0.00  0.00    +0.005 A 
ATOM     20  C   UNL     1      -5.448   4.857  -5.132  0.00  0.00    +0.000 A 
ATOM     21  C   UNL     1      -4.810   6.082  -5.209  0.00  0.00    +0.000 A 
ATOM     22  C   UNL     1      -3.437   6.138  -5.355  0.00  0.00    +0.002 A 
ATOM     23  C   UNL     1      -2.700   4.970  -5.421  0.00  0.00    -0.059 A 
BRANCH  23  24
ATOM     24  C   UNL     1      -1.203   5.032  -5.575  0.00  0.00    -0.043 C 
BRANCH  24  25
ATOM     25  N   UNL     1      -0.846   4.804  -6.982  0.00  0.00    +0.382 N 
ATOM     26  C   UNL     1      -1.374   5.900  -7.803  0.00  0.00    -0.078 C 
ATOM     27  C   UNL     1      -1.075   5.627  -9.278  0.00  0.00    -0.016 C 
ATOM     28  C   UNL     1       0.440   5.524  -9.476  0.00  0.00    -0.018 C 
ATOM     29  C   UNL     1       0.991   4.428  -8.560  0.00  0.00    -0.016 C 
ATOM     30  C   UNL     1       0.615   4.745  -7.111  0.00  0.00    -0.078 C 
ATOM     31  C   UNL     1       0.743   5.173 -10.934  0.00  0.00    +0.007 C 
ATOM     32  H   UNL     1      -1.245   3.931  -7.292  0.00  0.00    -0.081 HD
ENDBRANCH  24  25
ENDBRANCH  23  24
ENDBRANCH  17  18
ENDBRANCH   4  17
TORSDOF 6
