REMARK  Name = ZINC65963089
REMARK  7 active torsions:
REMARK  status: ('A' for Active; 'I' for Inactive)
REMARK    1  A    between atoms: C_1  and  C_2
REMARK    2  A    between atoms: C_3  and  C_27
REMARK    3  A    between atoms: C_8  and  C_10
REMARK    4  A    between atoms: C_10  and  C_11
REMARK    5  A    between atoms: C_10  and  N_12
REMARK    6  A    between atoms: C_15  and  N_18
REMARK    7  A    between atoms: C_19  and  C_21
REMARK                            x       y       z     vdW  Elec       q    Type
REMARK                         _______ _______ _______ _____ _____    ______ ____
ROOT
ATOM      1  N   UNL     1       0.189  -2.597   5.865  0.00  0.00    +0.387 N 
ATOM      2  C   UNL     1       0.336  -3.526   6.992  0.00  0.00    -0.076 C 
ATOM      3  C   UNL     1       0.539  -2.735   8.287  0.00  0.00    +0.004 C 
ATOM      4  C   UNL     1      -0.675  -1.832   8.522  0.00  0.00    +0.069 C 
ATOM      5  C   UNL     1      -0.864  -0.918   7.308  0.00  0.00    +0.004 C 
ATOM      6  C   UNL     1      -1.015  -1.777   6.050  0.00  0.00    -0.076 C 
ATOM      7  H   UNL     1       0.999  -1.998   5.817  0.00  0.00    -0.081 HD
ENDROOT
BRANCH   4   8
ATOM      8  N   UNL     1      -0.454  -1.016   9.719  0.00  0.00    -0.312 N 
ATOM      9  C   UNL     1      -1.506  -0.539  10.413  0.00  0.00    +0.216 C 
ATOM     10  O   UNL     1      -2.636  -0.785  10.048  0.00  0.00    -0.276 OA
ATOM     11  H   UNL     1       0.450  -0.819  10.011  0.00  0.00    +0.149 HD
BRANCH   9  12
ATOM     12  C   UNL     1      -1.278   0.300  11.644  0.00  0.00    +0.075 C 
ATOM     13  C   UNL     1      -0.491  -0.510  12.676  0.00  0.00    +0.013 C 
ATOM     14  C   UNL     1      -0.260   0.342  13.925  0.00  0.00    +0.001 C 
ATOM     15  C   UNL     1      -1.609   0.751  14.520  0.00  0.00    +0.000 C 
ATOM     16  C   UNL     1      -2.396   1.562  13.488  0.00  0.00    +0.001 C 
ATOM     17  C   UNL     1      -2.627   0.710  12.239  0.00  0.00    +0.013 C 
ENDBRANCH   9  12
ENDBRANCH   4   8
BRANCH   1  18
ATOM     18  C   UNL     1       0.072  -3.361   4.616  0.00  0.00    +0.016 C 
ATOM     19  C   UNL     1       1.299  -4.259   4.451  0.00  0.00    -0.004 C 
BRANCH  18  27
ATOM     20  C   UNL     1       0.138   1.433  -0.063  0.00  0.00    +0.066 C 
ATOM     21  C   UNL     1      -0.408   0.033   0.054  0.00  0.00    +0.050 A 
ATOM     22  C   UNL     1      -1.086  -0.550  -0.965  0.00  0.00    +0.011 A 
ATOM     23  S   UNL     1      -1.460  -2.142  -0.248  0.00  0.00    -0.057 S 
ATOM     24  C   UNL     1      -0.728  -1.901   1.247  0.00  0.00    +0.165 A 
ATOM     25  N   UNL     1      -0.244  -0.682   1.151  0.00  0.00    -0.230 NA
ATOM     26  N   UNL     1      -0.648  -2.780   2.322  0.00  0.00    -0.266 N 
ATOM     27  C   UNL     1      -0.014  -2.408   3.451  0.00  0.00    +0.205 C 
ATOM     28  O   UNL     1       0.488  -1.307   3.530  0.00  0.00    -0.277 OA
ATOM     29  C   UNL     1      -1.429  -0.005  -2.328  0.00  0.00    +0.053 C 
ATOM     30  H   UNL     1      -1.050  -3.661   2.259  0.00  0.00    +0.157 HD
ENDBRANCH  18  27
ENDBRANCH   1  18
TORSDOF 4
