REMARK  Name = ZINC51414075
REMARK  7 active torsions:
REMARK  status: ('A' for Active; 'I' for Inactive)
REMARK    1  A    between atoms: C_1  and  C_2
REMARK    2  A    between atoms: C_7  and  N_8
REMARK    3  A    between atoms: C_9  and  C_26
REMARK    4  A    between atoms: C_10  and  C_13
REMARK    5  A    between atoms: N_15  and  C_16
REMARK    6  A    between atoms: C_16  and  C_17
REMARK    7  A    between atoms: N_19  and  C_20
REMARK                            x       y       z     vdW  Elec       q    Type
REMARK                         _______ _______ _______ _____ _____    ______ ____
ROOT
ATOM      1  N   UNL     1       0.115   0.112   2.344  0.00  0.00    -0.227 N 
ATOM      2  C   UNL     1       0.377  -0.370   3.572  0.00  0.00    +0.159 A 
ATOM      3  C   UNL     1       0.435   0.708   4.434  0.00  0.00    +0.086 A 
ATOM      4  C   UNL     1       0.194   1.870   3.666  0.00  0.00    +0.148 A 
ATOM      5  N   UNL     1       0.011   1.505   2.427  0.00  0.00    -0.174 NA
ENDROOT
BRANCH   1  12
ATOM      6  C   UNL     1      -2.274   0.404   0.824  0.00  0.00    +0.046 C 
ATOM      7  C   UNL     1      -1.175  -0.540   0.406  0.00  0.00    -0.025 A 
ATOM      8  C   UNL     1      -1.309  -1.290  -0.746  0.00  0.00    +0.005 A 
ATOM      9  C   UNL     1      -0.301  -2.155  -1.129  0.00  0.00    +0.000 A 
ATOM     10  C   UNL     1       0.843  -2.274  -0.360  0.00  0.00    +0.002 A 
ATOM     11  C   UNL     1       0.981  -1.527   0.793  0.00  0.00    +0.028 A 
ATOM     12  C   UNL     1      -0.026  -0.652   1.177  0.00  0.00    +0.069 A 
ENDBRANCH   1  12
BRANCH   3  13
ATOM     13  C   UNL     1       0.698   0.655   5.883  0.00  0.00    +0.248 C 
ATOM     14  O   UNL     1       0.891  -0.414   6.428  0.00  0.00    -0.270 OA
ATOM     15  N   UNL     1       0.726   1.794   6.604  0.00  0.00    -0.303 N 
ATOM     16  H   UNL     1       0.573   2.647   6.170  0.00  0.00    +0.150 HD
BRANCH  15  17
ATOM     17  C   UNL     1       0.988   1.742   8.045  0.00  0.00    +0.200 C 
BRANCH  17  18
ATOM     18  C   UNL     1       0.965   3.139   8.610  0.00  0.00    +0.234 C 
ATOM     19  O   UNL     1       0.750   4.085   7.881  0.00  0.00    -0.274 OA
ATOM     20  N   UNL     1       1.182   3.337   9.925  0.00  0.00    -0.282 N 
ATOM     21  H   UNL     1       1.353   2.581  10.508  0.00  0.00    +0.155 HD
BRANCH  20  22
ATOM     22  C   UNL     1       1.160   4.642  10.453  0.00  0.00    +0.071 A 
ATOM     23  C   UNL     1       1.367   4.983  11.751  0.00  0.00    +0.128 A 
ATOM     24  N   UNL     1       1.261   6.333  11.842  0.00  0.00    -0.283 N 
ATOM     25  H   UNL     1       1.361   6.861  12.650  0.00  0.00    +0.188 HD
ATOM     26  N   UNL     1       0.981   6.830  10.562  0.00  0.00    -0.180 NA
ATOM     27  C   UNL     1       0.927   5.821   9.731  0.00  0.00    +0.157 A 
ENDBRANCH  20  22
ENDBRANCH  17  18
ENDBRANCH  15  17
ENDBRANCH   3  13
BRANCH   2  28
ATOM     28  C   UNL     1       0.571  -1.818   3.940  0.00  0.00    +0.435 C 
ATOM     29  F   UNL     1       1.939  -2.106   3.998  0.00  0.00    -0.164 F 
ATOM     30  F   UNL     1      -0.010  -2.064   5.189  0.00  0.00    -0.164 F 
ATOM     31  F   UNL     1      -0.036  -2.630   2.976  0.00  0.00    -0.164 F 
ENDBRANCH   2  28
TORSDOF 6
