REMARK  Name = ZINC15276538
REMARK  12 active torsions:
REMARK  status: ('A' for Active; 'I' for Inactive)
REMARK    1  A    between atoms: C_1  and  C_2
REMARK    2  A    between atoms: C_3  and  C_31
REMARK    3  A    between atoms: C_4  and  C_20
REMARK    4  A    between atoms: C_10  and  C_15
REMARK    5  A    between atoms: C_22  and  N_28
REMARK    6  A    between atoms: C_24  and  O_26
REMARK    7  A    between atoms: O_26  and  C_27
REMARK    8  A    between atoms: C_31  and  O_33
REMARK    9  A    between atoms: O_33  and  C_34
REMARK   10  A    between atoms: C_34  and  C_35
REMARK   11  A    between atoms: C_35  and  O_36
REMARK   12  A    between atoms: O_36  and  C_37
REMARK                            x       y       z     vdW  Elec       q    Type
REMARK                         _______ _______ _______ _____ _____    ______ ____
ROOT
ATOM      1  C   UNL     1       3.170   3.155  -0.657  0.00  0.00    +0.061 C 
ATOM      2  C   UNL     1       1.752   2.652  -0.727  0.00  0.00    +0.031 C 
ATOM      3  C   UNL     1       1.437   1.464  -0.182  0.00  0.00    +0.154 C 
ATOM      4  C   UNL     1       0.031   0.937  -0.223  0.00  0.00    +0.074 C 
ATOM      5  C   UNL     1      -0.782   1.650  -1.273  0.00  0.00    +0.025 C 
ATOM      6  C   UNL     1      -0.376   2.837  -1.772  0.00  0.00    +0.049 C 
ATOM      7  N   UNL     1       0.794   3.407  -1.345  0.00  0.00    -0.260 NA
ATOM      8  C   UNL     1      -1.194   3.565  -2.809  0.00  0.00    +0.065 C 
ATOM      9  C   UNL     1      -1.945   2.554  -3.676  0.00  0.00    +0.039 C 
ATOM     10  C   UNL     1      -2.831   1.695  -2.767  0.00  0.00    +0.088 C 
ATOM     11  C   UNL     1      -1.972   1.046  -1.717  0.00  0.00    +0.162 C 
ATOM     12  O   UNL     1      -2.312  -0.019  -1.242  0.00  0.00    -0.292 OA
ENDROOT
BRANCH   4  13
ATOM     13  C   UNL     1      -0.618   1.134   1.123  0.00  0.00    -0.033 A 
ATOM     14  C   UNL     1      -0.769   2.409   1.636  0.00  0.00    +0.041 A 
ATOM     15  C   UNL     1      -1.365   2.596   2.869  0.00  0.00    +0.177 A 
ATOM     16  C   UNL     1      -1.812   1.503   3.595  0.00  0.00    +0.250 A 
ATOM     17  C   UNL     1      -1.661   0.220   3.078  0.00  0.00    +0.169 A 
ATOM     18  C   UNL     1      -1.067   0.041   1.839  0.00  0.00    +0.054 A 
ATOM     19  O   UNL     1      -2.399   1.685   4.808  0.00  0.00    -0.282 OA
BRANCH  15  20
ATOM     20  N   UNL     1      -1.524   3.962   3.416  0.00  0.00    +0.060 N 
ATOM     21  O   UNL     1      -1.130   4.922   2.778  0.00  0.00    -0.126 OA
ATOM     22  O   UNL     1      -2.048   4.126   4.503  0.00  0.00    -0.126 OA
ENDBRANCH  15  20
BRANCH  17  23
ATOM     23  O   UNL     1      -2.099  -0.856   3.786  0.00  0.00    -0.491 OA
ATOM     24  C   UNL     1      -1.910  -2.143   3.194  0.00  0.00    +0.277 C 
ENDBRANCH  17  23
ENDBRANCH   4  13
BRANCH   9  25
ATOM     25  C   UNL     1      -2.803   3.283  -4.678  0.00  0.00    -0.006 A 
ATOM     26  C   UNL     1      -2.776   3.219  -6.031  0.00  0.00    +0.011 A 
ATOM     27  C   UNL     1      -3.669   3.986  -6.756  0.00  0.00    +0.008 A 
ATOM     28  C   UNL     1      -4.545   4.779  -6.092  0.00  0.00    +0.045 A 
ATOM     29  S   UNL     1      -4.124   4.449  -4.389  0.00  0.00    -0.101 S 
ENDBRANCH   9  25
BRANCH   3  30
ATOM     30  C   UNL     1       2.447   0.699   0.445  0.00  0.00    +0.317 C 
ATOM     31  O   UNL     1       3.609   1.056   0.382  0.00  0.00    -0.250 OA
BRANCH  30  32
ATOM     32  O   UNL     1       2.124  -0.428   1.114  0.00  0.00    -0.462 OA
BRANCH  32  33
ATOM     33  C   UNL     1       3.195  -1.151   1.723  0.00  0.00    +0.260 C 
BRANCH  33  34
ATOM     34  C   UNL     1       2.638  -2.389   2.429  0.00  0.00    +0.200 C 
BRANCH  34  35
ATOM     35  O   UNL     1       2.083  -3.280   1.460  0.00  0.00    -0.380 OA
ATOM     36  C   UNL     1       1.532  -4.475   2.018  0.00  0.00    +0.194 C 
ENDBRANCH  34  35
ENDBRANCH  33  34
ENDBRANCH  32  33
ENDBRANCH  30  32
ENDBRANCH   3  30
TORSDOF 9
