REMARK  Name = ZINC12007574
REMARK  8 active torsions:
REMARK  status: ('A' for Active; 'I' for Inactive)
REMARK    1  A    between atoms: C_1  and  C_2
REMARK    2  A    between atoms: C_2  and  C_3
REMARK    3  A    between atoms: C_3  and  C_4
REMARK    4  A    between atoms: C_13  and  N_22
REMARK    5  A    between atoms: C_15  and  C_17
REMARK    6  A    between atoms: C_23  and  C_25
REMARK    7  A    between atoms: C_25  and  C_26
REMARK    8  A    between atoms: C_35  and  C_37
REMARK                            x       y       z     vdW  Elec       q    Type
REMARK                         _______ _______ _______ _____ _____    ______ ____
ROOT
ATOM      1  C   UNL     1      -3.894  -2.533  -5.349  0.00  0.00    +0.050 A 
ATOM      2  C   UNL     1      -4.950  -2.872  -6.142  0.00  0.00    +0.093 A 
ATOM      3  C   UNL     1      -6.245  -2.485  -5.751  0.00  0.00    +0.253 A 
ATOM      4  O   UNL     1      -7.214  -2.770  -6.436  0.00  0.00    -0.268 OA
ATOM      5  N   UNL     1      -6.395  -1.795  -4.600  0.00  0.00    -0.291 N 
ATOM      6  H   UNL     1      -7.279  -1.521  -4.309  0.00  0.00    +0.172 HD
ATOM      7  C   UNL     1      -5.303  -1.481  -3.853  0.00  0.00    +0.234 A 
ATOM      8  N   UNL     1      -4.096  -1.847  -4.225  0.00  0.00    -0.217 NA
ATOM      9  N   UNL     1      -5.465  -0.770  -2.680  0.00  0.00    -0.184 N 
ATOM     10  C   UNL     1      -4.468  -0.390  -1.828  0.00  0.00    +0.132 A 
ATOM     11  C   UNL     1      -5.041   0.282  -0.797  0.00  0.00    +0.077 A 
ATOM     12  C   UNL     1      -6.432   0.321  -1.028  0.00  0.00    +0.130 A 
ATOM     13  N   UNL     1      -6.681  -0.313  -2.156  0.00  0.00    -0.159 NA
ENDROOT
BRANCH  12  14
ATOM     14  C   UNL     1      -7.438   0.959  -0.153  0.00  0.00    +0.155 A 
ATOM     15  C   UNL     1      -8.779   0.994  -0.372  0.00  0.00    +0.051 A 
ATOM     16  C   UNL     1      -9.349   1.698   0.708  0.00  0.00    +0.042 A 
ATOM     17  C   UNL     1      -8.338   2.055   1.524  0.00  0.00    +0.196 A 
ATOM     18  O   UNL     1      -7.186   1.602   1.004  0.00  0.00    -0.461 OA
ENDBRANCH  12  14
BRANCH  10  19
ATOM     19  N   UNL     1      -3.108  -0.649  -1.985  0.00  0.00    -0.270 N 
ATOM     20  C   UNL     1      -2.228  -0.213  -1.063  0.00  0.00    +0.220 C 
ATOM     21  O   UNL     1      -2.619   0.406  -0.096  0.00  0.00    -0.275 OA
ATOM     22  H   UNL     1      -2.795  -1.144  -2.759  0.00  0.00    +0.156 HD
BRANCH  20  23
ATOM     23  C   UNL     1      -0.757  -0.493  -1.233  0.00  0.00    +0.122 C 
BRANCH  23  24
ATOM     24  C   UNL     1      -0.001  -0.027   0.013  0.00  0.00    +0.112 C 
ATOM     25  C   UNL     1      -0.521  -0.818   1.222  0.00  0.00    +0.103 C 
ATOM     26  S   UNL     1       1.019  -1.614   1.810  0.00  0.00    -0.086 S 
ATOM     27  C   UNL     1       2.156  -0.968   0.603  0.00  0.00    +0.172 A 
ATOM     28  N   UNL     1       1.432  -0.173  -0.233  0.00  0.00    -0.283 N 
ATOM     29  C   UNL     1       2.120   0.441  -1.248  0.00  0.00    +0.255 A 
ATOM     30  O   UNL     1       1.530   1.170  -2.029  0.00  0.00    -0.268 OA
ATOM     31  C   UNL     1       3.494   0.228  -1.394  0.00  0.00    +0.093 A 
ATOM     32  C   UNL     1       4.144  -0.586  -0.512  0.00  0.00    +0.046 A 
ATOM     33  N   UNL     1       3.451  -1.162   0.466  0.00  0.00    -0.228 NA
ATOM     34  C   UNL     1       5.626  -0.828  -0.644  0.00  0.00    +0.066 C 
ENDBRANCH  23  24
ENDBRANCH  20  23
ENDBRANCH  10  19
BRANCH   1  35
ATOM     35  C   UNL     1      -2.496  -2.936  -5.744  0.00  0.00    +0.055 C 
BRANCH  35  37
ATOM     36  C   UNL     1      -0.409  -2.195  -6.900  0.00  0.00    +0.004 C 
ATOM     37  C   UNL     1      -1.828  -1.786  -6.499  0.00  0.00    +0.003 C 
ENDBRANCH  35  37
ENDBRANCH   1  35
TORSDOF 6
