REMARK  Name = ZINC29192650
REMARK  12 active torsions:
REMARK  status: ('A' for Active; 'I' for Inactive)
REMARK    1  A    between atoms: C_1  and  C_2
REMARK    2  A    between atoms: C_2  and  N_3
REMARK    3  A    between atoms: N_3  and  C_4
REMARK    4  A    between atoms: N_3  and  C_6
REMARK    5  A    between atoms: C_4  and  C_5
REMARK    6  A    between atoms: C_6  and  C_8
REMARK    7  A    between atoms: C_6  and  C_28
REMARK    8  A    between atoms: C_8  and  N_9
REMARK    9  A    between atoms: C_10  and  C_12
REMARK   10  A    between atoms: C_12  and  N_13
REMARK   11  A    between atoms: C_16  and  C_20
REMARK   12  A    between atoms: C_16  and  C_21
REMARK                            x       y       z     vdW  Elec       q    Type
REMARK                         _______ _______ _______ _____ _____    ______ ____
ROOT
ATOM      1  N   UNL     1       6.194   3.052  -0.441  0.00  0.00    -0.315 N 
ATOM      2  C   UNL     1       5.156   3.908  -0.354  0.00  0.00    +0.231 C 
ATOM      3  O   UNL     1       4.149   3.707  -1.000  0.00  0.00    -0.274 OA
ATOM      4  H   UNL     1       7.107   3.234   0.144  0.00  0.00    +0.149 HD
ENDROOT
BRANCH   1   5
ATOM      5  C   UNL     1       6.106   1.880  -1.316  0.00  0.00    +0.093 C 
BRANCH   5   6
ATOM      6  C   UNL     1       7.408   1.081  -1.230  0.00  0.00    -0.020 C 
BRANCH   6   7
ATOM      7  C   UNL     1       7.391  -0.018  -2.262  0.00  0.00    -0.059 A 
ATOM      8  C   UNL     1       7.451   0.295  -3.607  0.00  0.00    +0.002 A 
ATOM      9  C   UNL     1       7.440  -0.713  -4.552  0.00  0.00    +0.000 A 
ATOM     10  C   UNL     1       7.360  -2.034  -4.153  0.00  0.00    +0.000 A 
ATOM     11  C   UNL     1       7.295  -2.347  -2.808  0.00  0.00    +0.000 A 
ATOM     12  C   UNL     1       7.310  -1.339  -1.863  0.00  0.00    +0.002 A 
ENDBRANCH   6   7
BRANCH   6  13
ATOM     13  N   UNL     1       8.547   1.973  -1.484  0.00  0.00    +0.385 N 
ATOM     14  H   UNL     1       8.401   2.885  -0.888  0.00  0.00    -0.081 HD
BRANCH  13  16
ATOM     15  C   UNL     1       9.804   1.188   0.466  0.00  0.00    -0.017 C 
ATOM     16  C   UNL     1       9.807   1.351  -1.055  0.00  0.00    -0.081 C 
ENDBRANCH  13  16
BRANCH  13  17
ATOM     17  C   UNL     1       8.607   2.362  -2.899  0.00  0.00    -0.081 C 
ATOM     18  C   UNL     1       7.352   3.159  -3.261  0.00  0.00    -0.017 C 
ENDBRANCH  13  17
ENDBRANCH   6  13
ENDBRANCH   5   6
ENDBRANCH   1   5
BRANCH   2  19
ATOM     19  C   UNL     1       5.247   5.113   0.545  0.00  0.00    +0.213 C 
BRANCH  19  20
ATOM     20  N   UNL     1       4.001   5.878   0.464  0.00  0.00    -0.215 N 
ATOM     21  C   UNL     1       3.778   6.871  -0.421  0.00  0.00    +0.251 C 
ATOM     22  O   UNL     1       4.542   7.282  -1.267  0.00  0.00    -0.272 OA
ATOM     23  C   UNL     1       2.373   7.365  -0.137  0.00  0.00    +0.135 C 
ATOM     24  N   UNL     1       1.925   6.513   0.979  0.00  0.00    -0.281 N 
ATOM     25  C   UNL     1       2.943   5.679   1.258  0.00  0.00    +0.310 C 
ATOM     26  O   UNL     1       2.905   4.838   2.135  0.00  0.00    -0.252 OA
ATOM     27  C   UNL     1       1.475   7.166  -1.360  0.00  0.00    +0.047 C 
ATOM     28  H   UNL     1       0.920   6.648   1.404  0.00  0.00    +0.152 HD
BRANCH  23  29
ATOM     29  C   UNL     1       2.394   8.814   0.277  0.00  0.00    -0.015 A 
ATOM     30  C   UNL     1       3.326   9.675  -0.272  0.00  0.00    +0.009 A 
ATOM     31  C   UNL     1       3.342  11.005   0.103  0.00  0.00    +0.039 A 
ATOM     32  C   UNL     1       2.433  11.473   1.036  0.00  0.00    +0.123 A 
ATOM     33  C   UNL     1       1.504  10.607   1.589  0.00  0.00    +0.039 A 
ATOM     34  C   UNL     1       1.485   9.279   1.209  0.00  0.00    +0.009 A 
ATOM     35  F   UNL     1       2.452  12.771   1.408  0.00  0.00    -0.205 F 
ENDBRANCH  23  29
ENDBRANCH  19  20
ENDBRANCH   2  19
TORSDOF 9
