REMARK  Name = ZINC20289262
REMARK  14 active torsions:
REMARK  status: ('A' for Active; 'I' for Inactive)
REMARK    1  A    between atoms: C_1  and  C_2
REMARK    2  A    between atoms: C_2  and  C_4
REMARK    3  A    between atoms: C_2  and  N_25
REMARK    4  A    between atoms: C_4  and  C_6
REMARK    5  A    between atoms: C_4  and  N_11
REMARK    6  A    between atoms: N_14  and  C_17
REMARK    7  A    between atoms: C_20  and  O_23
REMARK    8  A    between atoms: O_23  and  C_24
REMARK    9  A    between atoms: C_26  and  C_28
REMARK   10  A    between atoms: N_30  and  C_31
REMARK   11  A    between atoms: C_31  and  C_32
REMARK   12  A    between atoms: C_32  and  N_33
REMARK   13  A    between atoms: N_33  and  C_34
REMARK   14  A    between atoms: N_33  and  C_35
REMARK                            x       y       z     vdW  Elec       q    Type
REMARK                         _______ _______ _______ _____ _____    ______ ____
ROOT
ATOM      1  C   UNL     1      -1.416  -0.665  -0.050  0.00  0.00    +0.114 C 
ENDROOT
BRANCH   1   2
ATOM      2  N   UNL     1      -2.069  -0.258  -1.301  0.00  0.00    -0.290 NA
ATOM      3  C   UNL     1      -2.019   1.201  -1.470  0.00  0.00    +0.104 C 
ATOM      4  C   UNL     1      -2.545   1.569  -2.862  0.00  0.00    +0.120 C 
ATOM      5  N   UNL     1      -3.877   0.969  -3.031  0.00  0.00    -0.327 N 
ATOM      6  C   UNL     1      -4.036  -0.465  -2.746  0.00  0.00    +0.120 C 
ATOM      7  C   UNL     1      -3.451  -0.753  -1.359  0.00  0.00    +0.104 C 
BRANCH   5   8
ATOM      8  C   UNL     1      -4.964   1.742  -3.453  0.00  0.00    +0.030 A 
ATOM      9  C   UNL     1      -4.812   3.108  -3.646  0.00  0.00    +0.027 A 
ATOM     10  C   UNL     1      -5.886   3.871  -4.063  0.00  0.00    +0.047 A 
ATOM     11  C   UNL     1      -7.116   3.272  -4.288  0.00  0.00    +0.120 A 
ATOM     12  C   UNL     1      -7.269   1.907  -4.094  0.00  0.00    +0.047 A 
ATOM     13  C   UNL     1      -6.195   1.142  -3.683  0.00  0.00    +0.027 A 
BRANCH  11  14
ATOM     14  O   UNL     1      -8.173   4.023  -4.698  0.00  0.00    -0.495 OA
ATOM     15  C   UNL     1      -9.410   3.341  -4.910  0.00  0.00    +0.277 C 
ENDBRANCH  11  14
ENDBRANCH   5   8
ENDBRANCH   1   2
BRANCH   1  16
ATOM     16  C   UNL     1      -1.371  -2.170   0.026  0.00  0.00    +0.009 A 
ATOM     17  C   UNL     1      -1.580  -2.977   1.095  0.00  0.00    +0.013 A 
ATOM     18  C   UNL     1      -1.487  -4.346   0.930  0.00  0.00    +0.008 A 
ATOM     19  C   UNL     1      -1.191  -4.841  -0.297  0.00  0.00    +0.045 A 
ATOM     20  S   UNL     1      -1.039  -3.352  -1.270  0.00  0.00    -0.100 S 
ENDBRANCH   1  16
BRANCH   1  22
ATOM     21  C   UNL     1       0.697  -0.552   1.278  0.00  0.00    +0.030 C 
ATOM     22  C   UNL     1       0.010  -0.111  -0.015  0.00  0.00    +0.092 C 
BRANCH  22  23
ATOM     23  N   UNL     1       0.760  -0.620  -1.166  0.00  0.00    -0.303 N 
ATOM     24  C   UNL     1       1.815   0.071  -1.642  0.00  0.00    +0.299 C 
ATOM     25  O   UNL     1       2.142   1.115  -1.119  0.00  0.00    -0.265 OA
ATOM     26  H   UNL     1       0.498  -1.455  -1.584  0.00  0.00    +0.149 HD
BRANCH  24  27
ATOM     27  C   UNL     1       2.580  -0.449  -2.816  0.00  0.00    +0.299 C 
ATOM     28  O   UNL     1       2.253  -1.493  -3.340  0.00  0.00    -0.265 OA
ATOM     29  N   UNL     1       3.635   0.242  -3.292  0.00  0.00    -0.309 N 
ATOM     30  H   UNL     1       3.896   1.077  -2.874  0.00  0.00    +0.149 HD
BRANCH  29  31
ATOM     31  C   UNL     1       4.385  -0.267  -4.443  0.00  0.00    +0.086 C 
BRANCH  31  32
ATOM     32  C   UNL     1       5.523   0.699  -4.778  0.00  0.00    -0.061 C 
BRANCH  32  33
ATOM     33  N   UNL     1       6.275   0.189  -5.932  0.00  0.00    +0.377 N 
ATOM     34  C   UNL     1       5.408   0.182  -7.118  0.00  0.00    -0.097 C 
ATOM     35  C   UNL     1       7.437   1.052  -6.179  0.00  0.00    -0.097 C 
ATOM     36  H   UNL     1       6.589  -0.751  -5.739  0.00  0.00    -0.083 HD
ENDBRANCH  32  33
ENDBRANCH  31  32
ENDBRANCH  29  31
ENDBRANCH  24  27
ENDBRANCH  22  23
ENDBRANCH   1  22
TORSDOF 10
