REMARK  Name = ZINC65480481
REMARK  7 active torsions:
REMARK  status: ('A' for Active; 'I' for Inactive)
REMARK    1  A    between atoms: C_1  and  C_2
REMARK    2  A    between atoms: C_6  and  C_7
REMARK    3  A    between atoms: C_7  and  N_8
REMARK    4  A    between atoms: N_11  and  C_12
REMARK    5  A    between atoms: C_15  and  C_19
REMARK    6  A    between atoms: C_17  and  C_18
REMARK    7  A    between atoms: N_21  and  C_22
REMARK                            x       y       z     vdW  Elec       q    Type
REMARK                         _______ _______ _______ _____ _____    ______ ____
ROOT
ATOM      1  C   UNL     1      -3.053   0.949   6.059  0.00  0.00    +0.038 A 
ATOM      2  C   UNL     1      -1.960   1.274   6.856  0.00  0.00    +0.024 A 
ATOM      3  C   UNL     1      -2.150   1.655   8.165  0.00  0.00    +0.015 A 
ATOM      4  C   UNL     1      -3.443   1.715   8.693  0.00  0.00    +0.037 A 
ATOM      5  C   UNL     1      -4.538   1.388   7.890  0.00  0.00    +0.018 A 
ATOM      6  C   UNL     1      -4.342   1.012   6.580  0.00  0.00    -0.028 A 
ATOM      7  C   UNL     1      -5.523   0.665   5.711  0.00  0.00    +0.045 C 
ENDROOT
BRANCH   1  11
ATOM      8  N   UNL     1      -1.508   0.500   2.830  0.00  0.00    -0.295 N 
ATOM      9  C   UNL     1      -1.754   0.964   4.071  0.00  0.00    +0.304 C 
ATOM     10  O   UNL     1      -0.980   1.743   4.594  0.00  0.00    -0.252 OA
ATOM     11  N   UNL     1      -2.857   0.564   4.733  0.00  0.00    -0.269 N 
ATOM     12  H   UNL     1      -2.125  -0.121   2.413  0.00  0.00    +0.151 HD
ATOM     13  H   UNL     1      -3.515   0.007   4.287  0.00  0.00    +0.156 HD
BRANCH   8  14
ATOM     14  C   UNL     1      -0.308   0.935   2.110  0.00  0.00    +0.148 C 
BRANCH  14  20
ATOM     15  C   UNL     1      -1.520   2.025  -0.494  0.00  0.00    +0.044 C 
ATOM     16  C   UNL     1      -0.784   0.712  -0.421  0.00  0.00    -0.039 A 
ATOM     17  C   UNL     1      -0.620  -0.064  -1.553  0.00  0.00    +0.011 A 
ATOM     18  C   UNL     1       0.047  -1.240  -1.452  0.00  0.00    +0.046 A 
ATOM     19  S   UNL     1       0.468  -1.279   0.282  0.00  0.00    -0.100 S 
ATOM     20  C   UNL     1      -0.269   0.277   0.755  0.00  0.00    +0.010 A 
ENDBRANCH  14  20
ENDBRANCH   8  14
ENDBRANCH   1  11
BRANCH   4  21
ATOM     21  C   UNL     1      -3.650   2.123  10.096  0.00  0.00    +0.244 C 
ATOM     22  O   UNL     1      -4.775   2.174  10.555  0.00  0.00    -0.270 OA
ATOM     23  N   UNL     1      -2.592   2.437  10.870  0.00  0.00    -0.308 N 
ATOM     24  H   UNL     1      -1.695   2.396  10.504  0.00  0.00    +0.149 HD
BRANCH  23  25
ATOM     25  C   UNL     1      -2.798   2.842  12.263  0.00  0.00    +0.073 C 
ATOM     26  C   UNL     1      -3.033   4.364  12.342  0.00  0.00    +0.022 C 
ATOM     27  C   UNL     1      -2.312   4.793  13.644  0.00  0.00    +0.002 C 
ATOM     28  C   UNL     1      -1.044   3.903  13.642  0.00  0.00    +0.002 C 
ATOM     29  C   UNL     1      -1.534   2.549  13.089  0.00  0.00    +0.022 C 
ENDBRANCH  23  25
ENDBRANCH   4  21
TORSDOF 5
