REMARK  Name = ZINC06075559
REMARK  7 active torsions:
REMARK  status: ('A' for Active; 'I' for Inactive)
REMARK    1  A    between atoms: C_1  and  C_2
REMARK    2  A    between atoms: C_2  and  C_3
REMARK    3  A    between atoms: C_2  and  C_4
REMARK    4  A    between atoms: C_2  and  C_5
REMARK    5  A    between atoms: C_11  and  N_25
REMARK    6  A    between atoms: C_12  and  C_23
REMARK    7  A    between atoms: C_13  and  C_15
REMARK                            x       y       z     vdW  Elec       q    Type
REMARK                         _______ _______ _______ _____ _____    ______ ____
ROOT
ATOM      1  C   UNL     1       2.678   5.563  -3.227  0.00  0.00    +0.205 A 
ATOM      2  N   UNL     1       2.698   4.477  -2.503  0.00  0.00    -0.213 NA
ATOM      3  C   UNL     1       2.513   4.815  -1.224  0.00  0.00    +0.138 A 
ATOM      4  C   UNL     1       2.375   6.163  -1.168  0.00  0.00    +0.318 A 
ATOM      5  O   UNL     1       2.478   6.622  -2.421  0.00  0.00    -0.409 OA
ATOM      6  O   UNL     1       2.173   6.835  -0.008  0.00  0.00    -0.409 OA
ATOM      7  C   UNL     1       2.383   6.168   1.145  0.00  0.00    +0.202 C 
ATOM      8  C   UNL     1       2.523   4.825   1.218  0.00  0.00    +0.100 C 
ATOM      9  C   UNL     1       2.451   3.939  -0.000  0.00  0.00    +0.121 C 
ENDROOT
BRANCH   9  10
ATOM     10  C   UNL     1       1.157   3.167   0.008  0.00  0.00    -0.015 A 
ATOM     11  C   UNL     1      -0.050   3.842   0.024  0.00  0.00    +0.007 A 
ATOM     12  C   UNL     1      -1.238   3.135   0.032  0.00  0.00    +0.020 A 
ATOM     13  C   UNL     1      -1.220   1.751   0.017  0.00  0.00    +0.042 A 
ATOM     14  C   UNL     1      -0.013   1.076   0.008  0.00  0.00    +0.040 A 
ATOM     15  C   UNL     1       1.176   1.784   0.000  0.00  0.00    +0.046 A 
ATOM     16 CL   UNL     1       2.691   0.937  -0.018  0.00  0.00    -0.083 Cl
ATOM     17 CL   UNL     1      -2.711   0.864   0.020  0.00  0.00    -0.083 Cl
ENDBRANCH   9  10
BRANCH   1  19
ATOM     18  C   UNL     1       1.746   4.804  -5.396  0.00  0.00    +0.020 C 
ATOM     19  C   UNL     1       2.850   5.622  -4.723  0.00  0.00    +0.039 C 
ATOM     20  C   UNL     1       2.763   7.077  -5.189  0.00  0.00    +0.020 C 
ATOM     21  C   UNL     1       4.215   5.045  -5.102  0.00  0.00    +0.020 C 
ENDBRANCH   1  19
BRANCH   7  22
ATOM     22  N   UNL     1       2.459   6.892   2.309  0.00  0.00    -0.328 N 
ATOM     23  H   UNL     1       2.362   7.857   2.287  0.00  0.00    +0.145 HD
ATOM     24  H   UNL     1       2.609   6.439   3.153  0.00  0.00    +0.145 HD
ENDBRANCH   7  22
BRANCH   8  25
ATOM     25  C   UNL     1       2.747   4.223   2.498  0.00  0.00    +0.101 C 
ATOM     26  N   UNL     1       2.925   3.745   3.513  0.00  0.00    -0.191 NA
ENDBRANCH   8  25
TORSDOF 4
