REMARK  Name = ZINC29832773
REMARK  13 active torsions:
REMARK  status: ('A' for Active; 'I' for Inactive)
REMARK    1  A    between atoms: C_1  and  N_2
REMARK    2  A    between atoms: C_3  and  C_29
REMARK    3  A    between atoms: C_6  and  S_7
REMARK    4  A    between atoms: S_7  and  C_8
REMARK    5  A    between atoms: C_8  and  C_9
REMARK    6  A    between atoms: N_11  and  C_12
REMARK    7  A    between atoms: C_12  and  C_13
REMARK    8  A    between atoms: C_13  and  C_15
REMARK    9  A    between atoms: C_13  and  N_23
REMARK   10  A    between atoms: C_18  and  O_21
REMARK   11  A    between atoms: O_21  and  C_22
REMARK   12  A    between atoms: C_32  and  O_35
REMARK   13  A    between atoms: O_35  and  C_36
REMARK                            x       y       z     vdW  Elec       q    Type
REMARK                         _______ _______ _______ _____ _____    ______ ____
ROOT
ATOM      1  C   UNL     1      -4.765  -0.793  -2.180  0.00  0.00    +0.223 C 
ATOM      2  O   UNL     1      -4.581  -0.319  -3.281  0.00  0.00    -0.275 OA
ATOM      3  N   UNL     1      -3.859  -0.598  -1.202  0.00  0.00    -0.316 N 
ATOM      4  H   UNL     1      -4.026  -1.027  -0.204  0.00  0.00    +0.149 HD
ENDROOT
BRANCH   1   5
ATOM      5  C   UNL     1      -6.008  -1.600  -1.905  0.00  0.00    +0.173 C 
BRANCH   5   6
ATOM      6  S   UNL     1      -7.019  -1.681  -3.405  0.00  0.00    -0.077 S 
BRANCH   6  12
ATOM      7  C   UNL     1      -9.751  -2.740  -4.936  0.00  0.00    +0.153 C 
ATOM      8  N   UNL     1      -9.460  -3.042  -3.533  0.00  0.00    -0.305 N 
ATOM      9  C   UNL     1     -10.231  -3.778  -2.663  0.00  0.00    +0.165 A 
ATOM     10  N   UNL     1      -9.600  -3.800  -1.512  0.00  0.00    -0.128 NA
ATOM     11  N   UNL     1      -8.500  -3.142  -1.602  0.00  0.00    -0.122 NA
ATOM     12  C   UNL     1      -8.365  -2.653  -2.814  0.00  0.00    +0.192 A 
BRANCH   9  13
ATOM     13  C   UNL     1     -11.526  -4.423  -2.968  0.00  0.00    +0.019 A 
ATOM     14  C   UNL     1     -12.390  -4.781  -1.931  0.00  0.00    +0.015 A 
ATOM     15  C   UNL     1     -13.599  -5.378  -2.220  0.00  0.00    +0.046 A 
ATOM     16  C   UNL     1     -13.953  -5.632  -3.538  0.00  0.00    +0.120 A 
ATOM     17  C   UNL     1     -13.094  -5.281  -4.572  0.00  0.00    +0.046 A 
ATOM     18  C   UNL     1     -11.886  -4.680  -4.292  0.00  0.00    +0.015 A 
BRANCH  16  19
ATOM     19  O   UNL     1     -15.143  -6.225  -3.818  0.00  0.00    -0.495 OA
ATOM     20  C   UNL     1     -15.978  -6.559  -2.708  0.00  0.00    +0.277 C 
ENDBRANCH  16  19
ENDBRANCH   9  13
ENDBRANCH   6  12
ENDBRANCH   5   6
ENDBRANCH   1   5
BRANCH   3  21
ATOM     21  C   UNL     1      -2.651   0.187  -1.470  0.00  0.00    +0.093 C 
BRANCH  21  22
ATOM     22  C   UNL     1      -1.796   0.255  -0.202  0.00  0.00    -0.020 C 
BRANCH  22  23
ATOM     23  N   UNL     1      -2.604   0.783   0.905  0.00  0.00    +0.385 N 
ATOM     24  C   UNL     1      -2.905   2.206   0.706  0.00  0.00    -0.078 C 
ATOM     25  C   UNL     1      -3.865   2.684   1.797  0.00  0.00    -0.019 C 
ATOM     26  C   UNL     1      -3.219   2.467   3.169  0.00  0.00    -0.004 C 
ATOM     27  C   UNL     1      -2.871   0.985   3.332  0.00  0.00    -0.019 C 
ATOM     28  C   UNL     1      -1.940   0.557   2.195  0.00  0.00    -0.078 C 
ATOM     29  H   UNL     1      -3.559   0.237   0.919  0.00  0.00    -0.081 HD
ENDBRANCH  22  23
BRANCH  22  30
ATOM     30  C   UNL     1      -0.617   1.162  -0.440  0.00  0.00    -0.059 A 
ATOM     31  C   UNL     1      -0.807   2.406  -1.015  0.00  0.00    +0.005 A 
ATOM     32  C   UNL     1       0.272   3.241  -1.228  0.00  0.00    +0.046 A 
ATOM     33  C   UNL     1       1.548   2.830  -0.871  0.00  0.00    +0.120 A 
ATOM     34  C   UNL     1       1.737   1.580  -0.299  0.00  0.00    +0.046 A 
ATOM     35  C   UNL     1       0.655   0.748  -0.088  0.00  0.00    +0.005 A 
BRANCH  33  36
ATOM     36  O   UNL     1       2.611   3.651  -1.079  0.00  0.00    -0.495 OA
ATOM     37  C   UNL     1       3.895   3.162  -0.687  0.00  0.00    +0.277 C 
ENDBRANCH  33  36
ENDBRANCH  22  30
ENDBRANCH  21  22
ENDBRANCH   3  21
TORSDOF 10
