REMARK  Name = ZINC35248753
REMARK  7 active torsions:
REMARK  status: ('A' for Active; 'I' for Inactive)
REMARK    1  A    between atoms: C_1  and  N_2
REMARK    2  A    between atoms: N_2  and  C_3
REMARK    3  A    between atoms: C_8  and  S_10
REMARK    4  A    between atoms: S_10  and  C_11
REMARK    5  A    between atoms: C_11  and  C_12
REMARK    6  A    between atoms: C_15  and  C_18
REMARK    7  A    between atoms: C_23  and  N_26
REMARK                            x       y       z     vdW  Elec       q    Type
REMARK                         _______ _______ _______ _____ _____    ______ ____
ROOT
ATOM      1  C   UNL     1      -0.534 -10.618  -4.593  0.00  0.00    +0.247 C 
ATOM      2  O   UNL     1       0.477 -11.283  -4.709  0.00  0.00    -0.270 OA
ATOM      3  N   UNL     1      -1.740 -11.219  -4.597  0.00  0.00    -0.297 N 
ATOM      4  C   UNL     1      -1.846 -12.684  -4.604  0.00  0.00    +0.110 C 
ATOM      5  C   UNL     1      -2.740 -13.108  -5.774  0.00  0.00    +0.044 C 
ATOM      6  C   UNL     1      -4.083 -12.381  -5.674  0.00  0.00    +0.095 C 
ATOM      7  C   UNL     1      -3.855 -10.871  -5.762  0.00  0.00    +0.044 C 
ATOM      8  C   UNL     1      -2.974 -10.422  -4.587  0.00  0.00    +0.110 C 
ENDROOT
BRANCH   6   9
ATOM      9  N   UNL     1      -4.953 -12.809  -6.772  0.00  0.00    -0.289 N 
ATOM     10  C   UNL     1      -6.196 -13.422  -6.636  0.00  0.00    +0.070 A 
ATOM     11  C   UNL     1      -6.956 -13.799  -5.540  0.00  0.00    +0.028 A 
ATOM     12  C   UNL     1      -8.183 -14.404  -5.729  0.00  0.00    +0.002 A 
ATOM     13  C   UNL     1      -8.657 -14.637  -7.009  0.00  0.00    +0.002 A 
ATOM     14  C   UNL     1      -7.906 -14.266  -8.107  0.00  0.00    +0.028 A 
ATOM     15  C   UNL     1      -6.673 -13.657  -7.927  0.00  0.00    +0.067 A 
ATOM     16  N   UNL     1      -5.706 -13.178  -8.807  0.00  0.00    -0.306 N 
ATOM     17  H   UNL     1      -5.758 -13.203  -9.776  0.00  0.00    +0.170 HD
ATOM     18  C   UNL     1      -4.689 -12.671  -8.085  0.00  0.00    +0.328 A 
ATOM     19  O   UNL     1      -3.683 -12.167  -8.549  0.00  0.00    -0.247 OA
ENDBRANCH   6   9
BRANCH   1  23
ATOM     20  C   UNL     1      -0.265  -6.399  -4.179  0.00  0.00    -0.037 A 
ATOM     21  C   UNL     1       0.551  -7.056  -5.083  0.00  0.00    +0.005 A 
ATOM     22  C   UNL     1       0.469  -8.426  -5.222  0.00  0.00    +0.013 A 
ATOM     23  C   UNL     1      -0.440  -9.149  -4.449  0.00  0.00    +0.037 A 
ATOM     24  C   UNL     1      -1.261  -8.481  -3.539  0.00  0.00    +0.013 A 
ATOM     25  C   UNL     1      -1.165  -7.111  -3.406  0.00  0.00    +0.005 A 
BRANCH  20  26
ATOM     26  C   UNL     1      -0.170  -4.902  -4.032  0.00  0.00    +0.112 C 
BRANCH  26  27
ATOM     27  S   UNL     1       1.061  -4.496  -2.764  0.00  0.00    -0.081 S 
BRANCH  27  35
ATOM     28  C   UNL     1       2.660   1.323  -0.776  0.00  0.00    +0.130 C 
ATOM     29  N   UNL     1       2.729  -0.133  -0.921  0.00  0.00    -0.321 N 
ATOM     30  C   UNL     1       3.693  -0.903  -0.131  0.00  0.00    +0.130 C 
ATOM     31  C   UNL     1       1.882  -0.783  -1.804  0.00  0.00    +0.127 A 
ATOM     32  C   UNL     1       1.037  -0.052  -2.641  0.00  0.00    +0.083 A 
ATOM     33  C   UNL     1       0.208  -0.742  -3.508  0.00  0.00    +0.135 A 
ATOM     34  N   UNL     1       0.241  -2.068  -3.518  0.00  0.00    -0.210 NA
ATOM     35  C   UNL     1       1.055  -2.735  -2.712  0.00  0.00    +0.192 A 
ATOM     36  N   UNL     1       1.867  -2.110  -1.871  0.00  0.00    -0.207 NA
ATOM     37 CL   UNL     1      -0.863   0.118  -4.569  0.00  0.00    -0.062 Cl
ENDBRANCH  27  35
ENDBRANCH  26  27
ENDBRANCH  20  26
ENDBRANCH   1  23
TORSDOF 5
