REMARK  Name = ZINC40822618
REMARK  8 active torsions:
REMARK  status: ('A' for Active; 'I' for Inactive)
REMARK    1  A    between atoms: C_1  and  C_2
REMARK    2  A    between atoms: C_2  and  C_3
REMARK    3  A    between atoms: C_8  and  N_9
REMARK    4  A    between atoms: C_10  and  C_12
REMARK    5  A    between atoms: C_13  and  C_37
REMARK    6  A    between atoms: N_21  and  N_22
REMARK    7  A    between atoms: C_23  and  C_25
REMARK    8  A    between atoms: C_28  and  C_31
REMARK                            x       y       z     vdW  Elec       q    Type
REMARK                         _______ _______ _______ _____ _____    ______ ____
ROOT
ATOM      1  C   UNL     1      -1.470  -0.280  -4.829  0.00  0.00    +0.193 A 
ATOM      2  C   UNL     1      -2.010  -0.462  -6.072  0.00  0.00    +0.009 A 
ATOM      3  C   UNL     1      -1.018  -0.089  -6.987  0.00  0.00    +0.042 A 
ATOM      4  C   UNL     1       0.085   0.302  -6.264  0.00  0.00    +0.115 A 
ATOM      5  O   UNL     1      -0.209   0.187  -4.971  0.00  0.00    -0.454 OA
ATOM      6  C   UNL     1       1.365   0.769  -6.909  0.00  0.00    +0.075 C 
ATOM      7  C   UNL     1       1.422   0.262  -8.353  0.00  0.00    +0.014 C 
ATOM      8  C   UNL     1       0.148   0.647  -9.112  0.00  0.00    +0.058 C 
ATOM      9  C   UNL     1      -1.027  -0.072  -8.467  0.00  0.00    +0.070 C 
ATOM     10  N   UNL     1      -1.970  -0.630  -9.163  0.00  0.00    -0.184 NA
ATOM     11  C   UNL     1      -3.394  -0.963  -6.392  0.00  0.00    +0.048 C 
ENDROOT
BRANCH   1  13
ATOM     12  N   UNL     1      -1.506  -0.315  -2.391  0.00  0.00    -0.279 N 
ATOM     13  C   UNL     1      -2.148  -0.541  -3.554  0.00  0.00    +0.284 C 
ATOM     14  O   UNL     1      -3.290  -0.962  -3.547  0.00  0.00    -0.266 OA
ATOM     15  H   UNL     1      -0.621   0.082  -2.394  0.00  0.00    +0.155 HD
BRANCH  12  21
ATOM     16  C   UNL     1      -1.349  -1.119  -0.120  0.00  0.00    -0.026 A 
ATOM     17  C   UNL     1      -1.954  -1.446   1.078  0.00  0.00    +0.005 A 
ATOM     18  C   UNL     1      -3.322  -1.313   1.222  0.00  0.00    +0.000 A 
ATOM     19  C   UNL     1      -4.090  -0.853   0.168  0.00  0.00    +0.002 A 
ATOM     20  C   UNL     1      -3.492  -0.525  -1.032  0.00  0.00    +0.023 A 
ATOM     21  C   UNL     1      -2.116  -0.652  -1.179  0.00  0.00    +0.037 A 
BRANCH  16  23
ATOM     22  C   UNL     1       0.819   0.077   0.019  0.00  0.00    +0.009 C 
ATOM     23  C   UNL     1       0.143  -1.264  -0.275  0.00  0.00    +0.033 C 
ENDBRANCH  16  23
ENDBRANCH  12  21
ENDBRANCH   1  13
BRANCH  10  24
ATOM     24  N   UNL     1      -1.928  -0.583 -10.563  0.00  0.00    -0.203 N 
ATOM     25  C   UNL     1      -2.906  -1.162 -11.286  0.00  0.00    +0.263 C 
ATOM     26  O   UNL     1      -3.826  -1.726 -10.724  0.00  0.00    -0.268 OA
ATOM     27  H   UNL     1      -1.194  -0.133 -11.011  0.00  0.00    +0.178 HD
BRANCH  25  28
ATOM     28  C   UNL     1      -2.862  -1.112 -12.761  0.00  0.00    +0.038 A 
ATOM     29  C   UNL     1      -1.803  -0.470 -13.408  0.00  0.00    +0.014 A 
ATOM     30  C   UNL     1      -1.763  -0.425 -14.783  0.00  0.00    +0.009 A 
ATOM     31  C   UNL     1      -2.779  -1.020 -15.531  0.00  0.00    -0.018 A 
ATOM     32  C   UNL     1      -3.837  -1.661 -14.887  0.00  0.00    +0.009 A 
ATOM     33  C   UNL     1      -3.877  -1.713 -13.512  0.00  0.00    +0.014 A 
BRANCH  31  34
ATOM     34  C   UNL     1      -2.734  -0.970 -17.012  0.00  0.00    -0.018 A 
ATOM     35  C   UNL     1      -1.676  -0.335 -17.660  0.00  0.00    +0.008 A 
ATOM     36  C   UNL     1      -1.640  -0.292 -19.039  0.00  0.00    +0.001 A 
ATOM     37  C   UNL     1      -2.651  -0.877 -19.778  0.00  0.00    +0.000 A 
ATOM     38  C   UNL     1      -3.704  -1.509 -19.141  0.00  0.00    +0.001 A 
ATOM     39  C   UNL     1      -3.748  -1.564 -17.763  0.00  0.00    +0.008 A 
ENDBRANCH  31  34
ENDBRANCH  25  28
ENDBRANCH  10  24
TORSDOF 6
