REMARK  Name = ZINC02404955
REMARK  9 active torsions:
REMARK  status: ('A' for Active; 'I' for Inactive)
REMARK    1  A    between atoms: C_1  and  C_2
REMARK    2  A    between atoms: C_4  and  C_28
REMARK    3  A    between atoms: C_18  and  C_20
REMARK    4  A    between atoms: C_18  and  C_21
REMARK    5  A    between atoms: N_22  and  C_23
REMARK    6  A    between atoms: C_23  and  C_24
REMARK    7  A    between atoms: C_24  and  C_25
REMARK    8  A    between atoms: C_25  and  O_26
REMARK    9  A    between atoms: O_26  and  C_27
REMARK                            x       y       z     vdW  Elec       q    Type
REMARK                         _______ _______ _______ _____ _____    ______ ____
ROOT
ATOM      1  C   UNL     1       0.773  -9.655   0.946  0.00  0.00    +0.067 C 
ATOM      2  C   UNL     1       0.169  -8.281   0.817  0.00  0.00    +0.061 A 
ATOM      3  C   UNL     1      -1.175  -7.954   1.034  0.00  0.00    +0.048 A 
ATOM      4  C   UNL     1      -1.321  -6.626   0.819  0.00  0.00    +0.045 A 
ATOM      5  N   UNL     1      -0.104  -6.129   0.476  0.00  0.00    -0.202 N 
ATOM      6  N   UNL     1       0.808  -7.192   0.477  0.00  0.00    -0.169 NA
ATOM      7  C   UNL     1       0.184  -4.798   0.170  0.00  0.00    +0.254 A 
ATOM      8  N   UNL     1       1.428  -4.479  -0.146  0.00  0.00    -0.195 NA
ATOM      9  C   UNL     1       1.823  -3.247  -0.455  0.00  0.00    +0.133 A 
ATOM     10  C   UNL     1       0.811  -2.243  -0.431  0.00  0.00    +0.051 A 
ATOM     11  C   UNL     1       0.968  -0.831  -0.725  0.00  0.00    -0.020 A 
ATOM     12  C   UNL     1      -0.143  -0.062  -0.636  0.00  0.00    +0.021 A 
ATOM     13  S   UNL     1      -1.442  -1.172  -0.163  0.00  0.00    -0.071 S 
ATOM     14  C   UNL     1      -0.499  -2.662  -0.083  0.00  0.00    +0.116 A 
ATOM     15  N   UNL     1      -0.807  -3.909   0.211  0.00  0.00    -0.203 NA
ATOM     16  C   UNL     1      -0.223   1.410  -0.891  0.00  0.00    +0.203 C 
ATOM     17  O   UNL     1       1.116   1.927  -0.935  0.00  0.00    -0.368 OA
ATOM     18  C   UNL     1       1.992   1.166  -1.771  0.00  0.00    +0.068 C 
ATOM     19  C   UNL     1       2.295  -0.187  -1.122  0.00  0.00    +0.071 C 
ATOM     20  C   UNL     1       3.299   1.937  -1.972  0.00  0.00    +0.041 C 
ATOM     21  C   UNL     1       1.324   0.940  -3.129  0.00  0.00    +0.041 C 
ATOM     22  N   UNL     1       3.136  -2.958  -0.780  0.00  0.00    -0.328 N 
ATOM     23  C   UNL     1      -2.602  -5.841   0.939  0.00  0.00    +0.066 C 
ATOM     24  H   UNL     1       3.409  -2.038  -0.922  0.00  0.00    +0.147 HD
ENDROOT
BRANCH  22  25
ATOM     25  C   UNL     1       4.114  -4.040  -0.911  0.00  0.00    +0.105 C 
BRANCH  25  26
ATOM     26  C   UNL     1       5.480  -3.453  -1.274  0.00  0.00    +0.047 C 
BRANCH  26  27
ATOM     27  C   UNL     1       6.501  -4.584  -1.410  0.00  0.00    +0.161 C 
BRANCH  27  28
ATOM     28  O   UNL     1       7.777  -4.035  -1.749  0.00  0.00    -0.383 OA
ATOM     29  C   UNL     1       8.808  -5.013  -1.900  0.00  0.00    +0.193 C 
ENDBRANCH  27  28
ENDBRANCH  26  27
ENDBRANCH  25  26
ENDBRANCH  22  25
TORSDOF 4
