REMARK  Name = ZINC13498999
REMARK  15 active torsions:
REMARK  status: ('A' for Active; 'I' for Inactive)
REMARK    1  A    between atoms: C_1  and  C_2
REMARK    2  A    between atoms: C_4  and  C_37
REMARK    3  A    between atoms: C_7  and  C_14
REMARK    4  A    between atoms: C_14  and  N_15
REMARK    5  A    between atoms: N_15  and  C_16
REMARK    6  A    between atoms: N_15  and  C_23
REMARK    7  A    between atoms: C_16  and  C_17
REMARK    8  A    between atoms: C_23  and  C_25
REMARK    9  A    between atoms: C_23  and  C_34
REMARK   10  A    between atoms: N_29  and  C_30
REMARK   11  A    between atoms: C_30  and  C_31
REMARK   12  A    between atoms: C_30  and  C_32
REMARK   13  A    between atoms: C_30  and  C_33
REMARK   14  A    between atoms: C_34  and  C_35
REMARK   15  A    between atoms: C_34  and  C_36
REMARK                            x       y       z     vdW  Elec       q    Type
REMARK                         _______ _______ _______ _____ _____    ______ ____
ROOT
ATOM      1  N   UNL     1       1.146  -8.087   0.239  0.00  0.00    -0.286 NA
ENDROOT
BRANCH   1   2
ATOM      2  C   UNL     1      -0.162  -8.750   0.146  0.00  0.00    +0.125 C 
BRANCH   2   9
ATOM      3  C   UNL     1      -4.961  -4.626  -4.711  0.00  0.00    +0.044 C 
ATOM      4  C   UNL     1      -3.997  -5.527  -3.984  0.00  0.00    -0.048 A 
ATOM      5  C   UNL     1      -3.317  -6.514  -4.685  0.00  0.00    +0.007 A 
ATOM      6  C   UNL     1      -2.438  -7.342  -4.045  0.00  0.00    -0.041 A 
ATOM      7  C   UNL     1      -2.221  -7.194  -2.671  0.00  0.00    +0.002 A 
ATOM      8  C   UNL     1      -1.287  -8.063  -1.954  0.00  0.00    +0.020 A 
ATOM      9  C   UNL     1      -1.116  -7.872  -0.623  0.00  0.00    +0.031 A 
ATOM     10  C   UNL     1      -1.830  -6.855   0.047  0.00  0.00    +0.254 A 
ATOM     11  O   UNL     1      -1.662  -6.701   1.244  0.00  0.00    -0.268 OA
ATOM     12  N   UNL     1      -2.691  -6.052  -0.603  0.00  0.00    -0.322 N 
ATOM     13  H   UNL     1      -3.165  -5.363  -0.113  0.00  0.00    +0.169 HD
ATOM     14  C   UNL     1      -2.909  -6.194  -1.957  0.00  0.00    +0.050 A 
ATOM     15  C   UNL     1      -3.794  -5.360  -2.631  0.00  0.00    +0.029 A 
ATOM     16  C   UNL     1      -1.707  -8.410  -4.816  0.00  0.00    +0.044 C 
ENDBRANCH   2   9
ENDBRANCH   1   2
BRANCH   1  17
ATOM     17  C   UNL     1       1.121  -7.013   1.240  0.00  0.00    +0.117 C 
BRANCH  17  18
ATOM     18  C   UNL     1       2.456  -6.264   1.217  0.00  0.00    +0.132 C 
ATOM     19  C   UNL     1       2.452  -5.154   2.290  0.00  0.00    +0.035 C 
ATOM     20  C   UNL     1       3.187  -3.994   1.566  0.00  0.00    +0.031 C 
ATOM     21  C   UNL     1       2.712  -4.210   0.107  0.00  0.00    +0.160 C 
ATOM     22  O   UNL     1       2.640  -5.637  -0.057  0.00  0.00    -0.375 OA
ENDBRANCH  17  18
ENDBRANCH   1  17
BRANCH   1  23
ATOM     23  C   UNL     1       2.208  -9.058   0.534  0.00  0.00    +0.129 C 
BRANCH  23  24
ATOM     24  C   UNL     1       1.966 -10.322  -0.251  0.00  0.00    +0.169 A 
ATOM     25  N   UNL     1       0.998 -11.185  -0.065  0.00  0.00    -0.112 NA
ATOM     26  N   UNL     1       1.132 -12.127  -0.933  0.00  0.00    -0.023 NA
ATOM     27  N   UNL     1       2.161 -11.887  -1.669  0.00  0.00    -0.043 NA
ATOM     28  N   UNL     1       2.699 -10.780  -1.282  0.00  0.00    -0.222 N 
BRANCH  28  29
ATOM     29  C   UNL     1       3.887 -10.142  -1.857  0.00  0.00    +0.059 C 
ATOM     30  C   UNL     1       4.993 -10.081  -0.801  0.00  0.00    +0.036 C 
ATOM     31  C   UNL     1       4.372 -10.957  -3.057  0.00  0.00    +0.036 C 
ATOM     32  C   UNL     1       3.535  -8.724  -2.311  0.00  0.00    +0.036 C 
ENDBRANCH  28  29
ENDBRANCH  23  24
BRANCH  23  33
ATOM     33  C   UNL     1       2.204  -9.378   2.030  0.00  0.00    +0.008 C 
ATOM     34  C   UNL     1       0.834  -9.928   2.431  0.00  0.00    +0.009 C 
ATOM     35  C   UNL     1       3.281 -10.423   2.331  0.00  0.00    +0.009 C 
ENDBRANCH  23  33
ENDBRANCH   1  23
TORSDOF 8
