REMARK  Name = ZINC11785538
REMARK  9 active torsions:
REMARK  status: ('A' for Active; 'I' for Inactive)
REMARK    1  A    between atoms: C_1  and  C_2
REMARK    2  A    between atoms: C_2  and  C_4
REMARK    3  A    between atoms: C_2  and  N_66
REMARK    4  A    between atoms: C_4  and  C_5
REMARK    5  A    between atoms: C_5  and  C_6
REMARK    6  A    between atoms: C_9  and  O_12
REMARK    7  A    between atoms: N_15  and  C_18
REMARK    8  A    between atoms: N_26  and  C_29
REMARK    9  A    between atoms: C_29  and  C_30
REMARK                            x       y       z     vdW  Elec       q    Type
REMARK                         _______ _______ _______ _____ _____    ______ ____
ROOT
ATOM      1  C   UNL     1       1.691   3.868   6.747  0.00  0.00    -0.059 C 
ATOM      2  C   UNL     1       0.278   3.586   6.232  0.00  0.00    +0.086 C 
ATOM      3  N   UNL     1       0.126   2.143   5.994  0.00  0.00    -0.333 N 
ATOM      4  C   UNL     1       0.356   1.381   7.229  0.00  0.00    +0.086 C 
ATOM      5  C   UNL     1       1.769   1.664   7.744  0.00  0.00    -0.059 C 
ATOM      6  N   UNL     1       1.902   3.114   8.000  0.00  0.00    +0.383 N 
ATOM      7  H   UNL     1       1.191   3.398   8.684  0.00  0.00    -0.081 HD
ENDROOT
BRANCH   3   8
ATOM      8  C   UNL     1      -1.122   1.857   5.459  0.00  0.00    +0.043 A 
ATOM      9  C   UNL     1      -2.282   2.180   6.166  0.00  0.00    +0.024 A 
ATOM     10  C   UNL     1      -3.522   1.895   5.637  0.00  0.00    +0.003 A 
ATOM     11  C   UNL     1      -3.638   1.286   4.395  0.00  0.00    +0.014 A 
ATOM     12  C   UNL     1      -2.502   0.959   3.677  0.00  0.00    +0.051 A 
ATOM     13  C   UNL     1      -1.226   1.245   4.211  0.00  0.00    +0.070 A 
ATOM     14  C   UNL     1      -0.254   0.775   3.210  0.00  0.00    +0.256 C 
ATOM     15  O   UNL     1       0.955   0.847   3.308  0.00  0.00    -0.269 OA
ATOM     16  N   UNL     1      -0.926   0.252   2.169  0.00  0.00    -0.230 N 
ATOM     17  C   UNL     1      -2.256   0.327   2.364  0.00  0.00    +0.254 C 
ATOM     18  O   UNL     1      -3.109  -0.060   1.592  0.00  0.00    -0.270 OA
BRANCH  16  19
ATOM     19  C   UNL     1      -0.295  -0.319   0.977  0.00  0.00    +0.152 C 
BRANCH  19  20
ATOM     20  C   UNL     1      -0.053  -1.791   1.192  0.00  0.00    -0.030 A 
ATOM     21  C   UNL     1       1.141  -2.221   1.742  0.00  0.00    +0.006 A 
ATOM     22  C   UNL     1       1.361  -3.571   1.945  0.00  0.00    +0.020 A 
ATOM     23  C   UNL     1       0.391  -4.491   1.588  0.00  0.00    +0.041 A 
ATOM     24  C   UNL     1      -0.800  -4.060   1.034  0.00  0.00    +0.020 A 
ATOM     25  C   UNL     1      -1.022  -2.710   0.836  0.00  0.00    +0.006 A 
ATOM     26 CL   UNL     1       0.670  -6.186   1.837  0.00  0.00    -0.084 Cl
ENDBRANCH  19  20
ENDBRANCH  16  19
ENDBRANCH   3   8
BRANCH   6  28
ATOM     27  C   UNL     1       4.312   3.245   7.467  0.00  0.00    -0.013 C 
ATOM     28  C   UNL     1       3.243   3.409   8.549  0.00  0.00    -0.071 C 
BRANCH  28  29
ATOM     29  C   UNL     1       3.257   4.849   9.066  0.00  0.00    -0.011 C 
BRANCH  29  30
ATOM     30  C   UNL     1       2.256   4.988  10.215  0.00  0.00    +0.033 C 
BRANCH  30  31
ATOM     31  C   UNL     1       2.353   6.374  10.800  0.00  0.00    -0.047 A 
ATOM     32  C   UNL     1       3.226   6.622  11.844  0.00  0.00    +0.007 A 
ATOM     33  C   UNL     1       3.321   7.893  12.378  0.00  0.00    +0.045 A 
ATOM     34  C   UNL     1       2.531   8.917  11.875  0.00  0.00    +0.117 A 
ATOM     35  C   UNL     1       1.652   8.663  10.832  0.00  0.00    +0.045 A 
ATOM     36  C   UNL     1       1.565   7.392  10.297  0.00  0.00    +0.007 A 
BRANCH  34  37
ATOM     37  O   UNL     1       2.619  10.166  12.403  0.00  0.00    -0.507 OA
ATOM     38  H   UNL     1       2.011  10.326  13.138  0.00  0.00    +0.292 HD
ENDBRANCH  34  37
ENDBRANCH  30  31
ENDBRANCH  29  30
ENDBRANCH  28  29
ENDBRANCH   6  28
TORSDOF 8
