REMARK  Name = ZINC42554120
REMARK  7 active torsions:
REMARK  status: ('A' for Active; 'I' for Inactive)
REMARK    1  A    between atoms: C_1  and  C_2
REMARK    2  A    between atoms: C_2  and  C_3
REMARK    3  A    between atoms: C_3  and  C_5
REMARK    4  A    between atoms: C_3  and  C_6
REMARK    5  A    between atoms: C_6  and  C_8
REMARK    6  A    between atoms: C_6  and  N_9
REMARK    7  A    between atoms: N_9  and  C_10
REMARK                            x       y       z     vdW  Elec       q    Type
REMARK                         _______ _______ _______ _____ _____    ______ ____
ROOT
ATOM      1  C   UNL     1      -2.769  -4.035   0.129  0.00  0.00    -0.069 C 
ATOM      2  C   UNL     1      -2.160  -4.534  -1.184  0.00  0.00    +0.003 C 
ATOM      3  C   UNL     1      -2.113  -6.065  -1.171  0.00  0.00    +0.108 C 
ATOM      4  N   UNL     1      -3.463  -6.578  -0.898  0.00  0.00    -0.286 N 
ATOM      5  C   UNL     1      -4.175  -6.093   0.292  0.00  0.00    +0.108 C 
ATOM      6  C   UNL     1      -4.200  -4.562   0.262  0.00  0.00    +0.003 C 
ATOM      7  C   UNL     1      -4.036  -7.475  -1.724  0.00  0.00    +0.300 C 
ATOM      8  O   UNL     1      -3.478  -7.796  -2.755  0.00  0.00    -0.253 OA
ATOM      9  N   UNL     1      -5.229  -8.016  -1.407  0.00  0.00    -0.313 N 
ATOM     10  H   UNL     1      -5.709  -7.707  -0.623  0.00  0.00    +0.146 HD
ATOM     11  H   UNL     1      -5.609  -8.714  -1.964  0.00  0.00    +0.146 HD
ENDROOT
BRANCH   1  12
ATOM     12  N   UNL     1      -2.785  -2.566   0.134  0.00  0.00    +0.383 N 
ATOM     13  H   UNL     1      -3.259  -2.238   0.962  0.00  0.00    -0.085 HD
ATOM     14  H   UNL     1      -3.270  -2.233  -0.686  0.00  0.00    -0.085 HD
BRANCH  12  15
ATOM     15  C   UNL     1      -1.406  -2.061   0.126  0.00  0.00    -0.072 C 
ATOM     16  C   UNL     1      -0.709  -2.462   1.427  0.00  0.00    -0.013 C 
BRANCH  15  17
ATOM     17  C   UNL     1      -1.422  -0.536   0.005  0.00  0.00    -0.029 C 
ATOM     18  C   UNL     1      -2.119  -0.135  -1.296  0.00  0.00    +0.006 C 
BRANCH  17  20
ATOM     19  C   UNL     1      -0.003   1.520   0.003  0.00  0.00    +0.004 C 
ATOM     20  C   UNL     1       0.015  -0.010  -0.003  0.00  0.00    -0.002 C 
ENDBRANCH  17  20
ENDBRANCH  15  17
ENDBRANCH  12  15
ENDBRANCH   1  12
TORSDOF 4
