REMARK  Name = ZINC54554428
REMARK  5 active torsions:
REMARK  status: ('A' for Active; 'I' for Inactive)
REMARK    1  A    between atoms: C_1  and  C_2
REMARK    2  A    between atoms: C_2  and  C_3
REMARK    3  A    between atoms: C_2  and  C_4
REMARK    4  A    between atoms: C_7  and  N_10
REMARK    5  A    between atoms: N_10  and  C_11
REMARK                            x       y       z     vdW  Elec       q    Type
REMARK                         _______ _______ _______ _____ _____    ______ ____
ROOT
ATOM      1  C   UNL     1      -3.610  -2.695  -3.629  0.00  0.00    +0.029 A 
ATOM      2  C   UNL     1      -4.961  -2.377  -3.678  0.00  0.00    +0.026 A 
ATOM      3  C   UNL     1      -5.664  -2.511  -4.861  0.00  0.00    +0.049 A 
ATOM      4  C   UNL     1      -5.021  -2.962  -6.000  0.00  0.00    +0.142 A 
ATOM      5  C   UNL     1      -3.665  -3.282  -5.954  0.00  0.00    +0.077 A 
ATOM      6  C   UNL     1      -2.959  -3.143  -4.771  0.00  0.00    +0.050 A 
ATOM      7  N   UNL     1      -3.030  -3.740  -7.117  0.00  0.00    -0.280 N 
ATOM      8  C   UNL     1      -3.639  -3.565  -8.309  0.00  0.00    +0.255 C 
ATOM      9  O   UNL     1      -3.122  -3.980  -9.325  0.00  0.00    -0.272 OA
ATOM     10  C   UNL     1      -4.966  -2.852  -8.373  0.00  0.00    +0.325 C 
ATOM     11  O   UNL     1      -5.701  -3.097  -7.171  0.00  0.00    -0.481 OA
ATOM     12  H   UNL     1      -2.164  -4.176  -7.066  0.00  0.00    +0.155 HD
ENDROOT
BRANCH   1  13
ATOM     13  N   UNL     1      -2.902  -2.559  -2.429  0.00  0.00    -0.341 N 
ATOM     14  H   UNL     1      -1.958  -2.777  -2.396  0.00  0.00    +0.146 HD
BRANCH  13  18
ATOM     15  C   UNL     1      -1.433  -0.534   0.013  0.00  0.00    -0.008 C 
ATOM     16  C   UNL     1      -1.413  -2.063   0.004  0.00  0.00    +0.005 C 
ATOM     17  C   UNL     1      -2.848  -2.593   0.015  0.00  0.00    +0.022 C 
ATOM     18  C   UNL     1      -3.588  -2.086  -1.224  0.00  0.00    +0.070 C 
ATOM     19  C   UNL     1      -3.609  -0.556  -1.216  0.00  0.00    +0.022 C 
ATOM     20  C   UNL     1      -2.173  -0.027  -1.227  0.00  0.00    +0.005 C 
BRANCH  15  22
ATOM     21  C   UNL     1      -0.019   1.526   0.010  0.00  0.00    +0.007 C 
ATOM     22  C   UNL     1       0.002  -0.004   0.002  0.00  0.00    -0.014 C 
ATOM     23  C   UNL     1       0.742  -0.511   1.242  0.00  0.00    +0.007 C 
ENDBRANCH  15  22
ENDBRANCH  13  18
ENDBRANCH   1  13
TORSDOF 3
