REMARK  Name = ZINC39147074
REMARK  4 active torsions:
REMARK  status: ('A' for Active; 'I' for Inactive)
REMARK    1  A    between atoms: C_4  and  C_7
REMARK    2  A    between atoms: C_17  and  S_19
REMARK    3  A    between atoms: S_19  and  C_20
REMARK    4  A    between atoms: C_22  and  N_27
REMARK                            x       y       z     vdW  Elec       q    Type
REMARK                         _______ _______ _______ _____ _____    ______ ____
ROOT
ATOM      1  C   UNL     1       3.323  -0.643  -0.141  0.00  0.00    -0.009 C 
ATOM      2  C   UNL     1       4.391   0.250  -0.260  0.00  0.00    +0.001 A 
ATOM      3  C   UNL     1       4.160   1.630  -0.443  0.00  0.00    +0.010 A 
ATOM      4  C   UNL     1       5.218   2.478  -0.556  0.00  0.00    +0.001 A 
ATOM      5  C   UNL     1       6.529   2.011  -0.495  0.00  0.00    +0.002 A 
ATOM      6  C   UNL     1       6.816   0.692  -0.320  0.00  0.00    +0.024 A 
ATOM      7  C   UNL     1       5.772  -0.242  -0.196  0.00  0.00    +0.041 A 
ATOM      8  N   UNL     1       6.054  -1.538  -0.024  0.00  0.00    -0.284 N 
ATOM      9  C   UNL     1       5.134  -2.474   0.100  0.00  0.00    +0.235 C 
ATOM     10  O   UNL     1       5.465  -3.636   0.253  0.00  0.00    -0.274 OA
ATOM     11  C   UNL     1       3.668  -2.106   0.059  0.00  0.00    +0.171 C 
ATOM     12  H   UNL     1       6.986  -1.804   0.011  0.00  0.00    +0.155 HD
ENDROOT
BRANCH   1  16
ATOM     13  C   UNL     1      -0.654   0.663  -0.310  0.00  0.00    +0.000 A 
ATOM     14  C   UNL     1      -0.167  -0.186  -1.290  0.00  0.00    +0.001 A 
ATOM     15  C   UNL     1       1.139  -0.622  -1.244  0.00  0.00    +0.008 A 
ATOM     16  C   UNL     1       1.977  -0.201  -0.198  0.00  0.00    -0.020 A 
ATOM     17  C   UNL     1       1.474   0.661   0.790  0.00  0.00    +0.008 A 
ATOM     18  C   UNL     1       0.165   1.085   0.725  0.00  0.00    +0.001 A 
ENDBRANCH   1  16
BRANCH  11  19
ATOM     19  S   UNL     1       2.907  -2.651   1.613  0.00  0.00    -0.070 S 
BRANCH  19  20
ATOM     20  C   UNL     1       3.752  -1.721   2.850  0.00  0.00    +0.172 A 
ATOM     21  N   UNL     1       4.655  -0.834   2.486  0.00  0.00    -0.209 NA
ATOM     22  C   UNL     1       5.317  -0.109   3.393  0.00  0.00    +0.124 A 
ATOM     23  C   UNL     1       5.054  -0.289   4.744  0.00  0.00    +0.113 A 
ATOM     24  C   UNL     1       4.095  -1.233   5.122  0.00  0.00    +0.254 A 
ATOM     25  O   UNL     1       3.837  -1.418   6.301  0.00  0.00    -0.268 OA
ATOM     26  N   UNL     1       3.454  -1.931   4.162  0.00  0.00    -0.302 N 
ATOM     27  H   UNL     1       2.782  -2.587   4.407  0.00  0.00    +0.171 HD
BRANCH  22  28
ATOM     28  N   UNL     1       6.260   0.815   2.988  0.00  0.00    -0.343 N 
ATOM     29  H   UNL     1       6.442   0.940   2.043  0.00  0.00    +0.144 HD
ATOM     30  H   UNL     1       6.739   1.340   3.648  0.00  0.00    +0.144 HD
ENDBRANCH  22  28
ENDBRANCH  19  20
ENDBRANCH  11  19
TORSDOF 4
