REMARK  Name = ZINC12687905
REMARK  6 active torsions:
REMARK  status: ('A' for Active; 'I' for Inactive)
REMARK    1  A    between atoms: C_4  and  C_7
REMARK    2  A    between atoms: C_7  and  S_8
REMARK    3  A    between atoms: S_8  and  C_9
REMARK    4  A    between atoms: C_14  and  N_15
REMARK    5  A    between atoms: C_16  and  C_18
REMARK    6  A    between atoms: C_18  and  N_19
REMARK                            x       y       z     vdW  Elec       q    Type
REMARK                         _______ _______ _______ _____ _____    ______ ____
ROOT
ATOM      1  N   UNL     1       1.946  -3.703  -1.703  0.00  0.00    -0.283 N 
ATOM      2  C   UNL     1       1.657  -2.412  -1.447  0.00  0.00    +0.235 C 
ATOM      3  O   UNL     1       1.482  -1.636  -2.363  0.00  0.00    -0.274 OA
ATOM      4  H   UNL     1       2.164  -4.305  -0.974  0.00  0.00    +0.155 HD
ENDROOT
BRANCH   1  10
ATOM      5  C   UNL     1       2.688  -5.295  -3.372  0.00  0.00    +0.029 A 
ATOM      6  C   UNL     1       2.668  -5.759  -4.680  0.00  0.00    +0.016 A 
ATOM      7  C   UNL     1       1.901  -5.112  -5.631  0.00  0.00    +0.001 A 
ATOM      8  C   UNL     1       1.152  -4.003  -5.283  0.00  0.00    +0.002 A 
ATOM      9  C   UNL     1       1.161  -3.537  -3.982  0.00  0.00    +0.024 A 
ATOM     10  C   UNL     1       1.931  -4.176  -3.022  0.00  0.00    +0.047 A 
BRANCH   5  11
ATOM     11  S   UNL     1       3.665  -6.117  -2.158  0.00  0.00    -0.119 S 
BRANCH  11  12
ATOM     12  C   UNL     1       4.445  -7.477  -3.069  0.00  0.00    +0.109 C 
BRANCH  12  16
ATOM     13  C   UNL     1       6.927  -9.728  -0.420  0.00  0.00    +0.000 A 
ATOM     14  C   UNL     1       5.599 -10.073  -0.583  0.00  0.00    +0.000 A 
ATOM     15  C   UNL     1       4.795  -9.345  -1.440  0.00  0.00    +0.004 A 
ATOM     16  C   UNL     1       5.321  -8.271  -2.135  0.00  0.00    -0.037 A 
ATOM     17  C   UNL     1       6.651  -7.929  -1.976  0.00  0.00    +0.004 A 
ATOM     18  C   UNL     1       7.452  -8.654  -1.114  0.00  0.00    +0.000 A 
ENDBRANCH  12  16
ENDBRANCH  11  12
ENDBRANCH   5  11
ENDBRANCH   1  10
BRANCH   2  19
ATOM     19  C   UNL     1       1.550  -1.931  -0.023  0.00  0.00    +0.214 C 
BRANCH  19  20
ATOM     20  N   UNL     1       1.229  -0.502  -0.012  0.00  0.00    -0.215 N 
ATOM     21  C   UNL     1       2.152   0.482  -0.007  0.00  0.00    +0.252 C 
ATOM     22  O   UNL     1       3.358   0.357  -0.010  0.00  0.00    -0.272 OA
ATOM     23  C   UNL     1       1.366   1.772   0.005  0.00  0.00    +0.144 C 
ATOM     24  C   UNL     1       1.676   2.573   1.266  0.00  0.00    +0.081 C 
ATOM     25  C   UNL     1       1.068   3.974   1.110  0.00  0.00    +0.232 C 
ATOM     26  O   UNL     1       1.715   4.628   0.018  0.00  0.00    -0.492 OA
ATOM     27  C   UNL     1       1.821   3.957  -1.158  0.00  0.00    +0.126 A 
ATOM     28  C   UNL     1       1.667   2.581  -1.226  0.00  0.00    +0.027 A 
ATOM     29  C   UNL     1       1.790   1.935  -2.444  0.00  0.00    +0.010 A 
ATOM     30  C   UNL     1       2.063   2.654  -3.591  0.00  0.00    +0.001 A 
ATOM     31  C   UNL     1       2.214   4.027  -3.527  0.00  0.00    +0.004 A 
ATOM     32  C   UNL     1       2.093   4.677  -2.316  0.00  0.00    +0.046 A 
ATOM     33  N   UNL     1      -0.036   1.337   0.004  0.00  0.00    -0.281 N 
ATOM     34  C   UNL     1      -0.016  -0.010  -0.006  0.00  0.00    +0.310 C 
ATOM     35  O   UNL     1      -1.016  -0.701  -0.009  0.00  0.00    -0.252 OA
ATOM     36  H   UNL     1      -0.821   1.906   0.006  0.00  0.00    +0.152 HD
ENDBRANCH  19  20
ENDBRANCH   2  19
TORSDOF 6
