REMARK  Name = ZINC60199737
REMARK  11 active torsions:
REMARK  status: ('A' for Active; 'I' for Inactive)
REMARK    1  A    between atoms: C_1  and  C_2
REMARK    2  A    between atoms: C_6  and  C_8
REMARK    3  A    between atoms: N_10  and  C_11
REMARK    4  A    between atoms: C_11  and  C_13
REMARK    5  A    between atoms: C_11  and  C_16
REMARK    6  A    between atoms: C_13  and  C_14
REMARK    7  A    between atoms: C_13  and  C_15
REMARK    8  A    between atoms: N_18  and  C_19
REMARK    9  A    between atoms: C_19  and  C_21
REMARK   10  A    between atoms: C_19  and  C_22
REMARK   11  A    between atoms: C_26  and  C_28
REMARK                            x       y       z     vdW  Elec       q    Type
REMARK                         _______ _______ _______ _____ _____    ______ ____
ROOT
ATOM      1  C   UNL     1       0.787  -6.232   3.555  0.00  0.00    +0.234 C 
ATOM      2  O   UNL     1       1.290  -6.406   2.466  0.00  0.00    -0.274 OA
ATOM      3  N   UNL     1       0.804  -7.220   4.472  0.00  0.00    -0.304 N 
ATOM      4  H   UNL     1       0.472  -7.057   5.368  0.00  0.00    +0.149 HD
ENDROOT
BRANCH   3   5
ATOM      5  C   UNL     1       1.325  -8.542   4.114  0.00  0.00    +0.134 C 
ATOM      6  C   UNL     1       0.216  -9.367   3.459  0.00  0.00    +0.036 C 
BRANCH   5   7
ATOM      7  C   UNL     1       1.808  -9.245   5.356  0.00  0.00    +0.105 A 
ATOM      8  N   UNL     1       1.304  -9.078   6.598  0.00  0.00    -0.348 N 
ATOM      9  H   UNL     1       0.574  -8.490   6.847  0.00  0.00    +0.167 HD
ATOM     10  C   UNL     1       2.011  -9.890   7.440  0.00  0.00    +0.110 A 
ATOM     11  C   UNL     1       2.934 -10.533   6.678  0.00  0.00    +0.064 A 
ATOM     12  N   UNL     1       2.776 -10.117   5.405  0.00  0.00    -0.342 N 
ATOM     13  H   UNL     1       3.301 -10.417   4.646  0.00  0.00    +0.167 HD
BRANCH  11  14
ATOM     14  C   UNL     1       3.932 -11.520   7.159  0.00  0.00    -0.000 A 
ATOM     15  C   UNL     1       4.828 -12.101   6.264  0.00  0.00    +0.010 A 
ATOM     16  C   UNL     1       5.754 -13.019   6.716  0.00  0.00    +0.001 A 
ATOM     17  C   UNL     1       5.793 -13.362   8.056  0.00  0.00    +0.000 A 
ATOM     18  C   UNL     1       4.906 -12.789   8.949  0.00  0.00    +0.001 A 
ATOM     19  C   UNL     1       3.980 -11.865   8.508  0.00  0.00    +0.010 A 
ENDBRANCH  11  14
ENDBRANCH   5   7
ENDBRANCH   3   5
BRANCH   1  20
ATOM     20  C   UNL     1       0.143  -4.910   3.885  0.00  0.00    +0.162 C 
BRANCH  20  23
ATOM     21  C   UNL     1       0.602  -2.590   3.299  0.00  0.00    +0.245 C 
ATOM     22  O   UNL     1       0.205  -2.264   4.401  0.00  0.00    -0.270 OA
ATOM     23  N   UNL     1       0.612  -3.890   2.944  0.00  0.00    -0.300 N 
ATOM     24  H   UNL     1       0.929  -4.151   2.065  0.00  0.00    +0.150 HD
BRANCH  21  30
ATOM     25  C   UNL     1       1.500   2.197   2.215  0.00  0.00    +0.044 C 
ATOM     26  C   UNL     1       1.509   0.742   1.823  0.00  0.00    -0.050 A 
ATOM     27  C   UNL     1       1.961   0.367   0.570  0.00  0.00    +0.003 A 
ATOM     28  C   UNL     1       1.972  -0.966   0.202  0.00  0.00    +0.001 A 
ATOM     29  C   UNL     1       1.532  -1.932   1.084  0.00  0.00    +0.013 A 
ATOM     30  C   UNL     1       1.075  -1.561   2.349  0.00  0.00    +0.037 A 
ATOM     31  C   UNL     1       1.072  -0.214   2.716  0.00  0.00    +0.016 A 
ENDBRANCH  21  30
ENDBRANCH  20  23
BRANCH  20  32
ATOM     32  C   UNL     1      -1.378  -5.043   3.777  0.00  0.00    +0.012 C 
ATOM     33  C   UNL     1      -2.037  -3.736   4.223  0.00  0.00    +0.009 C 
ATOM     34  C   UNL     1      -1.762  -5.340   2.326  0.00  0.00    +0.009 C 
ENDBRANCH  20  32
ENDBRANCH   1  20
TORSDOF 7
