REMARK  Name = ZINC63472726
REMARK  3 active torsions:
REMARK  status: ('A' for Active; 'I' for Inactive)
REMARK    1  A    between atoms: C_7  and  C_10
REMARK    2  A    between atoms: C_10  and  C_11
REMARK    3  A    between atoms: N_19  and  C_22
REMARK                            x       y       z     vdW  Elec       q    Type
REMARK                         _______ _______ _______ _____ _____    ______ ____
ROOT
ATOM      1  C   UNL     1       0.457  -3.653  -1.462  0.00  0.00    +0.072 C 
ATOM      2  C   UNL     1      -0.476  -4.883  -1.481  0.00  0.00    +0.107 C 
ATOM      3  C   UNL     1       0.480  -6.108  -1.529  0.00  0.00    +0.122 C 
ATOM      4  C   UNL     1       0.181  -6.729  -2.875  0.00  0.00    +0.228 C 
ATOM      5  O   UNL     1       0.709  -7.726  -3.319  0.00  0.00    -0.275 OA
ATOM      6  N   UNL     1      -0.756  -6.007  -3.500  0.00  0.00    -0.238 N 
ATOM      7  C   UNL     1      -1.205  -4.937  -2.804  0.00  0.00    +0.227 C 
ATOM      8  O   UNL     1      -2.049  -4.149  -3.172  0.00  0.00    -0.275 OA
ATOM      9  C   UNL     1       1.887  -5.500  -1.525  0.00  0.00    +0.136 C 
ATOM     10  N   UNL     1       1.730  -4.127  -2.065  0.00  0.00    -0.295 NA
ATOM     11  C   UNL     1       2.841  -6.301  -2.363  0.00  0.00    +0.006 A 
ATOM     12  C   UNL     1       2.863  -6.661  -3.692  0.00  0.00    +0.046 A 
ATOM     13  C   UNL     1       3.908  -7.425  -4.186  0.00  0.00    +0.124 A 
ATOM     14  C   UNL     1       4.928  -7.825  -3.340  0.00  0.00    +0.040 A 
ATOM     15  C   UNL     1       4.908  -7.467  -2.008  0.00  0.00    +0.026 A 
ATOM     16  C   UNL     1       3.861  -6.699  -1.504  0.00  0.00    +0.039 A 
ATOM     17  N   UNL     1       3.621  -6.217  -0.214  0.00  0.00    -0.283 N 
ATOM     18  C   UNL     1       2.482  -5.503  -0.143  0.00  0.00    +0.243 C 
ATOM     19  O   UNL     1       2.024  -4.966   0.844  0.00  0.00    -0.273 OA
ATOM     20  F   UNL     1       3.931  -7.779  -5.490  0.00  0.00    -0.205 F 
ATOM     21  H   UNL     1       1.674  -4.129  -3.073  0.00  0.00    +0.124 HD
ATOM     22  H   UNL     1       4.207  -6.379   0.542  0.00  0.00    +0.155 HD
ENDROOT
BRANCH   6  23
ATOM     23  C   UNL     1      -1.262  -6.349  -4.832  0.00  0.00    +0.084 C 
ATOM     24  C   UNL     1      -0.989  -5.192  -5.794  0.00  0.00    +0.023 C 
ATOM     25  C   UNL     1      -1.518  -5.549  -7.185  0.00  0.00    +0.002 C 
ATOM     26  C   UNL     1      -3.025  -5.803  -7.107  0.00  0.00    +0.000 C 
ATOM     27  C   UNL     1      -3.299  -6.960  -6.144  0.00  0.00    +0.002 C 
ATOM     28  C   UNL     1      -2.769  -6.603  -4.754  0.00  0.00    +0.023 C 
ENDBRANCH   6  23
BRANCH   1  29
ATOM     29  C   UNL     1       0.691  -3.186  -0.024  0.00  0.00    +0.052 C 
BRANCH  29  36
ATOM     30  C   UNL     1      -3.380  -3.355   2.087  0.00  0.00    +0.001 A 
ATOM     31  C   UNL     1      -4.001  -2.104   2.212  0.00  0.00    +0.002 A 
ATOM     32  C   UNL     1      -3.444  -0.964   1.751  0.00  0.00    +0.026 A 
ATOM     33  C   UNL     1      -2.177  -0.993   1.106  0.00  0.00    +0.043 A 
ATOM     34  N   UNL     1      -1.442  -0.042   0.582  0.00  0.00    -0.380 N 
ATOM     35  C   UNL     1      -0.214  -0.641   0.046  0.00  0.00    +0.144 C 
ATOM     36  C   UNL     1      -0.318  -2.123   0.329  0.00  0.00    -0.040 C 
ATOM     37  C   UNL     1      -1.500  -2.302   0.962  0.00  0.00    -0.001 A 
ATOM     38  C   UNL     1      -2.174  -3.494   1.492  0.00  0.00    +0.010 A 
ATOM     39  H   UNL     1      -1.671   0.900   0.554  0.00  0.00    +0.160 HD
ENDBRANCH  29  36
ENDBRANCH   1  29
TORSDOF 3
