REMARK  Name = ZINC03143094
REMARK  12 active torsions:
REMARK  status: ('A' for Active; 'I' for Inactive)
REMARK    1  A    between atoms: C_1  and  C_2
REMARK    2  A    between atoms: C_2  and  C_3
REMARK    3  A    between atoms: C_3  and  C_5
REMARK    4  A    between atoms: C_3  and  N_29
REMARK    5  A    between atoms: N_7  and  C_8
REMARK    6  A    between atoms: N_7  and  C_9
REMARK    7  A    between atoms: C_9  and  C_11
REMARK    8  A    between atoms: C_9  and  C_18
REMARK    9  A    between atoms: C_14  and  O_17
REMARK   10  A    between atoms: N_20  and  C_21
REMARK   11  A    between atoms: C_22  and  C_28
REMARK   12  A    between atoms: C_26  and  C_27
REMARK                            x       y       z     vdW  Elec       q    Type
REMARK                         _______ _______ _______ _____ _____    ______ ____
ROOT
ATOM      1  C   UNL     1       1.439  -4.406  -0.032  0.00  0.00    +0.192 C 
ENDROOT
BRANCH   1   2
ATOM      2  C   UNL     1       2.834  -4.023   0.392  0.00  0.00    -0.018 A 
ATOM      3  C   UNL     1       3.067  -3.586   1.683  0.00  0.00    +0.009 A 
ATOM      4  C   UNL     1       4.344  -3.234   2.075  0.00  0.00    +0.046 A 
ATOM      5  C   UNL     1       5.393  -3.320   1.171  0.00  0.00    +0.117 A 
ATOM      6  C   UNL     1       5.157  -3.760  -0.123  0.00  0.00    +0.046 A 
ATOM      7  C   UNL     1       3.879  -4.116  -0.508  0.00  0.00    +0.009 A 
BRANCH   5   8
ATOM      8  O   UNL     1       6.651  -2.974   1.554  0.00  0.00    -0.507 OA
ATOM      9  H   UNL     1       7.166  -3.706   1.920  0.00  0.00    +0.292 HD
ENDBRANCH   5   8
ENDBRANCH   1   2
BRANCH   1  12
ATOM     10  C   UNL     1       0.307  -3.439  -1.961  0.00  0.00    +0.237 C 
ATOM     11  O   UNL     1       0.372  -4.521  -2.505  0.00  0.00    -0.274 OA
ATOM     12  N   UNL     1       0.811  -3.276  -0.722  0.00  0.00    -0.287 N 
ATOM     13  C   UNL     1       0.732  -1.969  -0.065  0.00  0.00    +0.133 C 
BRANCH  10  14
ATOM     14  C   UNL     1      -0.339  -2.277  -2.671  0.00  0.00    +0.170 C 
BRANCH  14  15
ATOM     15  N   UNL     1      -0.804  -2.709  -3.991  0.00  0.00    -0.222 N 
ATOM     16  C   UNL     1      -1.709  -3.682  -4.199  0.00  0.00    +0.254 C 
ATOM     17  O   UNL     1      -2.262  -4.332  -3.335  0.00  0.00    -0.270 OA
ATOM     18  C   UNL     1      -1.919  -3.827  -5.655  0.00  0.00    +0.049 A 
ATOM     19  C   UNL     1      -2.713  -4.646  -6.442  0.00  0.00    +0.014 A 
ATOM     20  C   UNL     1      -2.672  -4.523  -7.822  0.00  0.00    +0.001 A 
ATOM     21  C   UNL     1      -1.845  -3.589  -8.418  0.00  0.00    +0.001 A 
ATOM     22  C   UNL     1      -1.045  -2.763  -7.644  0.00  0.00    +0.014 A 
ATOM     23  C   UNL     1      -1.075  -2.875  -6.263  0.00  0.00    +0.049 A 
ATOM     24  C   UNL     1      -0.386  -2.180  -5.155  0.00  0.00    +0.254 C 
ATOM     25  O   UNL     1       0.425  -1.284  -5.276  0.00  0.00    -0.270 OA
ENDBRANCH  14  15
BRANCH  14  27
ATOM     26  C   UNL     1      -2.108  -0.521  -2.505  0.00  0.00    +0.006 C 
ATOM     27  C   UNL     1      -1.529  -1.776  -1.850  0.00  0.00    +0.029 C 
ENDBRANCH  14  27
ENDBRANCH  10  14
ENDBRANCH   1  12
BRANCH   1  28
ATOM     28  C   UNL     1       0.625  -4.767   1.184  0.00  0.00    +0.242 C 
ATOM     29  O   UNL     1      -0.380  -4.143   1.448  0.00  0.00    -0.273 OA
ATOM     30  N   UNL     1       1.015  -5.785   1.978  0.00  0.00    -0.283 N 
ATOM     31  H   UNL     1       1.813  -6.291   1.760  0.00  0.00    +0.155 HD
BRANCH  30  32
ATOM     32  C   UNL     1       0.268  -6.110   3.115  0.00  0.00    +0.039 A 
ATOM     33  C   UNL     1      -0.225  -5.103   3.935  0.00  0.00    -0.029 A 
ATOM     34  C   UNL     1      -0.961  -5.427   5.058  0.00  0.00    +0.005 A 
ATOM     35  C   UNL     1      -1.208  -6.753   5.365  0.00  0.00    +0.001 A 
ATOM     36  C   UNL     1      -0.719  -7.757   4.551  0.00  0.00    +0.005 A 
ATOM     37  C   UNL     1       0.014  -7.440   3.424  0.00  0.00    -0.029 A 
ATOM     38  C   UNL     1       0.541  -8.535   2.533  0.00  0.00    +0.045 C 
ATOM     39  C   UNL     1       0.044  -3.659   3.601  0.00  0.00    +0.045 C 
ENDBRANCH  30  32
ENDBRANCH   1  28
TORSDOF 8
