REMARK  Name = ZINC47084370
REMARK  5 active torsions:
REMARK  status: ('A' for Active; 'I' for Inactive)
REMARK    1  A    between atoms: C_1  and  C_2
REMARK    2  A    between atoms: C_2  and  C_3
REMARK    3  A    between atoms: C_2  and  C_4
REMARK    4  A    between atoms: C_2  and  C_18
REMARK    5  A    between atoms: C_4  and  N_5
REMARK                            x       y       z     vdW  Elec       q    Type
REMARK                         _______ _______ _______ _____ _____    ______ ____
ROOT
ATOM      1  N   UNL     1      -2.118  -0.065   1.220  0.00  0.00    -0.298 N 
ATOM      2  C   UNL     1      -3.403  -0.406   1.442  0.00  0.00    +0.302 C 
ATOM      3  O   UNL     1      -4.021  -1.028   0.600  0.00  0.00    -0.253 OA
ATOM      4  N   UNL     1      -4.003  -0.056   2.597  0.00  0.00    -0.285 N 
ATOM      5  C   UNL     1      -5.362  -0.521   2.905  0.00  0.00    +0.114 C 
ATOM      6  C   UNL     1      -6.235   0.693   3.237  0.00  0.00    +0.084 C 
ATOM      7  C   UNL     1      -5.575   1.502   4.355  0.00  0.00    +0.173 C 
ATOM      8  C   UNL     1      -4.203   1.999   3.897  0.00  0.00    +0.084 C 
ATOM      9  C   UNL     1      -3.308   0.792   3.575  0.00  0.00    +0.114 C 
ATOM     10  O   UNL     1      -6.404   2.622   4.691  0.00  0.00    -0.346 OA
ATOM     11  C   UNL     1      -6.755   2.491   6.084  0.00  0.00    +0.191 C 
ATOM     12  C   UNL     1      -5.647   1.561   6.638  0.00  0.00    +0.191 C 
ATOM     13  O   UNL     1      -5.420   0.673   5.518  0.00  0.00    -0.346 OA
ATOM     14  H   UNL     1      -1.646   0.492   1.859  0.00  0.00    +0.150 HD
ENDROOT
BRANCH   1  15
ATOM     15  C   UNL     1      -1.432  -0.537   0.015  0.00  0.00    +0.116 C 
BRANCH  15  17
ATOM     16  C   UNL     1      -0.011   1.517   0.018  0.00  0.00    +0.017 C 
ATOM     17  C   UNL     1       0.005  -0.013   0.006  0.00  0.00    +0.006 C 
ATOM     18  C   UNL     1       0.742  -0.525   1.245  0.00  0.00    +0.017 C 
BRANCH  17  19
ATOM     19  C   UNL     1       0.710  -0.499  -1.234  0.00  0.00    -0.040 A 
ATOM     20  C   UNL     1       0.036  -1.289  -2.147  0.00  0.00    +0.005 A 
ATOM     21  C   UNL     1       0.682  -1.734  -3.285  0.00  0.00    +0.015 A 
ATOM     22  C   UNL     1       2.003  -1.390  -3.510  0.00  0.00    +0.018 A 
ATOM     23  C   UNL     1       2.676  -0.599  -2.596  0.00  0.00    +0.015 A 
ATOM     24  C   UNL     1       2.028  -0.150  -1.461  0.00  0.00    +0.005 A 
ATOM     25 BR   UNL     1       2.887  -1.999  -5.066  0.00  0.00    -0.050 Br
ENDBRANCH  17  19
ENDBRANCH  15  17
ENDBRANCH   1  15
TORSDOF 3
