REMARK  Name = ZINC54303956
REMARK  5 active torsions:
REMARK  status: ('A' for Active; 'I' for Inactive)
REMARK    1  A    between atoms: C_1  and  C_2
REMARK    2  A    between atoms: C_2  and  C_4
REMARK    3  A    between atoms: C_2  and  N_9
REMARK    4  A    between atoms: C_16  and  C_19
REMARK    5  A    between atoms: C_19  and  C_20
REMARK                            x       y       z     vdW  Elec       q    Type
REMARK                         _______ _______ _______ _____ _____    ______ ____
ROOT
ATOM      1  N   UNL     1      -1.372  -0.512   0.012  0.00  0.00    -0.290 N 
ATOM      2  C   UNL     1      -2.051  -0.643  -1.145  0.00  0.00    +0.303 C 
ATOM      3  O   UNL     1      -1.557  -0.255  -2.186  0.00  0.00    -0.253 OA
ATOM      4  N   UNL     1      -3.277  -1.203  -1.147  0.00  0.00    -0.285 N 
ATOM      5  C   UNL     1      -3.935  -1.569   0.115  0.00  0.00    +0.109 C 
ATOM      6  C   UNL     1      -4.353  -3.041   0.043  0.00  0.00    +0.019 C 
ATOM      7  C   UNL     1      -5.214  -3.263  -1.202  0.00  0.00    +0.007 C 
ATOM      8  C   UNL     1      -4.398  -2.931  -2.454  0.00  0.00    +0.017 C 
ATOM      9  C   UNL     1      -3.983  -1.453  -2.411  0.00  0.00    +0.113 C 
ATOM     10  H   UNL     1      -1.794  -0.753   0.852  0.00  0.00    +0.151 HD
ENDROOT
BRANCH   1  12
ATOM     11  C   UNL     1      -0.016   1.524   0.010  0.00  0.00    +0.036 C 
ATOM     12  C   UNL     1       0.003  -0.006   0.002  0.00  0.00    +0.137 C 
BRANCH  12  13
ATOM     13  C   UNL     1       0.732  -0.506   1.222  0.00  0.00    +0.125 A 
ATOM     14  C   UNL     1       2.009  -0.926   1.259  0.00  0.00    +0.046 A 
ATOM     15  C   UNL     1       2.278  -1.303   2.595  0.00  0.00    +0.041 A 
ATOM     16  C   UNL     1       1.149  -1.091   3.295  0.00  0.00    +0.195 A 
ATOM     17  O   UNL     1       0.218  -0.603   2.459  0.00  0.00    -0.466 OA
ENDBRANCH  12  13
ENDBRANCH   1  12
BRANCH   8  18
ATOM     18  C   UNL     1      -5.249  -3.185  -3.700  0.00  0.00    +0.130 C 
BRANCH  18  19
ATOM     19  C   UNL     1      -4.408  -2.977  -4.934  0.00  0.00    +0.356 C 
ATOM     20  O   UNL     1      -3.237  -2.655  -4.826  0.00  0.00    -0.246 OA
ATOM     21  O   UNL     1      -4.899  -3.130  -6.039  0.00  0.00    -0.246 OA
ENDBRANCH  18  19
ENDBRANCH   8  18
TORSDOF 4
