REMARK  Name = ZINC37120817
REMARK  5 active torsions:
REMARK  status: ('A' for Active; 'I' for Inactive)
REMARK    1  A    between atoms: C_1  and  C_2
REMARK    2  A    between atoms: C_4  and  C_20
REMARK    3  A    between atoms: C_7  and  N_8
REMARK    4  A    between atoms: N_8  and  C_9
REMARK    5  A    between atoms: N_18  and  C_19
REMARK                            x       y       z     vdW  Elec       q    Type
REMARK                         _______ _______ _______ _____ _____    ______ ____
ROOT
ATOM      1  N   UNL     1       0.025  -0.015   2.410  0.00  0.00    -0.337 N 
ATOM      2  H   UNL     1       0.012   0.955   2.413  0.00  0.00    +0.147 HD
ENDROOT
BRANCH   1   3
ATOM      3  C   UNL     1       0.047  -0.752   3.676  0.00  0.00    +0.104 C 
ATOM      4  C   UNL     1       0.644   0.133   4.778  0.00  0.00    +0.027 C 
ATOM      5  C   UNL     1       0.432  -0.534   6.140  0.00  0.00    +0.008 C 
ATOM      6  C   UNL     1      -1.057  -0.487   6.506  0.00  0.00    +0.055 C 
ATOM      7  C   UNL     1      -1.852  -1.002   5.333  0.00  0.00    +0.044 A 
ATOM      8  C   UNL     1      -1.360  -1.122   4.073  0.00  0.00    +0.013 A 
ATOM      9  C   UNL     1      -2.372  -1.631   3.262  0.00  0.00    +0.140 A 
ATOM     10  N   UNL     1      -3.437  -1.812   4.005  0.00  0.00    -0.179 NA
ATOM     11  N   UNL     1      -3.129  -1.418   5.317  0.00  0.00    -0.271 N 
ATOM     12  C   UNL     1      -4.039  -1.455   6.465  0.00  0.00    +0.172 C 
ENDBRANCH   1   3
BRANCH   1  19
ATOM     13  C   UNL     1      -0.018   1.503   0.010  0.00  0.00    +0.045 C 
ATOM     14  C   UNL     1       0.002  -0.004   0.002  0.00  0.00    -0.029 A 
ATOM     15  C   UNL     1       0.006  -0.680  -1.185  0.00  0.00    +0.020 A 
ATOM     16  C   UNL     1       0.025  -2.079  -1.192  0.00  0.00    +0.064 A 
ATOM     17  C   UNL     1       0.040  -2.781   0.019  0.00  0.00    +0.017 A 
ATOM     18  C   UNL     1       0.036  -2.099   1.202  0.00  0.00    +0.024 A 
ATOM     19  C   UNL     1       0.023  -0.706   1.205  0.00  0.00    +0.031 A 
BRANCH  16  20
ATOM     20  C   UNL     1       0.028  -2.811  -2.469  0.00  0.00    +0.387 C 
ATOM     21  O   UNL     1       0.014  -2.195  -3.526  0.00  0.00    -0.241 OA
ATOM     22  O   UNL     1       0.045  -4.034  -2.473  0.00  0.00    -0.241 OA
ENDBRANCH  16  20
ENDBRANCH   1  19
TORSDOF 3
