REMARK  Name = ZINC27668439
REMARK  9 active torsions:
REMARK  status: ('A' for Active; 'I' for Inactive)
REMARK    1  A    between atoms: C_1  and  O_2
REMARK    2  A    between atoms: O_2  and  C_3
REMARK    3  A    between atoms: C_6  and  C_9
REMARK    4  A    between atoms: C_9  and  C_11
REMARK    5  A    between atoms: C_9  and  N_25
REMARK    6  A    between atoms: C_11  and  N_12
REMARK    7  A    between atoms: C_13  and  C_15
REMARK    8  A    between atoms: C_15  and  N_16
REMARK    9  A    between atoms: C_17  and  C_19
REMARK                            x       y       z     vdW  Elec       q    Type
REMARK                         _______ _______ _______ _____ _____    ______ ____
ROOT
ATOM      1  C   UNL     1      -1.143   3.580  -0.037  0.00  0.00    -0.020 C 
ENDROOT
BRANCH   1   2
ATOM      2  N   UNL     1      -0.384   3.952  -1.239  0.00  0.00    +0.385 N 
ATOM      3  C   UNL     1       0.862   3.179  -1.334  0.00  0.00    -0.078 C 
ATOM      4  C   UNL     1       1.553   3.485  -2.665  0.00  0.00    -0.019 C 
ATOM      5  C   UNL     1       1.853   4.984  -2.745  0.00  0.00    -0.004 C 
ATOM      6  C   UNL     1       0.546   5.768  -2.595  0.00  0.00    -0.019 C 
ATOM      7  C   UNL     1      -0.116   5.396  -1.266  0.00  0.00    -0.078 C 
ATOM      8  H   UNL     1      -0.998   3.708  -2.118  0.00  0.00    -0.081 HD
ENDBRANCH   1   2
BRANCH   1  12
ATOM      9  C   UNL     1      -4.821   5.755   0.051  0.00  0.00    +0.120 A 
ATOM     10  C   UNL     1      -4.103   5.556   1.221  0.00  0.00    +0.046 A 
ATOM     11  C   UNL     1      -2.914   4.852   1.190  0.00  0.00    +0.005 A 
ATOM     12  C   UNL     1      -2.440   4.347  -0.006  0.00  0.00    -0.059 A 
ATOM     13  C   UNL     1      -3.151   4.548  -1.175  0.00  0.00    +0.005 A 
ATOM     14  C   UNL     1      -4.343   5.246  -1.148  0.00  0.00    +0.046 A 
BRANCH   9  16
ATOM     15  C   UNL     1      -6.676   6.612  -1.163  0.00  0.00    +0.277 C 
ATOM     16  O   UNL     1      -5.990   6.447   0.079  0.00  0.00    -0.495 OA
ENDBRANCH   9  16
ENDBRANCH   1  12
BRANCH   1  17
ATOM     17  C   UNL     1      -1.438   2.079  -0.065  0.00  0.00    +0.093 C 
BRANCH  17  18
ATOM     18  N   UNL     1      -2.132   1.695   1.167  0.00  0.00    -0.315 N 
ATOM     19  C   UNL     1      -2.596   0.438   1.315  0.00  0.00    +0.230 C 
ATOM     20  O   UNL     1      -2.443  -0.373   0.427  0.00  0.00    -0.274 OA
ATOM     21  H   UNL     1      -2.275   2.433   1.970  0.00  0.00    +0.149 HD
BRANCH  19  22
ATOM     22  C   UNL     1      -3.304   0.042   2.585  0.00  0.00    +0.200 C 
BRANCH  22  23
ATOM     23  N   UNL     1      -3.708  -1.364   2.500  0.00  0.00    -0.300 N 
ATOM     24  C   UNL     1      -4.362  -1.941   3.528  0.00  0.00    +0.280 C 
ATOM     25  O   UNL     1      -4.617  -1.293   4.526  0.00  0.00    -0.267 OA
ATOM     26  H   UNL     1      -3.477  -1.949   1.597  0.00  0.00    +0.150 HD
BRANCH  24  27
ATOM     27  C   UNL     1      -4.765  -3.347   3.443  0.00  0.00    +0.191 A 
ATOM     28  C   UNL     1      -5.430  -4.051   4.407  0.00  0.00    +0.056 A 
ATOM     29  C   UNL     1      -5.609  -5.349   3.908  0.00  0.00    +0.058 A 
ATOM     30  C   UNL     1      -5.053  -5.382   2.675  0.00  0.00    +0.171 A 
ATOM     31  O   UNL     1      -4.551  -4.172   2.397  0.00  0.00    -0.444 OA
ATOM     32 BR   UNL     1      -5.000  -6.886   1.530  0.00  0.00    -0.008 Br
ENDBRANCH  24  27
ENDBRANCH  22  23
ENDBRANCH  19  22
ENDBRANCH  17  18
ENDBRANCH   1  17
TORSDOF 8
