REMARK  Name = ZINC04486942
REMARK  7 active torsions:
REMARK  status: ('A' for Active; 'I' for Inactive)
REMARK    1  A    between atoms: C_3  and  S_14
REMARK    2  A    between atoms: C_6  and  S_7
REMARK    3  A    between atoms: S_7  and  N_10
REMARK    4  A    between atoms: N_10  and  C_11
REMARK    5  A    between atoms: S_14  and  N_17
REMARK    6  A    between atoms: C_22  and  C_23
REMARK    7  A    between atoms: C_22  and  N_57
REMARK                            x       y       z     vdW  Elec       q    Type
REMARK                         _______ _______ _______ _____ _____    ______ ____
ROOT
ATOM      1  S   UNL     1      -0.017   1.417   0.010  0.00  0.00    +0.061 S 
ATOM      2  O   UNL     1       0.002  -0.004   0.002  0.00  0.00    -0.153 OA
ATOM      3  O   UNL     1       1.172   2.195   0.003  0.00  0.00    -0.153 OA
ENDROOT
BRANCH   1   4
ATOM      4  N   UNL     1      -0.897   1.885  -1.312  0.00  0.00    -0.180 NA
ATOM      5  C   UNL     1      -1.887   0.982  -1.919  0.00  0.00    +0.091 C 
ATOM      6  C   UNL     1      -3.215   1.745  -2.057  0.00  0.00    -0.061 C 
ATOM      7  C   UNL     1      -2.076   3.886  -2.056  0.00  0.00    -0.061 C 
ATOM      8  C   UNL     1      -0.706   3.213  -1.915  0.00  0.00    +0.091 C 
ATOM      9  N   UNL     1      -2.969   2.988  -2.820  0.00  0.00    +0.384 N 
ATOM     10  H   UNL     1      -2.517   2.748  -3.710  0.00  0.00    -0.081 HD
BRANCH   9  11
ATOM     11  C   UNL     1      -4.250   3.669  -3.100  0.00  0.00    -0.043 C 
BRANCH  11  12
ATOM     12  C   UNL     1      -5.238   2.663  -3.631  0.00  0.00    -0.060 A 
ATOM     13  C   UNL     1      -5.311   2.420  -4.990  0.00  0.00    +0.005 A 
ATOM     14  C   UNL     1      -6.213   1.494  -5.482  0.00  0.00    +0.050 A 
ATOM     15  C   UNL     1      -7.053   0.816  -4.614  0.00  0.00    +0.166 A 
ATOM     16  C   UNL     1      -6.983   1.066  -3.245  0.00  0.00    +0.166 A 
ATOM     17  C   UNL     1      -6.073   1.990  -2.759  0.00  0.00    +0.051 A 
ATOM     18  O   UNL     1      -7.903   0.282  -2.611  0.00  0.00    -0.453 OA
ATOM     19  C   UNL     1      -8.816  -0.148  -3.639  0.00  0.00    +0.466 C 
ATOM     20  O   UNL     1      -8.017  -0.124  -4.837  0.00  0.00    -0.453 OA
ENDBRANCH  11  12
ENDBRANCH   9  11
ENDBRANCH   1   4
BRANCH   1  23
ATOM     21  C   UNL     1      -2.559   1.412   3.121  0.00  0.00    +0.030 A 
ATOM     22  C   UNL     1      -1.846   1.033   2.000  0.00  0.00    +0.030 A 
ATOM     23  C   UNL     1      -0.927   1.900   1.439  0.00  0.00    +0.106 A 
ATOM     24  C   UNL     1      -0.717   3.145   2.004  0.00  0.00    +0.030 A 
ATOM     25  C   UNL     1      -1.434   3.526   3.123  0.00  0.00    +0.030 A 
ATOM     26  C   UNL     1      -2.353   2.659   3.683  0.00  0.00    +0.105 A 
BRANCH  26  27
ATOM     27  S   UNL     1      -3.263   3.142   5.112  0.00  0.00    +0.059 S 
ATOM     28  O   UNL     1      -3.281   4.563   5.121  0.00  0.00    -0.153 OA
ATOM     29  O   UNL     1      -4.452   2.365   5.119  0.00  0.00    -0.153 OA
BRANCH  27  30
ATOM     30  N   UNL     1      -2.383   2.672   6.435  0.00  0.00    -0.187 NA
ATOM     31  H   UNL     1      -2.734   1.996   7.035  0.00  0.00    +0.148 HD
BRANCH  30  32
ATOM     32  C   UNL     1      -1.075   3.278   6.697  0.00  0.00    +0.077 C 
ATOM     33  C   UNL     1      -0.004   2.395   7.338  0.00  0.00    +0.022 C 
ATOM     34  C   UNL     1      -0.678   3.496   8.159  0.00  0.00    +0.022 C 
ENDBRANCH  30  32
ENDBRANCH  27  30
ENDBRANCH  26  27
ENDBRANCH   1  23
TORSDOF 7
