REMARK  Name = ZINC00849877
REMARK  3 active torsions:
REMARK  status: ('A' for Active; 'I' for Inactive)
REMARK    1  A    between atoms: C_8  and  C_13
REMARK    2  A    between atoms: C_13  and  C_14
REMARK    3  A    between atoms: N_16  and  C_17
REMARK                            x       y       z     vdW  Elec       q    Type
REMARK                         _______ _______ _______ _____ _____    ______ ____
ROOT
ATOM      1  C   UNL     1       1.146   3.126   0.008  0.00  0.00    +0.002 A 
ATOM      2  C   UNL     1       1.146   1.743   0.000  0.00  0.00    +0.002 A 
ATOM      3  C   UNL     1      -0.047   1.044   0.007  0.00  0.00    +0.025 A 
ATOM      4  C   UNL     1      -1.250   1.731   0.016  0.00  0.00    +0.055 A 
ATOM      5  C   UNL     1      -1.248   3.126   0.039  0.00  0.00    +0.049 A 
ATOM      6  C   UNL     1      -0.050   3.820   0.028  0.00  0.00    +0.025 A 
ATOM      7  N   UNL     1      -2.473   3.806   0.082  0.00  0.00    -0.331 N 
ATOM      8  C   UNL     1      -3.646   3.153  -0.529  0.00  0.00    +0.166 C 
ATOM      9  C   UNL     1      -3.631   1.689  -0.168  0.00  0.00    +0.238 C 
ATOM     10  O   UNL     1      -4.678   1.091  -0.044  0.00  0.00    -0.273 OA
ATOM     11  N   UNL     1      -2.467   1.040   0.019  0.00  0.00    -0.282 N 
ATOM     12  H   UNL     1      -2.544   4.682   0.492  0.00  0.00    +0.147 HD
ATOM     13  H   UNL     1      -2.472   0.080   0.158  0.00  0.00    +0.155 HD
ENDROOT
BRANCH   8  14
ATOM     14  C   UNL     1      -3.596   3.305  -2.051  0.00  0.00    +0.127 C 
BRANCH  14  15
ATOM     15  C   UNL     1      -3.735   4.761  -2.415  0.00  0.00    +0.219 C 
ATOM     16  O   UNL     1      -3.861   5.595  -1.543  0.00  0.00    -0.275 OA
ATOM     17  N   UNL     1      -3.718   5.137  -3.709  0.00  0.00    -0.284 N 
ATOM     18  H   UNL     1      -3.537   4.482  -4.402  0.00  0.00    +0.155 HD
BRANCH  17  19
ATOM     19  C   UNL     1      -3.962   6.471  -4.053  0.00  0.00    +0.053 A 
ATOM     20  C   UNL     1      -4.702   7.285  -3.205  0.00  0.00    +0.044 A 
ATOM     21  C   UNL     1      -4.942   8.602  -3.549  0.00  0.00    +0.043 A 
ATOM     22  C   UNL     1      -4.445   9.111  -4.736  0.00  0.00    +0.021 A 
ATOM     23  C   UNL     1      -3.708   8.303  -5.582  0.00  0.00    +0.023 A 
ATOM     24  C   UNL     1      -3.460   6.987  -5.242  0.00  0.00    +0.062 A 
ATOM     25 CL   UNL     1      -2.528   5.976  -6.302  0.00  0.00    -0.082 Cl
ATOM     26 CL   UNL     1      -5.867   9.619  -2.489  0.00  0.00    -0.083 Cl
ENDBRANCH  17  19
ENDBRANCH  14  15
ENDBRANCH   8  14
TORSDOF 3
