REMARK  Name = ZINC31694458
REMARK  7 active torsions:
REMARK  status: ('A' for Active; 'I' for Inactive)
REMARK    1  A    between atoms: C_1  and  C_2
REMARK    2  A    between atoms: C_2  and  C_4
REMARK    3  A    between atoms: C_2  and  S_19
REMARK    4  A    between atoms: N_6  and  C_7
REMARK    5  A    between atoms: C_8  and  C_17
REMARK    6  A    between atoms: S_19  and  C_20
REMARK    7  A    between atoms: N_30  and  C_31
REMARK                            x       y       z     vdW  Elec       q    Type
REMARK                         _______ _______ _______ _____ _____    ______ ____
ROOT
ATOM      1  C   UNL     1       0.707  -0.490  -1.238  0.00  0.00    +0.231 C 
ATOM      2  O   UNL     1       1.864  -0.849  -1.176  0.00  0.00    -0.274 OA
ATOM      3  N   UNL     1       0.053  -0.526  -2.415  0.00  0.00    -0.278 N 
ATOM      4  H   UNL     1      -0.873  -0.239  -2.465  0.00  0.00    +0.155 HD
ENDROOT
BRANCH   3   5
ATOM      5  C   UNL     1       0.702  -0.974  -3.557  0.00  0.00    +0.090 A 
ATOM      6  C   UNL     1       0.196  -1.073  -4.841  0.00  0.00    +0.084 A 
ATOM      7  C   UNL     1       1.086  -1.578  -5.876  0.00  0.00    -0.018 A 
ATOM      8  C   UNL     1       2.320  -1.894  -5.429  0.00  0.00    -0.004 A 
ATOM      9  S   UNL     1       2.286  -1.512  -3.700  0.00  0.00    -0.077 S 
ATOM     10  C   UNL     1       3.463  -2.453  -6.218  0.00  0.00    +0.043 C 
ATOM     11  C   UNL     1       3.648  -1.621  -7.494  0.00  0.00    +0.005 C 
ATOM     12  C   UNL     1       2.780  -2.220  -8.596  0.00  0.00    +0.001 C 
ATOM     13  C   UNL     1       1.504  -2.812  -8.001  0.00  0.00    +0.005 C 
ATOM     14  C   UNL     1       0.672  -1.723  -7.333  0.00  0.00    +0.037 C 
BRANCH   6  15
ATOM     15  C   UNL     1      -1.153  -0.695  -5.139  0.00  0.00    +0.102 C 
ATOM     16  N   UNL     1      -2.223  -0.395  -5.376  0.00  0.00    -0.191 NA
ENDBRANCH   6  15
ENDBRANCH   3   5
BRANCH   1  18
ATOM     17  C   UNL     1      -0.019   1.526   0.010  0.00  0.00    +0.029 C 
ATOM     18  C   UNL     1       0.002  -0.004   0.002  0.00  0.00    +0.137 C 
BRANCH  18  19
ATOM     19  S   UNL     1       0.879  -0.605   1.472  0.00  0.00    -0.075 S 
BRANCH  19  20
ATOM     20  C   UNL     1      -0.136  -0.087   2.816  0.00  0.00    +0.173 A 
ATOM     21  N   UNL     1      -1.238   0.570   2.549  0.00  0.00    -0.223 NA
ATOM     22  C   UNL     1      -2.061   0.996   3.528  0.00  0.00    +0.079 A 
ATOM     23  C   UNL     1      -3.237   1.696   3.244  0.00  0.00    +0.028 A 
ATOM     24  C   UNL     1      -4.042   2.109   4.267  0.00  0.00    +0.002 A 
ATOM     25  C   UNL     1      -3.710   1.844   5.590  0.00  0.00    +0.001 A 
ATOM     26  C   UNL     1      -2.567   1.161   5.900  0.00  0.00    +0.015 A 
ATOM     27  C   UNL     1      -1.726   0.728   4.875  0.00  0.00    +0.065 A 
ATOM     28  C   UNL     1      -0.486  -0.010   5.148  0.00  0.00    +0.262 A 
ATOM     29  O   UNL     1      -0.144  -0.272   6.287  0.00  0.00    -0.267 OA
ATOM     30  N   UNL     1       0.260  -0.394   4.086  0.00  0.00    -0.290 N 
ATOM     31  C   UNL     1       1.504  -1.137   4.301  0.00  0.00    +0.154 C 
ENDBRANCH  19  20
ENDBRANCH  18  19
ENDBRANCH   1  18
TORSDOF 5
