REMARK  Name = ZINC12913095
REMARK  8 active torsions:
REMARK  status: ('A' for Active; 'I' for Inactive)
REMARK    1  A    between atoms: C_1  and  C_2
REMARK    2  A    between atoms: N_5  and  C_11
REMARK    3  A    between atoms: C_7  and  C_10
REMARK    4  A    between atoms: C_11  and  C_12
REMARK    5  A    between atoms: C_18  and  C_20
REMARK    6  A    between atoms: C_25  and  O_26
REMARK    7  A    between atoms: O_26  and  C_27
REMARK    8  A    between atoms: C_27  and  C_28
REMARK                            x       y       z     vdW  Elec       q    Type
REMARK                         _______ _______ _______ _____ _____    ______ ____
ROOT
ATOM      1  C   UNL     1      -2.696  -4.052  -0.132  0.00  0.00    +0.064 A 
ATOM      2  C   UNL     1      -2.750  -4.892   0.931  0.00  0.00    +0.073 A 
ATOM      3  S   UNL     1      -2.623  -6.473   0.112  0.00  0.00    -0.060 S 
ATOM      4  C   UNL     1      -2.516  -5.909  -1.470  0.00  0.00    +0.165 A 
ATOM      5  N   UNL     1      -2.583  -4.602  -1.327  0.00  0.00    -0.228 NA
ATOM      6  N   UNL     1      -2.392  -6.643  -2.642  0.00  0.00    -0.261 N 
ATOM      7  C   UNL     1      -2.345  -7.989  -2.592  0.00  0.00    +0.253 C 
ATOM      8  O   UNL     1      -2.410  -8.560  -1.520  0.00  0.00    -0.270 OA
ATOM      9  H   UNL     1      -2.340  -6.188  -3.497  0.00  0.00    +0.157 HD
ENDROOT
BRANCH   7  10
ATOM     10  C   UNL     1      -2.213  -8.769  -3.837  0.00  0.00    +0.079 A 
ATOM     11  C   UNL     1      -2.131  -8.117  -5.069  0.00  0.00    +0.017 A 
ATOM     12  C   UNL     1      -2.009  -8.851  -6.229  0.00  0.00    +0.001 A 
ATOM     13  C   UNL     1      -1.966 -10.235  -6.178  0.00  0.00    +0.004 A 
ATOM     14  C   UNL     1      -2.046 -10.893  -4.967  0.00  0.00    +0.046 A 
ATOM     15  C   UNL     1      -2.163 -10.169  -3.789  0.00  0.00    +0.133 A 
BRANCH  15  16
ATOM     16  O   UNL     1      -2.235 -10.814  -2.598  0.00  0.00    -0.487 OA
BRANCH  16  17
ATOM     17  C   UNL     1      -2.178 -12.241  -2.628  0.00  0.00    +0.256 C 
BRANCH  17  18
ATOM     18  C   UNL     1      -2.271 -12.777  -1.223  0.00  0.00    +0.006 C 
ATOM     19  C   UNL     1      -3.059 -13.790  -0.959  0.00  0.00    +0.007 C 
ENDBRANCH  17  18
ENDBRANCH  16  17
ENDBRANCH  15  16
ENDBRANCH   7  10
BRANCH   1  20
ATOM     20  C   UNL     1      -2.768  -2.557   0.042  0.00  0.00    +0.140 C 
BRANCH  20  24
ATOM     21  C   UNL     1      -0.019   1.526   0.010  0.00  0.00    +0.039 C 
ATOM     22  C   UNL     1       0.002  -0.004   0.002  0.00  0.00    +0.130 C 
ATOM     23  C   UNL     1      -1.434  -0.535   0.015  0.00  0.00    +0.116 C 
ATOM     24  N   UNL     1      -1.407  -2.003   0.085  0.00  0.00    -0.292 NA
ATOM     25  C   UNL     1      -0.692  -2.455   1.287  0.00  0.00    +0.116 C 
ATOM     26  C   UNL     1       0.736  -1.905   1.261  0.00  0.00    +0.130 C 
ATOM     27  O   UNL     1       0.692  -0.479   1.161  0.00  0.00    -0.371 OA
ATOM     28  C   UNL     1       1.461  -2.305   2.548  0.00  0.00    +0.039 C 
ENDBRANCH  20  24
ENDBRANCH   1  20
TORSDOF 6
