REMARK  Name = ZINC63187712
REMARK  7 active torsions:
REMARK  status: ('A' for Active; 'I' for Inactive)
REMARK    1  A    between atoms: C_7  and  C_10
REMARK    2  A    between atoms: C_10  and  C_11
REMARK    3  A    between atoms: C_11  and  N_12
REMARK    4  A    between atoms: C_13  and  C_15
REMARK    5  A    between atoms: C_15  and  N_16
REMARK    6  A    between atoms: N_19  and  C_22
REMARK    7  A    between atoms: C_22  and  C_23
REMARK                            x       y       z     vdW  Elec       q    Type
REMARK                         _______ _______ _______ _____ _____    ______ ____
ROOT
ATOM      1  N   UNL     1      -1.769  -6.864  -4.164  0.00  0.00    -0.292 NA
ATOM      2  C   UNL     1      -2.479  -5.864  -4.973  0.00  0.00    +0.100 C 
ATOM      3  C   UNL     1      -2.707  -6.418  -6.381  0.00  0.00    +0.100 C 
ATOM      4  N   UNL     1      -3.479  -7.666  -6.295  0.00  0.00    -0.295 NA
ATOM      5  C   UNL     1      -2.769  -8.666  -5.486  0.00  0.00    +0.100 C 
ATOM      6  C   UNL     1      -2.541  -8.111  -4.078  0.00  0.00    +0.100 C 
ENDROOT
BRANCH   1   7
ATOM      7  C   UNL     1      -1.464  -6.340  -2.826  0.00  0.00    +0.180 C 
BRANCH   7   9
ATOM      8  N   UNL     1      -0.046  -4.572  -1.836  0.00  0.00    -0.314 N 
ATOM      9  C   UNL     1      -0.474  -5.210  -2.943  0.00  0.00    +0.227 C 
ATOM     10  O   UNL     1      -0.063  -4.874  -4.034  0.00  0.00    -0.274 OA
ATOM     11  H   UNL     1      -0.375  -4.840  -0.964  0.00  0.00    +0.149 HD
BRANCH   8  12
ATOM     12  C   UNL     1       0.916  -3.473  -1.949  0.00  0.00    +0.108 C 
BRANCH  12  13
ATOM     13  C   UNL     1       1.233  -2.926  -0.556  0.00  0.00    +0.052 C 
BRANCH  13  20
ATOM     14  C   UNL     1       0.726   1.628  -0.788  0.00  0.00    +0.001 A 
ATOM     15  C   UNL     1       1.938   2.324  -0.893  0.00  0.00    +0.002 A 
ATOM     16  C   UNL     1       3.136   1.702  -0.921  0.00  0.00    +0.026 A 
ATOM     17  C   UNL     1       3.212   0.284  -0.844  0.00  0.00    +0.043 A 
ATOM     18  N   UNL     1       4.233  -0.537  -0.853  0.00  0.00    -0.380 N 
ATOM     19  C   UNL     1       3.730  -1.911  -0.747  0.00  0.00    +0.144 C 
ATOM     20  C   UNL     1       2.224  -1.796  -0.673  0.00  0.00    -0.040 C 
ATOM     21  C   UNL     1       1.945  -0.474  -0.733  0.00  0.00    -0.001 A 
ATOM     22  C   UNL     1       0.685   0.279  -0.709  0.00  0.00    +0.010 A 
ATOM     23  H   UNL     1       5.166  -0.280  -0.918  0.00  0.00    +0.160 HD
ENDBRANCH  13  20
ENDBRANCH  12  13
ENDBRANCH   8  12
ENDBRANCH   7   9
ENDBRANCH   1   7
BRANCH   4  24
ATOM     24  C   UNL     1      -3.783  -8.190  -7.633  0.00  0.00    +0.135 C 
BRANCH  24  25
ATOM     25  C   UNL     1      -4.887  -7.374  -8.253  0.00  0.00    +0.025 C 
ATOM     26  N   UNL     1      -6.143  -7.372  -7.692  0.00  0.00    -0.319 N 
ATOM     27  C   UNL     1      -7.284  -7.173  -8.595  0.00  0.00    +0.230 C 
ATOM     28  N   UNL     1      -6.938  -6.004  -9.459  0.00  0.00    -0.245 N 
ATOM     29  C   UNL     1      -7.979  -5.111  -9.619  0.00  0.00    +0.088 C 
ATOM     30  C   UNL     1      -9.040  -5.110  -8.818  0.00  0.00    +0.059 C 
ATOM     31  S   UNL     1      -8.692  -6.456  -7.653  0.00  0.00    -0.090 S 
ATOM     32  C   UNL     1      -5.677  -5.866  -9.948  0.00  0.00    +0.247 C 
ATOM     33  O   UNL     1      -5.441  -5.098 -10.864  0.00  0.00    -0.270 OA
ATOM     34  C   UNL     1      -4.645  -6.637  -9.358  0.00  0.00    +0.087 C 
ATOM     35  H   UNL     1      -6.270  -7.497  -6.739  0.00  0.00    +0.148 HD
ENDBRANCH  24  25
ENDBRANCH   4  24
TORSDOF 7
