REMARK  Name = ZINC10135800
REMARK  9 active torsions:
REMARK  status: ('A' for Active; 'I' for Inactive)
REMARK    1  A    between atoms: C_1  and  C_2
REMARK    2  A    between atoms: C_2  and  C_4
REMARK    3  A    between atoms: C_2  and  S_11
REMARK    4  A    between atoms: N_6  and  C_7
REMARK    5  A    between atoms: C_7  and  C_8
REMARK    6  A    between atoms: C_7  and  C_9
REMARK    7  A    between atoms: C_7  and  C_10
REMARK    8  A    between atoms: S_11  and  C_12
REMARK    9  A    between atoms: N_25  and  C_26
REMARK                            x       y       z     vdW  Elec       q    Type
REMARK                         _______ _______ _______ _____ _____    ______ ____
ROOT
ATOM      1  C   UNL     1      -2.319  -0.661  -1.952  0.00  0.00    +0.178 A 
ATOM      2  N   UNL     1      -1.563   0.014  -2.795  0.00  0.00    -0.215 NA
ATOM      3  C   UNL     1      -2.082   0.967  -3.560  0.00  0.00    +0.117 A 
ATOM      4  C   UNL     1      -3.446   1.304  -3.514  0.00  0.00    +0.076 A 
ATOM      5  C   UNL     1      -3.870   2.376  -4.416  0.00  0.00    -0.023 A 
ATOM      6  C   UNL     1      -2.921   2.931  -5.196  0.00  0.00    -0.004 A 
ATOM      7  S   UNL     1      -1.426   2.072  -4.784  0.00  0.00    -0.073 S 
ATOM      8  C   UNL     1      -3.097   4.034  -6.195  0.00  0.00    +0.043 C 
ATOM      9  C   UNL     1      -4.598   4.199  -6.474  0.00  0.00    +0.005 C 
ATOM     10  C   UNL     1      -5.345   4.240  -5.138  0.00  0.00    +0.005 C 
ATOM     11  C   UNL     1      -5.316   2.858  -4.485  0.00  0.00    +0.037 C 
ATOM     12  C   UNL     1      -4.242   0.555  -2.591  0.00  0.00    +0.268 A 
ATOM     13  O   UNL     1      -5.436   0.777  -2.483  0.00  0.00    -0.267 OA
ATOM     14  N   UNL     1      -3.657  -0.402  -1.847  0.00  0.00    -0.255 N 
ENDROOT
BRANCH  14  15
ATOM     15  C   UNL     1      -4.432  -1.142  -0.945  0.00  0.00    +0.052 A 
ATOM     16  C   UNL     1      -5.040  -2.321  -1.355  0.00  0.00    +0.026 A 
ATOM     17  C   UNL     1      -5.803  -3.049  -0.463  0.00  0.00    +0.002 A 
ATOM     18  C   UNL     1      -5.962  -2.604   0.837  0.00  0.00    +0.000 A 
ATOM     19  C   UNL     1      -5.358  -1.431   1.248  0.00  0.00    +0.002 A 
ATOM     20  C   UNL     1      -4.588  -0.702   0.362  0.00  0.00    +0.026 A 
ENDBRANCH  14  15
BRANCH   1  21
ATOM     21  S   UNL     1      -1.596  -1.919  -0.952  0.00  0.00    -0.075 S 
BRANCH  21  23
ATOM     22  C   UNL     1       0.781  -0.567  -1.020  0.00  0.00    +0.029 C 
ATOM     23  C   UNL     1       0.155  -1.903  -1.425  0.00  0.00    +0.137 C 
BRANCH  23  24
ATOM     24  C   UNL     1       0.875  -3.027  -0.724  0.00  0.00    +0.227 C 
ATOM     25  O   UNL     1       0.393  -3.530   0.268  0.00  0.00    -0.275 OA
ATOM     26  N   UNL     1       2.054  -3.473  -1.201  0.00  0.00    -0.310 N 
ATOM     27  H   UNL     1       2.440  -3.070  -1.995  0.00  0.00    +0.149 HD
BRANCH  26  28
ATOM     28  C   UNL     1       2.753  -4.565  -0.520  0.00  0.00    +0.026 C 
ATOM     29  C   UNL     1       1.865  -5.811  -0.509  0.00  0.00    +0.031 C 
ATOM     30  C   UNL     1       4.057  -4.875  -1.259  0.00  0.00    +0.031 C 
ATOM     31  C   UNL     1       3.069  -4.151   0.918  0.00  0.00    +0.031 C 
ENDBRANCH  26  28
ENDBRANCH  23  24
ENDBRANCH  21  23
ENDBRANCH   1  21
TORSDOF 5
