REMARK  Name = ZINC16809106
REMARK  11 active torsions:
REMARK  status: ('A' for Active; 'I' for Inactive)
REMARK    1  A    between atoms: C_1  and  C_2
REMARK    2  A    between atoms: N_4  and  C_5
REMARK    3  A    between atoms: C_5  and  C_6
REMARK    4  A    between atoms: C_6  and  C_7
REMARK    5  A    between atoms: C_10  and  C_12
REMARK    6  A    between atoms: C_12  and  C_14
REMARK    7  A    between atoms: C_14  and  O_15
REMARK    8  A    between atoms: O_15  and  C_16
REMARK    9  A    between atoms: C_16  and  C_18
REMARK   10  A    between atoms: C_18  and  C_19
REMARK   11  A    between atoms: C_19  and  C_20
REMARK                            x       y       z     vdW  Elec       q    Type
REMARK                         _______ _______ _______ _____ _____    ______ ____
ROOT
ATOM      1  C   UNL     1      -2.174   5.772   0.044  0.00  0.00    +0.308 C 
ATOM      2  O   UNL     1      -1.119   6.362   0.042  0.00  0.00    -0.251 OA
ENDROOT
BRANCH   1   3
ATOM      3  O   UNL     1      -2.192   4.430   0.037  0.00  0.00    -0.457 OA
BRANCH   3   4
ATOM      4  C   UNL     1      -0.907   3.754   0.027  0.00  0.00    +0.312 C 
BRANCH   4   5
ATOM      5  C   UNL     1      -1.125   2.263   0.020  0.00  0.00    +0.207 C 
ATOM      6  O   UNL     1      -2.253   1.814   0.023  0.00  0.00    -0.288 OA
BRANCH   5  10
ATOM      7  C   UNL     1       2.352   0.161  -0.019  0.00  0.00    -0.008 A 
ATOM      8  C   UNL     1       1.231  -0.610  -0.013  0.00  0.00    +0.012 A 
ATOM      9  C   UNL     1       0.002  -0.004   0.002  0.00  0.00    +0.019 A 
ATOM     10  C   UNL     1      -0.017   1.387   0.010  0.00  0.00    +0.058 A 
ATOM     11  S   UNL     1       1.724   1.777  -0.005  0.00  0.00    -0.090 S 
BRANCH   7  12
ATOM     12  C   UNL     1       3.792  -0.283  -0.035  0.00  0.00    +0.061 C 
BRANCH  12  13
ATOM     13  C   UNL     1       4.266  -0.426  -1.483  0.00  0.00    +0.109 C 
BRANCH  13  17
ATOM     14  C   UNL     1       7.739  -1.494  -2.688  0.00  0.00    +0.109 C 
ATOM     15  C   UNL     1       6.299  -1.050  -2.672  0.00  0.00    +0.210 C 
ATOM     16  O   UNL     1       5.710  -0.866  -3.716  0.00  0.00    -0.276 OA
ATOM     17  N   UNL     1       5.666  -0.857  -1.498  0.00  0.00    -0.315 N 
ATOM     18  H   UNL     1       6.138  -1.004  -0.663  0.00  0.00    +0.149 HD
ENDBRANCH  13  17
ENDBRANCH  12  13
ENDBRANCH   7  12
ENDBRANCH   5  10
ENDBRANCH   4   5
ENDBRANCH   3   4
ENDBRANCH   1   3
BRANCH   1  19
ATOM     19  C   UNL     1      -3.469   6.544   0.055  0.00  0.00    +0.128 C 
BRANCH  19  20
ATOM     20  C   UNL     1      -3.169   8.044   0.062  0.00  0.00    +0.085 C 
BRANCH  20  21
ATOM     21  C   UNL     1      -4.463   8.815   0.072  0.00  0.00    +0.111 A 
ATOM     22  N   UNL     1      -4.431  10.172   0.080  0.00  0.00    -0.310 N 
ATOM     23  H   UNL     1      -3.574  10.627   0.078  0.00  0.00    +0.170 HD
ATOM     24  C   UNL     1      -5.564  10.900   0.089  0.00  0.00    +0.260 A 
ATOM     25  O   UNL     1      -5.518  12.118   0.096  0.00  0.00    -0.267 OA
ATOM     26  C   UNL     1      -6.824  10.218   0.092  0.00  0.00    +0.075 A 
ATOM     27  C   UNL     1      -8.168  10.794   0.102  0.00  0.00    -0.023 A 
ATOM     28  C   UNL     1      -9.205   9.930   0.102  0.00  0.00    -0.004 A 
ATOM     29  S   UNL     1      -8.461   8.321   0.089  0.00  0.00    -0.073 S 
ATOM     30  C   UNL     1      -6.757   8.816   0.083  0.00  0.00    +0.116 A 
ATOM     31  N   UNL     1      -5.597   8.166   0.069  0.00  0.00    -0.227 NA
ATOM     32  C   UNL     1     -10.665  10.265   0.112  0.00  0.00    +0.043 C 
ATOM     33  C   UNL     1     -10.821  11.743   0.497  0.00  0.00    +0.005 C 
ATOM     34  C   UNL     1      -9.845  12.574  -0.341  0.00  0.00    +0.005 C 
ATOM     35  C   UNL     1      -8.410  12.301   0.112  0.00  0.00    +0.037 C 
ENDBRANCH  20  21
ENDBRANCH  19  20
ENDBRANCH   1  19
TORSDOF 10
