REMARK  Name = ZINC00844301
REMARK  8 active torsions:
REMARK  status: ('A' for Active; 'I' for Inactive)
REMARK    1  A    between atoms: C_1  and  C_2
REMARK    2  A    between atoms: C_3  and  C_20
REMARK    3  A    between atoms: C_4  and  C_10
REMARK    4  A    between atoms: C_12  and  O_18
REMARK    5  A    between atoms: C_13  and  O_17
REMARK    6  A    between atoms: O_18  and  C_19
REMARK    7  A    between atoms: C_20  and  O_22
REMARK    8  A    between atoms: O_22  and  C_23
REMARK                            x       y       z     vdW  Elec       q    Type
REMARK                         _______ _______ _______ _____ _____    ______ ____
ROOT
ATOM      1  C   UNL     1      -2.367   0.079  -0.391  0.00  0.00    +0.061 C 
ATOM      2  C   UNL     1      -1.302   1.145  -0.417  0.00  0.00    +0.021 C 
ATOM      3  C   UNL     1      -1.665   2.446  -0.455  0.00  0.00    +0.078 C 
ATOM      4  C   UNL     1      -0.562   3.485  -0.486  0.00  0.00    +0.144 C 
ATOM      5  N   UNL     1       0.824   2.987  -0.466  0.00  0.00    -0.288 N 
ATOM      6  C   UNL     1       1.027   1.656  -0.422  0.00  0.00    +0.304 C 
ATOM      7  O   UNL     1       2.168   1.235  -0.406  0.00  0.00    -0.252 OA
ATOM      8  N   UNL     1       0.014   0.781  -0.396  0.00  0.00    -0.273 N 
ATOM      9  H   UNL     1       1.573   3.604  -0.483  0.00  0.00    +0.151 HD
ATOM     10  H   UNL     1       0.227  -0.165  -0.365  0.00  0.00    +0.156 HD
ENDROOT
BRANCH   4  11
ATOM     11  C   UNL     1      -0.740   4.314  -1.731  0.00  0.00    -0.018 A 
ATOM     12  C   UNL     1      -0.326   3.820  -2.954  0.00  0.00    +0.055 A 
ATOM     13  C   UNL     1      -0.493   4.579  -4.101  0.00  0.00    +0.163 A 
ATOM     14  C   UNL     1      -1.070   5.843  -4.018  0.00  0.00    +0.173 A 
ATOM     15  C   UNL     1      -1.478   6.335  -2.788  0.00  0.00    +0.063 A 
ATOM     16  C   UNL     1      -1.312   5.569  -1.647  0.00  0.00    +0.025 A 
ATOM     17 BR   UNL     1      -2.262   8.051  -2.670  0.00  0.00    -0.046 Br
BRANCH  14  18
ATOM     18  O   UNL     1      -1.232   6.593  -5.141  0.00  0.00    -0.503 OA
ATOM     19  H   UNL     1      -0.481   7.167  -5.343  0.00  0.00    +0.292 HD
ENDBRANCH  14  18
BRANCH  13  20
ATOM     20  O   UNL     1      -0.091   4.091  -5.306  0.00  0.00    -0.491 OA
ATOM     21  C   UNL     1       0.392   2.747  -5.333  0.00  0.00    +0.277 C 
ENDBRANCH  13  20
ENDBRANCH   4  11
BRANCH   3  22
ATOM     22  C   UNL     1      -3.027   2.825  -0.471  0.00  0.00    +0.339 C 
ATOM     23  O   UNL     1      -3.894   1.974  -0.548  0.00  0.00    -0.245 OA
BRANCH  22  24
ATOM     24  O   UNL     1      -3.366   4.129  -0.401  0.00  0.00    -0.458 OA
BRANCH  24  25
ATOM     25  C   UNL     1      -4.750   4.449  -0.552  0.00  0.00    +0.177 C 
ATOM     26  C   UNL     1      -5.072   4.578  -2.055  0.00  0.00    +0.044 C 
ATOM     27  C   UNL     1      -6.555   4.401  -2.242  0.00  0.00    +0.004 C 
ATOM     28  C   UNL     1      -7.310   5.745  -2.259  0.00  0.00    +0.000 C 
ATOM     29  C   UNL     1      -6.799   6.730  -1.191  0.00  0.00    +0.000 C 
ATOM     30  C   UNL     1      -6.526   6.060   0.128  0.00  0.00    +0.004 C 
ATOM     31  C   UNL     1      -5.033   5.674   0.182  0.00  0.00    +0.044 C 
ENDBRANCH  24  25
ENDBRANCH  22  24
ENDBRANCH   3  22
TORSDOF 6
