REMARK  Name = ZINC32735015
REMARK  9 active torsions:
REMARK  status: ('A' for Active; 'I' for Inactive)
REMARK    1  A    between atoms: C_1  and  C_2
REMARK    2  A    between atoms: C_4  and  N_22
REMARK    3  A    between atoms: C_6  and  C_7
REMARK    4  A    between atoms: N_9  and  C_10
REMARK    5  A    between atoms: C_10  and  C_11
REMARK    6  A    between atoms: C_11  and  C_13
REMARK    7  A    between atoms: C_11  and  N_14
REMARK    8  A    between atoms: C_19  and  C_21
REMARK    9  A    between atoms: C_23  and  C_25
REMARK                            x       y       z     vdW  Elec       q    Type
REMARK                         _______ _______ _______ _____ _____    ______ ____
ROOT
ATOM      1  C   UNL     1       1.216   1.017  -0.552  0.00  0.00    +0.045 C 
ATOM      2  C   UNL     1       1.066  -0.481  -0.483  0.00  0.00    -0.029 A 
ATOM      3  C   UNL     1       1.125  -1.270  -1.603  0.00  0.00    +0.035 A 
ATOM      4  C   UNL     1       0.980  -2.631  -1.459  0.00  0.00    +0.073 A 
ATOM      5  S   UNL     1       0.763  -2.847   0.193  0.00  0.00    -0.069 S 
ATOM      6  C   UNL     1       0.867  -1.147   0.719  0.00  0.00    +0.078 A 
ENDROOT
BRANCH   6   7
ATOM      7  C   UNL     1       0.766  -0.595   2.068  0.00  0.00    +0.251 C 
ATOM      8  O   UNL     1       0.967   0.591   2.258  0.00  0.00    -0.270 OA
ATOM      9  N   UNL     1       0.451  -1.399   3.103  0.00  0.00    -0.312 N 
ATOM     10  H   UNL     1       0.363  -2.355   2.966  0.00  0.00    +0.149 HD
BRANCH   9  11
ATOM     11  C   UNL     1       0.242  -0.828   4.436  0.00  0.00    +0.089 C 
BRANCH  11  12
ATOM     12  C   UNL     1       0.039  -1.958   5.448  0.00  0.00    -0.054 C 
ATOM     13  C   UNL     1      -0.043  -1.370   6.859  0.00  0.00    -0.012 C 
BRANCH  12  14
ATOM     14  N   UNL     1       1.171  -2.892   5.372  0.00  0.00    +0.384 N 
ATOM     15  C   UNL     1       2.412  -2.183   5.704  0.00  0.00    -0.078 C 
ATOM     16  C   UNL     1       3.603  -3.131   5.547  0.00  0.00    -0.019 C 
ATOM     17  C   UNL     1       3.427  -4.324   6.491  0.00  0.00    -0.003 C 
ATOM     18  C   UNL     1       2.093  -5.011   6.185  0.00  0.00    -0.016 C 
ATOM     19  C   UNL     1       0.958  -3.994   6.318  0.00  0.00    -0.071 C 
ATOM     20  C   UNL     1      -0.377  -4.677   6.013  0.00  0.00    -0.013 C 
ATOM     21  H   UNL     1       1.237  -3.262   4.436  0.00  0.00    -0.081 HD
ENDBRANCH  12  14
ENDBRANCH  11  12
ENDBRANCH   9  11
ENDBRANCH   6   7
BRANCH   4  22
ATOM     22  N   UNL     1       1.006  -3.602  -2.450  0.00  0.00    -0.273 N 
ATOM     23  C   UNL     1       0.846  -4.900  -2.127  0.00  0.00    +0.284 C 
ATOM     24  O   UNL     1       0.677  -5.221  -0.965  0.00  0.00    -0.266 OA
ATOM     25  H   UNL     1       1.141  -3.346  -3.376  0.00  0.00    +0.156 HD
BRANCH  23  26
ATOM     26  C   UNL     1       0.874  -5.926  -3.174  0.00  0.00    +0.189 A 
ATOM     27  C   UNL     1       0.719  -7.269  -2.986  0.00  0.00    +0.054 A 
ATOM     28  C   UNL     1       0.815  -7.868  -4.252  0.00  0.00    +0.042 A 
ATOM     29  C   UNL     1       1.021  -6.876  -5.146  0.00  0.00    +0.196 A 
ATOM     30  O   UNL     1       1.050  -5.707  -4.493  0.00  0.00    -0.458 OA
ENDBRANCH  23  26
ENDBRANCH   4  22
TORSDOF 6
