REMARK  Name = ZINC59213156
REMARK  5 active torsions:
REMARK  status: ('A' for Active; 'I' for Inactive)
REMARK    1  A    between atoms: C_6  and  C_7
REMARK    2  A    between atoms: C_10  and  S_12
REMARK    3  A    between atoms: S_12  and  C_13
REMARK    4  A    between atoms: C_13  and  C_14
REMARK    5  A    between atoms: N_16  and  C_17
REMARK                            x       y       z     vdW  Elec       q    Type
REMARK                         _______ _______ _______ _____ _____    ______ ____
ROOT
ATOM      1  C   UNL     1      -5.247  -3.599   0.036  0.00  0.00    +0.174 C 
ENDROOT
BRANCH   1   2
ATOM      2  C   UNL     1      -6.020  -4.893   0.041  0.00  0.00    +0.224 C 
ATOM      3  O   UNL     1      -5.428  -5.952   0.036  0.00  0.00    -0.275 OA
ATOM      4  N   UNL     1      -7.367  -4.874   0.050  0.00  0.00    -0.311 N 
ATOM      5  H   UNL     1      -7.840  -4.027   0.053  0.00  0.00    +0.149 HD
BRANCH   4   6
ATOM      6  C   UNL     1      -8.118  -6.132   0.054  0.00  0.00    +0.079 C 
ATOM      7  C   UNL     1      -8.262  -6.635   1.492  0.00  0.00    +0.010 C 
ATOM      8  C   UNL     1      -9.046  -7.949   1.496  0.00  0.00    +0.009 C 
ATOM      9  C   UNL     1     -10.434  -7.716   0.896  0.00  0.00    -0.010 C 
ATOM     10  C   UNL     1     -11.182  -6.673   1.729  0.00  0.00    +0.007 C 
ATOM     11  C   UNL     1     -10.398  -5.359   1.725  0.00  0.00    -0.010 C 
ATOM     12  C   UNL     1      -9.009  -5.592   2.325  0.00  0.00    +0.009 C 
ATOM     13  C   UNL     1     -10.254  -4.856   0.287  0.00  0.00    +0.009 C 
ATOM     14  C   UNL     1      -9.506  -5.899  -0.546  0.00  0.00    +0.010 C 
ATOM     15  C   UNL     1     -10.290  -7.213  -0.541  0.00  0.00    +0.009 C 
ENDBRANCH   4   6
ENDBRANCH   1   2
BRANCH   1  16
ATOM     16  S   UNL     1      -3.469  -3.956   0.024  0.00  0.00    -0.056 S 
BRANCH  16  20
ATOM     17  C   UNL     1      -1.265  -0.763   0.011  0.00  0.00    +0.249 A 
ATOM     18  N   UNL     1      -2.474  -0.256   0.019  0.00  0.00    -0.106 NA
ATOM     19  N   UNL     1      -3.338  -1.209   0.025  0.00  0.00    -0.101 NA
ATOM     20  C   UNL     1      -2.714  -2.364   0.020  0.00  0.00    +0.278 A 
ATOM     21  O   UNL     1      -1.392  -2.109   0.005  0.00  0.00    -0.411 OA
BRANCH  17  27
ATOM     22  C   UNL     1      -0.017   1.392   0.010  0.00  0.00    +0.014 A 
ATOM     23  C   UNL     1       1.170   2.095   0.002  0.00  0.00    +0.016 A 
ATOM     24  C   UNL     1       2.378   1.419  -0.013  0.00  0.00    +0.018 A 
ATOM     25  C   UNL     1       2.404   0.035  -0.021  0.00  0.00    +0.016 A 
ATOM     26  C   UNL     1       1.224  -0.680  -0.014  0.00  0.00    +0.014 A 
ATOM     27  C   UNL     1       0.002  -0.004   0.002  0.00  0.00    +0.039 A 
ATOM     28 BR   UNL     1       4.000   2.390  -0.024  0.00  0.00    -0.050 Br
ENDBRANCH  17  27
ENDBRANCH  16  20
ENDBRANCH   1  16
TORSDOF 5
