REMARK  Name = ZINC35924691
REMARK  10 active torsions:
REMARK  status: ('A' for Active; 'I' for Inactive)
REMARK    1  A    between atoms: C_1  and  C_2
REMARK    2  A    between atoms: C_2  and  C_3
REMARK    3  A    between atoms: C_3  and  C_4
REMARK    4  A    between atoms: C_4  and  C_5
REMARK    5  A    between atoms: C_9  and  C_18
REMARK    6  A    between atoms: N_11  and  C_12
REMARK    7  A    between atoms: C_19  and  N_21
REMARK    8  A    between atoms: N_25  and  C_28
REMARK    9  A    between atoms: C_28  and  C_29
REMARK   10  A    between atoms: C_34  and  O_35
REMARK                            x       y       z     vdW  Elec       q    Type
REMARK                         _______ _______ _______ _____ _____    ______ ____
ROOT
ATOM      1  C   UNL     1       1.452  -2.536  -2.542  0.00  0.00    +0.134 A 
ATOM      2  N   UNL     1       0.735  -2.741  -3.625  0.00  0.00    -0.212 NA
ATOM      3  C   UNL     1       1.307  -3.172  -4.748  0.00  0.00    +0.169 A 
ATOM      4  C   UNL     1       2.696  -3.405  -4.756  0.00  0.00    +0.082 A 
ATOM      5  C   UNL     1       3.033  -3.849  -6.053  0.00  0.00    +0.073 A 
ATOM      6  N   UNL     1       1.948  -3.885  -6.774  0.00  0.00    -0.169 NA
ATOM      7  N   UNL     1       0.855  -3.472  -6.001  0.00  0.00    -0.214 N 
ATOM      8  C   UNL     1       4.415  -4.220  -6.526  0.00  0.00    +0.068 C 
ATOM      9  C   UNL     1       3.419  -3.170  -3.571  0.00  0.00    +0.136 A 
ATOM     10  N   UNL     1       2.758  -2.735  -2.504  0.00  0.00    -0.217 NA
ENDROOT
BRANCH   9  11
ATOM     11  N   UNL     1       4.783  -3.381  -3.521  0.00  0.00    -0.316 N 
ATOM     12  C   UNL     1       5.689  -2.235  -3.739  0.00  0.00    +0.104 C 
ATOM     13  C   UNL     1       6.873  -2.271  -2.755  0.00  0.00    +0.000 C 
ATOM     14  C   UNL     1       6.382  -2.707  -1.392  0.00  0.00    -0.077 C 
ATOM     15  N   UNL     1       6.542  -4.154  -1.263  0.00  0.00    +0.384 N 
ATOM     16  C   UNL     1       5.451  -4.918  -1.732  0.00  0.00    -0.059 C 
ATOM     17  C   UNL     1       5.273  -4.717  -3.250  0.00  0.00    +0.088 C 
ATOM     18  H   UNL     1       7.367  -4.430  -1.774  0.00  0.00    -0.081 HD
BRANCH  15  19
ATOM     19  C   UNL     1       6.754  -4.472   0.156  0.00  0.00    -0.039 C 
BRANCH  19  20
ATOM     20  C   UNL     1       7.045  -5.943   0.303  0.00  0.00    -0.022 A 
ATOM     21  C   UNL     1       6.043  -6.810   0.695  0.00  0.00    +0.005 A 
ATOM     22  C   UNL     1       6.309  -8.160   0.830  0.00  0.00    +0.000 A 
ATOM     23  C   UNL     1       7.578  -8.646   0.574  0.00  0.00    +0.004 A 
ATOM     24  C   UNL     1       8.583  -7.784   0.182  0.00  0.00    +0.045 A 
ATOM     25  C   UNL     1       8.317  -6.429   0.040  0.00  0.00    +0.118 A 
BRANCH  25  26
ATOM     26  O   UNL     1       9.303  -5.579  -0.351  0.00  0.00    -0.507 OA
ATOM     27  H   UNL     1       9.812  -5.204   0.380  0.00  0.00    +0.292 HD
ENDBRANCH  25  26
ENDBRANCH  19  20
ENDBRANCH  15  19
ENDBRANCH   9  11
BRANCH   7  28
ATOM     28  C   UNL     1      -0.473  -3.383  -6.439  0.00  0.00    +0.068 A 
ATOM     29  C   UNL     1      -1.514  -3.673  -5.566  0.00  0.00    +0.028 A 
ATOM     30  C   UNL     1      -2.822  -3.583  -6.000  0.00  0.00    +0.002 A 
ATOM     31  C   UNL     1      -3.095  -3.206  -7.303  0.00  0.00    +0.000 A 
ATOM     32  C   UNL     1      -2.061  -2.917  -8.174  0.00  0.00    +0.002 A 
ATOM     33  C   UNL     1      -0.751  -2.999  -7.744  0.00  0.00    +0.028 A 
ENDBRANCH   7  28
BRANCH   1  34
ATOM     34  C   UNL     1       0.758  -2.047  -1.297  0.00  0.00    +0.076 C 
BRANCH  34  35
ATOM     35  C   UNL     1       0.744  -0.517  -1.288  0.00  0.00    +0.007 C 
BRANCH  35  37
ATOM     36  C   UNL     1       0.026   1.509  -0.014  0.00  0.00    +0.004 C 
ATOM     37  C   UNL     1       0.040  -0.021  -0.023  0.00  0.00    -0.003 C 
ENDBRANCH  35  37
ENDBRANCH  34  35
ENDBRANCH   1  34
TORSDOF 8
