REMARK  Name = ZINC63731549
REMARK  8 active torsions:
REMARK  status: ('A' for Active; 'I' for Inactive)
REMARK    1  A    between atoms: C_1  and  C_2
REMARK    2  A    between atoms: N_4  and  C_5
REMARK    3  A    between atoms: C_5  and  C_7
REMARK    4  A    between atoms: C_5  and  C_17
REMARK    5  A    between atoms: C_7  and  C_8
REMARK    6  A    between atoms: C_17  and  O_19
REMARK    7  A    between atoms: O_19  and  C_20
REMARK    8  A    between atoms: C_20  and  C_21
REMARK                            x       y       z     vdW  Elec       q    Type
REMARK                         _______ _______ _______ _____ _____    ______ ____
ROOT
ATOM      1  C   UNL     1      -0.431  -2.645  -1.239  0.00  0.00    +0.328 C 
ATOM      2  O   UNL     1       0.312  -1.905  -1.840  0.00  0.00    -0.249 OA
ENDROOT
BRANCH   1   3
ATOM      3  C   UNL     1      -1.136  -2.159   0.001  0.00  0.00    +0.186 C 
BRANCH   3   7
ATOM      4  C   UNL     1      -0.018   1.503   0.010  0.00  0.00    +0.109 C 
ATOM      5  C   UNL     1       0.002  -0.004   0.002  0.00  0.00    +0.211 C 
ATOM      6  O   UNL     1       1.060  -0.596  -0.011  0.00  0.00    -0.276 OA
ATOM      7  N   UNL     1      -1.156  -0.694   0.009  0.00  0.00    -0.302 N 
ATOM      8  H   UNL     1      -2.002  -0.220   0.020  0.00  0.00    +0.150 HD
ENDBRANCH   3   7
BRANCH   3   9
ATOM      9  C   UNL     1      -0.396  -2.665   1.241  0.00  0.00    +0.067 C 
BRANCH   9  10
ATOM     10  C   UNL     1      -1.168  -2.284   2.478  0.00  0.00    -0.039 C 
ATOM     11  C   UNL     1      -2.060  -3.049   3.148  0.00  0.00    -0.001 A 
ATOM     12  C   UNL     1      -2.559  -4.412   2.933  0.00  0.00    +0.010 A 
ATOM     13  C   UNL     1      -3.473  -4.919   3.793  0.00  0.00    +0.001 A 
ATOM     14  C   UNL     1      -3.953  -4.176   4.880  0.00  0.00    +0.002 A 
ATOM     15  C   UNL     1      -3.541  -2.917   5.143  0.00  0.00    +0.026 A 
ATOM     16  C   UNL     1      -2.582  -2.286   4.304  0.00  0.00    +0.043 A 
ATOM     17  N   UNL     1      -2.034  -1.095   4.346  0.00  0.00    -0.380 N 
ATOM     18  C   UNL     1      -1.097  -0.971   3.225  0.00  0.00    +0.144 C 
ATOM     19  H   UNL     1      -2.216  -0.412   5.011  0.00  0.00    +0.160 HD
ENDBRANCH   9  10
ENDBRANCH   3   9
ENDBRANCH   1   3
BRANCH   1  20
ATOM     20  O   UNL     1      -0.628  -3.899  -1.675  0.00  0.00    -0.462 OA
BRANCH  20  21
ATOM     21  C   UNL     1       0.073  -4.292  -2.856  0.00  0.00    +0.251 C 
BRANCH  21  22
ATOM     22  C   UNL     1      -0.275  -5.743  -3.197  0.00  0.00    +0.102 C 
ATOM     23  C   UNL     1       0.591  -6.198  -4.358  0.00  0.00    +0.118 C 
ATOM     24  C   UNL     1      -0.064  -7.234  -5.218  0.00  0.00    +0.223 C 
ATOM     25  O   UNL     1       0.570  -7.741  -6.119  0.00  0.00    -0.275 OA
ATOM     26  N   UNL     1      -1.345  -7.619  -5.016  0.00  0.00    -0.249 N 
ATOM     27  C   UNL     1      -2.071  -7.227  -3.775  0.00  0.00    +0.213 C 
ATOM     28  N   UNL     1      -1.706  -5.829  -3.508  0.00  0.00    -0.283 NA
ATOM     29  S   UNL     1      -3.789  -7.304  -4.426  0.00  0.00    -0.089 S 
ATOM     30  C   UNL     1      -3.436  -8.383  -5.797  0.00  0.00    +0.006 C 
ATOM     31  C   UNL     1      -2.104  -8.388  -5.906  0.00  0.00    +0.025 C 
ATOM     32  C   UNL     1      -1.426  -9.225  -6.991  0.00  0.00    +0.052 C 
ATOM     33  C   UNL     1      -2.403 -10.291  -7.484  0.00  0.00    +0.006 C 
ATOM     34  C   UNL     1      -3.721  -9.632  -7.901  0.00  0.00    +0.006 C 
ATOM     35  C   UNL     1      -4.430  -9.123  -6.638  0.00  0.00    +0.044 C 
ATOM     36  H   UNL     1      -2.263  -5.447  -2.758  0.00  0.00    +0.125 HD
ENDBRANCH  21  22
ENDBRANCH  20  21
ENDBRANCH   1  20
TORSDOF 7
