REMARK  Name = ZINC48287760
REMARK  7 active torsions:
REMARK  status: ('A' for Active; 'I' for Inactive)
REMARK    1  A    between atoms: C_2  and  C_3
REMARK    2  A    between atoms: C_3  and  N_4
REMARK    3  A    between atoms: N_4  and  S_5
REMARK    4  A    between atoms: S_5  and  C_8
REMARK    5  A    between atoms: C_11  and  C_14
REMARK    6  A    between atoms: N_16  and  C_17
REMARK    7  A    between atoms: C_17  and  C_18
REMARK                            x       y       z     vdW  Elec       q    Type
REMARK                         _______ _______ _______ _____ _____    ______ ____
ROOT
ATOM      1  C   UNL     1      -0.922   6.607   4.147  0.00  0.00    +0.244 C 
ATOM      2  O   UNL     1      -2.006   7.117   3.943  0.00  0.00    -0.270 OA
ATOM      3  N   UNL     1      -0.191   6.982   5.216  0.00  0.00    -0.307 N 
ATOM      4  H   UNL     1       0.674   6.575   5.378  0.00  0.00    +0.149 HD
ENDROOT
BRANCH   1   8
ATOM      5  C   UNL     1       0.563   3.643   1.492  0.00  0.00    +0.105 A 
ATOM      6  C   UNL     1      -0.672   4.221   1.258  0.00  0.00    +0.029 A 
ATOM      7  C   UNL     1      -1.160   5.184   2.116  0.00  0.00    +0.015 A 
ATOM      8  C   UNL     1      -0.405   5.575   3.224  0.00  0.00    +0.037 A 
ATOM      9  C   UNL     1       0.840   4.987   3.454  0.00  0.00    +0.015 A 
ATOM     10  C   UNL     1       1.314   4.021   2.591  0.00  0.00    +0.029 A 
BRANCH   5  11
ATOM     11  S   UNL     1       1.179   2.413   0.391  0.00  0.00    +0.059 S 
ATOM     12  O   UNL     1       2.594   2.416   0.530  0.00  0.00    -0.153 OA
ATOM     13  O   UNL     1       0.536   2.627  -0.858  0.00  0.00    -0.153 OA
BRANCH  11  14
ATOM     14  N   UNL     1       0.651   0.946   0.950  0.00  0.00    -0.178 NA
ATOM     15  H   UNL     1       1.291   0.290   1.269  0.00  0.00    +0.149 HD
BRANCH  14  16
ATOM     16  C   UNL     1      -0.781   0.640   0.964  0.00  0.00    +0.194 C 
BRANCH  16  18
ATOM     17  C   UNL     1      -1.123  -1.962   1.302  0.00  0.00    +0.005 C 
ATOM     18  C   UNL     1      -0.971  -0.808   1.152  0.00  0.00    -0.089 C 
ENDBRANCH  16  18
ENDBRANCH  14  16
ENDBRANCH  11  14
ENDBRANCH   5  11
ENDBRANCH   1   8
BRANCH   3  19
ATOM     19  C   UNL     1      -0.703   8.005   6.131  0.00  0.00    +0.141 C 
BRANCH  19  20
ATOM     20  C   UNL     1       0.298   8.240   7.233  0.00  0.00    -0.014 A 
ATOM     21  C   UNL     1       0.242   7.492   8.402  0.00  0.00    +0.010 A 
ATOM     22  C   UNL     1       1.179   7.739   9.389  0.00  0.00    +0.042 A 
ATOM     23  C   UNL     1       2.141   8.722   9.177  0.00  0.00    +0.099 A 
ATOM     24  N   UNL     1       2.161   9.414   8.049  0.00  0.00    -0.349 N 
ATOM     25  C   UNL     1       1.283   9.195   7.088  0.00  0.00    +0.089 A 
ATOM     26  N   UNL     1       3.089   8.981  10.161  0.00  0.00    -0.317 N 
ATOM     27  C   UNL     1       3.139   8.117  11.319  0.00  0.00    +0.106 C 
ATOM     28  C   UNL     1       2.193   8.665  12.416  0.00  0.00    +0.019 C 
ATOM     29  C   UNL     1       2.748   9.895  13.002  0.00  0.00    +0.002 C 
ATOM     30  C   UNL     1       2.892  11.051  12.017  0.00  0.00    +0.002 C 
ATOM     31  C   UNL     1       4.203  10.921  11.281  0.00  0.00    +0.019 C 
ATOM     32  C   UNL     1       4.007  10.122   9.976  0.00  0.00    +0.106 C 
ATOM     33  H   UNL     1       2.841  10.094   7.923  0.00  0.00    +0.167 HD
ENDBRANCH  19  20
ENDBRANCH   3  19
TORSDOF 7
