REMARK  Name = ZINC14965986
REMARK  10 active torsions:
REMARK  status: ('A' for Active; 'I' for Inactive)
REMARK    1  A    between atoms: C_1  and  C_2
REMARK    2  A    between atoms: C_2  and  C_3
REMARK    3  A    between atoms: C_2  and  N_4
REMARK    4  A    between atoms: C_5  and  C_7
REMARK    5  A    between atoms: N_9  and  C_25
REMARK    6  A    between atoms: C_11  and  C_14
REMARK    7  A    between atoms: N_16  and  C_17
REMARK    8  A    between atoms: C_17  and  C_18
REMARK    9  A    between atoms: C_24  and  N_69
REMARK   10  A    between atoms: C_25  and  C_26
REMARK                            x       y       z     vdW  Elec       q    Type
REMARK                         _______ _______ _______ _____ _____    ______ ____
ROOT
ATOM      1  C   UNL     1      -6.761   1.465  -3.006  0.00  0.00    +0.100 A 
ATOM      2  C   UNL     1      -7.096   0.742  -1.882  0.00  0.00    +0.102 A 
ATOM      3  N   UNL     1      -6.184   0.448  -0.941  0.00  0.00    -0.351 N 
ATOM      4  C   UNL     1      -4.897   0.823  -1.017  0.00  0.00    +0.102 A 
ATOM      5  C   UNL     1      -4.425   1.556  -2.084  0.00  0.00    +0.100 A 
ATOM      6  C   UNL     1      -5.367   1.916  -3.156  0.00  0.00    +0.206 A 
ATOM      7  O   UNL     1      -5.009   2.559  -4.128  0.00  0.00    -0.286 OA
ENDROOT
BRANCH   1   9
ATOM      8  N   UNL     1      -9.042   1.358  -3.875  0.00  0.00    -0.309 N 
ATOM      9  C   UNL     1      -7.771   1.779  -4.030  0.00  0.00    +0.249 C 
ATOM     10  O   UNL     1      -7.459   2.419  -5.017  0.00  0.00    -0.270 OA
ATOM     11  H   UNL     1      -9.292   0.848  -3.089  0.00  0.00    +0.149 HD
BRANCH   8  13
ATOM     12  C   UNL     1      -9.990   0.621  -6.006  0.00  0.00    +0.027 C 
ATOM     13  C   UNL     1     -10.047   1.671  -4.894  0.00  0.00    +0.067 C 
ATOM     14  C   UNL     1     -11.438   1.665  -4.258  0.00  0.00    +0.027 C 
ENDBRANCH   8  13
ENDBRANCH   1   9
BRANCH   5  15
ATOM     15  C   UNL     1      -3.011   1.965  -2.152  0.00  0.00    +0.249 C 
ATOM     16  O   UNL     1      -2.610   2.608  -3.104  0.00  0.00    -0.270 OA
ATOM     17  N   UNL     1      -2.163   1.627  -1.161  0.00  0.00    -0.311 N 
ATOM     18  H   UNL     1      -2.483   1.114  -0.403  0.00  0.00    +0.149 HD
BRANCH  17  19
ATOM     19  C   UNL     1      -0.757   2.034  -1.230  0.00  0.00    +0.106 C 
BRANCH  19  20
ATOM     20  C   UNL     1      -0.019   1.526   0.010  0.00  0.00    -0.011 C 
ATOM     21  C   UNL     1       1.420   2.051  -0.001  0.00  0.00    +0.001 C 
ATOM     22  C   UNL     1       2.169   1.490   1.211  0.00  0.00    -0.018 C 
ATOM     23  C   UNL     1       2.126  -0.039   1.168  0.00  0.00    -0.079 C 
ATOM     24  C   UNL     1       0.002  -0.004   0.002  0.00  0.00    -0.074 C 
ATOM     25  C   UNL     1       0.651  -1.955   1.280  0.00  0.00    -0.096 C 
ATOM     26  N   UNL     1       0.716  -0.481   1.206  0.00  0.00    +0.378 N 
ATOM     27  H   UNL     1       0.265  -0.085   2.039  0.00  0.00    -0.082 HD
ENDBRANCH  19  20
ENDBRANCH  17  19
ENDBRANCH   5  15
BRANCH   3  28
ATOM     28  C   UNL     1      -6.614  -0.326   0.227  0.00  0.00    +0.124 C 
BRANCH  28  29
ATOM     29  C   UNL     1      -6.443  -1.819  -0.060  0.00  0.00    +0.009 C 
ATOM     30  C   UNL     1      -7.388  -2.233  -1.190  0.00  0.00    +0.005 C 
ATOM     31  C   UNL     1      -7.217  -3.726  -1.477  0.00  0.00    +0.000 C 
ATOM     32  C   UNL     1      -7.547  -4.528  -0.217  0.00  0.00    +0.000 C 
ATOM     33  C   UNL     1      -6.603  -4.114   0.914  0.00  0.00    +0.000 C 
ATOM     34  C   UNL     1      -6.774  -2.621   1.200  0.00  0.00    +0.005 C 
ENDBRANCH  28  29
ENDBRANCH   3  28
TORSDOF 7
