REMARK  Name = ZINC01293651
REMARK  15 active torsions:
REMARK  status: ('A' for Active; 'I' for Inactive)
REMARK    1  A    between atoms: C_1  and  C_2
REMARK    2  A    between atoms: C_5  and  C_8
REMARK    3  A    between atoms: C_11  and  S_20
REMARK    4  A    between atoms: N_12  and  C_13
REMARK    5  A    between atoms: C_16  and  C_19
REMARK    6  A    between atoms: S_20  and  C_21
REMARK    7  A    between atoms: C_21  and  C_22
REMARK    8  A    between atoms: N_24  and  N_25
REMARK    9  A    between atoms: C_26  and  C_27
REMARK   10  A    between atoms: C_30  and  O_37
REMARK   11  A    between atoms: C_31  and  O_35
REMARK   12  A    between atoms: C_32  and  O_33
REMARK   13  A    between atoms: O_33  and  C_34
REMARK   14  A    between atoms: O_35  and  C_36
REMARK   15  A    between atoms: O_37  and  C_38
REMARK                            x       y       z     vdW  Elec       q    Type
REMARK                         _______ _______ _______ _____ _____    ______ ____
ROOT
ATOM      1  S   UNL     1       0.515  -7.833   1.477  0.00  0.00    -0.076 S 
ENDROOT
BRANCH   1   5
ATOM      2  C   UNL     1       0.060  -4.251  -0.021  0.00  0.00    +0.169 A 
ATOM      3  N   UNL     1      -0.203  -5.029  -1.045  0.00  0.00    -0.128 NA
ATOM      4  N   UNL     1      -0.092  -6.262  -0.701  0.00  0.00    -0.122 NA
ATOM      5  C   UNL     1       0.249  -6.349   0.566  0.00  0.00    +0.197 A 
ATOM      6  N   UNL     1       0.363  -5.072   1.043  0.00  0.00    -0.270 N 
BRANCH   2  11
ATOM      7  C   UNL     1      -0.018   1.503   0.010  0.00  0.00    +0.044 C 
ATOM      8  C   UNL     1       0.002  -0.004   0.002  0.00  0.00    -0.050 A 
ATOM      9  C   UNL     1       0.006  -0.686  -1.202  0.00  0.00    +0.004 A 
ATOM     10  C   UNL     1       0.024  -2.066  -1.216  0.00  0.00    +0.012 A 
ATOM     11  C   UNL     1       0.040  -2.773  -0.013  0.00  0.00    +0.020 A 
ATOM     12  C   UNL     1       0.037  -2.079   1.198  0.00  0.00    +0.012 A 
ATOM     13  C   UNL     1       0.023  -0.699   1.198  0.00  0.00    +0.004 A 
ENDBRANCH   2  11
BRANCH   6  14
ATOM     14  C   UNL     1       0.712  -4.681   2.343  0.00  0.00    +0.051 A 
ATOM     15  C   UNL     1       1.889  -3.978   2.565  0.00  0.00    +0.026 A 
ATOM     16  C   UNL     1       2.230  -3.594   3.847  0.00  0.00    +0.005 A 
ATOM     17  C   UNL     1       1.401  -3.908   4.909  0.00  0.00    -0.050 A 
ATOM     18  C   UNL     1       0.229  -4.609   4.690  0.00  0.00    +0.005 A 
ATOM     19  C   UNL     1      -0.121  -4.990   3.410  0.00  0.00    +0.026 A 
ATOM     20  C   UNL     1       1.777  -3.488   6.306  0.00  0.00    +0.044 C 
ENDBRANCH   6  14
ENDBRANCH   1   5
BRANCH   1  21
ATOM     21  C   UNL     1       0.211  -9.151   0.269  0.00  0.00    +0.174 C 
BRANCH  21  22
ATOM     22  C   UNL     1       0.408 -10.492   0.927  0.00  0.00    +0.242 C 
ATOM     23  O   UNL     1       0.722 -10.553   2.098  0.00  0.00    -0.273 OA
ATOM     24  N   UNL     1       0.234 -11.624   0.217  0.00  0.00    -0.206 N 
ATOM     25  H   UNL     1      -0.017 -11.576  -0.719  0.00  0.00    +0.177 HD
BRANCH  24  26
ATOM     26  N   UNL     1       0.417 -12.871   0.829  0.00  0.00    -0.188 NA
ATOM     27  C   UNL     1       0.250 -13.961   0.145  0.00  0.00    +0.142 C 
BRANCH  27  28
ATOM     28  C   UNL     1       0.442 -15.272   0.789  0.00  0.00    +0.040 A 
ATOM     29  C   UNL     1       0.268 -16.448   0.052  0.00  0.00    +0.017 A 
ATOM     30  C   UNL     1       0.448 -17.673   0.657  0.00  0.00    +0.050 A 
ATOM     31  C   UNL     1       0.803 -17.746   1.998  0.00  0.00    +0.165 A 
ATOM     32  C   UNL     1       0.978 -16.584   2.740  0.00  0.00    +0.204 A 
ATOM     33  C   UNL     1       0.805 -15.345   2.140  0.00  0.00    +0.174 A 
BRANCH  33  34
ATOM     34  O   UNL     1       0.981 -14.207   2.862  0.00  0.00    -0.491 OA
ATOM     35  C   UNL     1      -0.165 -13.682   3.535  0.00  0.00    +0.277 C 
ENDBRANCH  33  34
BRANCH  32  36
ATOM     36  O   UNL     1       1.325 -16.661   4.054  0.00  0.00    -0.488 OA
ATOM     37  C   UNL     1       2.722 -16.677   4.356  0.00  0.00    +0.277 C 
ENDBRANCH  32  36
BRANCH  31  38
ATOM     38  O   UNL     1       0.978 -18.959   2.586  0.00  0.00    -0.491 OA
ATOM     39  C   UNL     1       0.782 -20.113   1.766  0.00  0.00    +0.277 C 
ENDBRANCH  31  38
ENDBRANCH  27  28
ENDBRANCH  24  26
ENDBRANCH  21  22
ENDBRANCH   1  21
TORSDOF 10
