REMARK  Name = ZINC01396503
REMARK  5 active torsions:
REMARK  status: ('A' for Active; 'I' for Inactive)
REMARK    1  A    between atoms: C_3  and  N_17
REMARK    2  A    between atoms: N_6  and  C_8
REMARK    3  A    between atoms: C_8  and  C_9
REMARK    4  A    between atoms: N_17  and  S_18
REMARK    5  A    between atoms: S_18  and  C_21
REMARK                            x       y       z     vdW  Elec       q    Type
REMARK                         _______ _______ _______ _____ _____    ______ ____
ROOT
ATOM      1  C   UNL     1      -4.307   4.010  -2.543  0.00  0.00    +0.020 A 
ATOM      2  C   UNL     1      -3.841   4.951  -3.472  0.00  0.00    +0.031 A 
ATOM      3  C   UNL     1      -3.100   6.013  -3.032  0.00  0.00    +0.112 A 
ATOM      4  C   UNL     1      -2.826   6.139  -1.652  0.00  0.00    +0.274 A 
ATOM      5  O   UNL     1      -2.171   7.083  -1.243  0.00  0.00    -0.266 OA
ATOM      6  N   UNL     1      -3.286   5.213  -0.789  0.00  0.00    -0.309 N 
ATOM      7  C   UNL     1      -4.023   4.157  -1.229  0.00  0.00    +0.089 A 
ENDROOT
BRANCH   3   8
ATOM      8  N   UNL     1      -2.622   6.968  -3.939  0.00  0.00    -0.211 N 
ATOM      9  H   UNL     1      -2.037   7.678  -3.632  0.00  0.00    +0.174 HD
BRANCH   8  10
ATOM     10  S   UNL     1      -3.056   6.884  -5.535  0.00  0.00    +0.072 S 
ATOM     11  O   UNL     1      -2.466   8.006  -6.176  0.00  0.00    -0.150 OA
ATOM     12  O   UNL     1      -2.807   5.549  -5.954  0.00  0.00    -0.150 OA
BRANCH  10  13
ATOM     13  C   UNL     1      -4.801   7.119  -5.614  0.00  0.00    +0.109 A 
ATOM     14  C   UNL     1      -5.644   6.025  -5.671  0.00  0.00    +0.030 A 
ATOM     15  C   UNL     1      -7.012   6.209  -5.727  0.00  0.00    +0.022 A 
ATOM     16  C   UNL     1      -7.538   7.489  -5.737  0.00  0.00    +0.041 A 
ATOM     17  C   UNL     1      -6.694   8.584  -5.686  0.00  0.00    +0.022 A 
ATOM     18  C   UNL     1      -5.325   8.398  -5.624  0.00  0.00    +0.030 A 
ATOM     19 CL   UNL     1      -9.257   7.721  -5.814  0.00  0.00    -0.084 Cl
ENDBRANCH  10  13
ENDBRANCH   8  10
ENDBRANCH   3   8
BRANCH   6  20
ATOM     20  C   UNL     1      -2.994   5.346   0.640  0.00  0.00    +0.160 C 
BRANCH  20  21
ATOM     21  C   UNL     1      -1.705   4.634   0.958  0.00  0.00    -0.026 A 
ATOM     22  C   UNL     1      -1.724   3.299   1.318  0.00  0.00    +0.007 A 
ATOM     23  C   UNL     1      -0.543   2.646   1.615  0.00  0.00    +0.022 A 
ATOM     24  C   UNL     1       0.660   3.324   1.543  0.00  0.00    +0.059 A 
ATOM     25  C   UNL     1       0.680   4.660   1.177  0.00  0.00    +0.060 A 
ATOM     26  C   UNL     1      -0.504   5.313   0.885  0.00  0.00    +0.026 A 
ATOM     27 CL   UNL     1       2.189   5.513   1.085  0.00  0.00    -0.082 Cl
ATOM     28 CL   UNL     1       2.145   2.502   1.909  0.00  0.00    -0.082 Cl
ENDBRANCH  20  21
ENDBRANCH   6  20
TORSDOF 5
