REMARK  Name = ZINC40101543
REMARK  20 active torsions:
REMARK  status: ('A' for Active; 'I' for Inactive)
REMARK    1  A    between atoms: C_1  and  C_2
REMARK    2  A    between atoms: C_2  and  C_3
REMARK    3  A    between atoms: C_3  and  C_4
REMARK    4  A    between atoms: C_4  and  N_5
REMARK    5  A    between atoms: C_6  and  C_25
REMARK    6  A    between atoms: C_8  and  C_13
REMARK    7  A    between atoms: C_13  and  C_15
REMARK    8  A    between atoms: C_19  and  O_21
REMARK    9  A    between atoms: O_21  and  C_22
REMARK   10  A    between atoms: C_22  and  C_23
REMARK   11  A    between atoms: C_23  and  C_24
REMARK   12  A    between atoms: C_28  and  O_34
REMARK   13  A    between atoms: C_29  and  O_31
REMARK   14  A    between atoms: O_31  and  C_32
REMARK   15  A    between atoms: C_32  and  C_33
REMARK   16  A    between atoms: O_34  and  C_35
REMARK   17  A    between atoms: C_35  and  C_36
REMARK   18  A    between atoms: C_36  and  C_37
REMARK   19  A    between atoms: C_37  and  C_38
REMARK   20  A    between atoms: C_37  and  C_39
REMARK                            x       y       z     vdW  Elec       q    Type
REMARK                         _______ _______ _______ _____ _____    ______ ____
ROOT
ATOM      1  N   UNL     1       0.685  -2.241  -2.683  0.00  0.00    -0.284 N 
ATOM      2  C   UNL     1       0.596  -2.242  -4.148  0.00  0.00    +0.145 C 
ATOM      3  C   UNL     1       1.847  -2.928  -4.646  0.00  0.00    +0.076 C 
ATOM      4  C   UNL     1       2.564  -3.274  -3.551  0.00  0.00    +0.249 C 
ATOM      5  C   UNL     1       1.839  -2.841  -2.338  0.00  0.00    +0.288 C 
ATOM      6  O   UNL     1       2.227  -3.004  -1.198  0.00  0.00    -0.266 OA
ATOM      7  O   UNL     1       3.757  -3.912  -3.565  0.00  0.00    -0.282 OA
ENDROOT
BRANCH   2   8
ATOM      8  C   UNL     1       0.538  -0.828  -4.665  0.00  0.00    -0.019 A 
ATOM      9  C   UNL     1       1.449   0.109  -4.214  0.00  0.00    +0.009 A 
ATOM     10  C   UNL     1       1.400   1.408  -4.685  0.00  0.00    +0.050 A 
ATOM     11  C   UNL     1       0.436   1.773  -5.611  0.00  0.00    +0.162 A 
ATOM     12  C   UNL     1      -0.481   0.830  -6.065  0.00  0.00    +0.162 A 
ATOM     13  C   UNL     1      -0.423  -0.471  -5.593  0.00  0.00    +0.055 A 
BRANCH  12  14
ATOM     14  O   UNL     1      -1.428   1.183  -6.974  0.00  0.00    -0.489 OA
BRANCH  14  15
ATOM     15  C   UNL     1      -2.256   0.138  -7.489  0.00  0.00    +0.226 C 
ATOM     16  C   UNL     1      -3.172   0.701  -8.577  0.00  0.00    +0.048 C 
ENDBRANCH  14  15
ENDBRANCH  12  14
BRANCH  11  17
ATOM     17  O   UNL     1       0.386   3.050  -6.075  0.00  0.00    -0.488 OA
BRANCH  17  18
ATOM     18  C   UNL     1       1.359   3.965  -5.564  0.00  0.00    +0.229 C 
BRANCH  18  19
ATOM     19  C   UNL     1       1.146   5.341  -6.197  0.00  0.00    +0.044 C 
BRANCH  19  20
ATOM     20  C   UNL     1       2.187   6.320  -5.650  0.00  0.00    -0.014 C 
ATOM     21  C   UNL     1       3.583   5.881  -6.096  0.00  0.00    +0.007 C 
ATOM     22  C   UNL     1       1.898   7.724  -6.186  0.00  0.00    +0.007 C 
ENDBRANCH  19  20
ENDBRANCH  18  19
ENDBRANCH  17  18
ENDBRANCH  11  17
ENDBRANCH   2   8
BRANCH   3  23
ATOM     23  C   UNL     1       2.213  -3.171  -6.044  0.00  0.00    +0.195 C 
ATOM     24  O   UNL     1       3.184  -2.615  -6.524  0.00  0.00    -0.287 OA
BRANCH  23  25
ATOM     25  C   UNL     1       1.404  -4.090  -6.871  0.00  0.00    +0.026 A 
ATOM     26  C   UNL     1       0.316  -4.764  -6.311  0.00  0.00    +0.012 A 
ATOM     27  C   UNL     1      -0.437  -5.622  -7.085  0.00  0.00    +0.004 A 
ATOM     28  C   UNL     1      -0.119  -5.817  -8.417  0.00  0.00    +0.046 A 
ATOM     29  C   UNL     1       0.961  -5.152  -8.983  0.00  0.00    +0.121 A 
ATOM     30  C   UNL     1       1.720  -4.285  -8.217  0.00  0.00    +0.057 A 
BRANCH  29  31
ATOM     31  O   UNL     1       1.268  -5.349 -10.292  0.00  0.00    -0.492 OA
BRANCH  31  32
ATOM     32  C   UNL     1       0.439  -6.253 -11.025  0.00  0.00    +0.229 C 
BRANCH  32  33
ATOM     33  C   UNL     1       0.937  -6.345 -12.469  0.00  0.00    +0.038 C 
ATOM     34  C   UNL     1       0.049  -7.313 -13.254  0.00  0.00    +0.007 C 
ENDBRANCH  32  33
ENDBRANCH  31  32
ENDBRANCH  29  31
ENDBRANCH  23  25
ENDBRANCH   3  23
BRANCH   1  35
ATOM     35  C   UNL     1      -0.304  -1.680  -1.760  0.00  0.00    +0.109 C 
BRANCH  35  36
ATOM     36  C   UNL     1       0.027  -0.212  -1.486  0.00  0.00    +0.019 C 
BRANCH  36  38
ATOM     37  C   UNL     1      -0.674   1.842  -0.248  0.00  0.00    +0.004 C 
ATOM     38  C   UNL     1      -1.006   0.373  -0.522  0.00  0.00    -0.002 C 
ENDBRANCH  36  38
ENDBRANCH  35  36
ENDBRANCH   1  35
TORSDOF 15
