REMARK  Name = ZINC59777874
REMARK  9 active torsions:
REMARK  status: ('A' for Active; 'I' for Inactive)
REMARK    1  A    between atoms: C_1  and  C_2
REMARK    2  A    between atoms: C_2  and  O_3
REMARK    3  A    between atoms: O_3  and  C_4
REMARK    4  A    between atoms: C_4  and  C_6
REMARK    5  A    between atoms: C_10  and  N_11
REMARK    6  A    between atoms: C_12  and  C_14
REMARK    7  A    between atoms: C_14  and  S_15
REMARK    8  A    between atoms: S_15  and  C_16
REMARK    9  A    between atoms: C_19  and  C_22
REMARK                            x       y       z     vdW  Elec       q    Type
REMARK                         _______ _______ _______ _____ _____    ______ ____
ROOT
ATOM      1  N   UNL     1       3.740  -2.424   1.391  0.00  0.00    -0.279 N 
ATOM      2  C   UNL     1       5.043  -2.734   1.539  0.00  0.00    +0.228 C 
ATOM      3  O   UNL     1       5.442  -3.192   2.589  0.00  0.00    -0.275 OA
ATOM      4  H   UNL     1       3.421  -2.058   0.551  0.00  0.00    +0.155 HD
ENDROOT
BRANCH   1   9
ATOM      5  C   UNL     1       1.496  -2.371   2.467  0.00  0.00    +0.091 A 
ATOM      6  C   UNL     1       0.782  -2.684   3.704  0.00  0.00    -0.021 A 
ATOM      7  C   UNL     1       1.563  -3.186   4.676  0.00  0.00    -0.004 A 
ATOM      8  S   UNL     1       3.187  -3.241   3.964  0.00  0.00    -0.077 S 
ATOM      9  C   UNL     1       2.856  -2.628   2.438  0.00  0.00    +0.086 A 
ATOM     10  C   UNL     1       0.780  -3.486   5.926  0.00  0.00    +0.043 C 
ATOM     11  C   UNL     1      -0.540  -2.701   5.757  0.00  0.00    +0.010 C 
ATOM     12  C   UNL     1      -0.652  -2.601   4.222  0.00  0.00    +0.037 C 
BRANCH   5  13
ATOM     13  C   UNL     1       0.801  -1.814   1.305  0.00  0.00    +0.342 C 
ATOM     14  O   UNL     1       0.321  -2.557   0.470  0.00  0.00    -0.245 OA
BRANCH  13  15
ATOM     15  O   UNL     1       0.693  -0.477   1.160  0.00  0.00    -0.461 OA
BRANCH  15  17
ATOM     16  C   UNL     1      -0.019   1.526   0.010  0.00  0.00    +0.048 C 
ATOM     17  C   UNL     1       0.002  -0.004   0.002  0.00  0.00    +0.229 C 
ENDBRANCH  15  17
ENDBRANCH  13  15
ENDBRANCH   5  13
ENDBRANCH   1   9
BRANCH   2  18
ATOM     18  C   UNL     1       6.005  -2.513   0.400  0.00  0.00    +0.173 C 
BRANCH  18  19
ATOM     19  S   UNL     1       7.670  -3.023   0.906  0.00  0.00    -0.077 S 
BRANCH  19  20
ATOM     20  C   UNL     1       8.663  -2.706  -0.514  0.00  0.00    +0.185 A 
ATOM     21  N   UNL     1       8.242  -2.211  -1.657  0.00  0.00    -0.201 NA
ATOM     22  H   UNL     1      10.578  -3.283   0.068  0.00  0.00    +0.191 HD
ATOM     23  C   UNL     1       9.271  -2.106  -2.510  0.00  0.00    +0.182 A 
ATOM     24  N   UNL     1      10.361  -2.535  -1.916  0.00  0.00    -0.152 NA
ATOM     25  N   UNL     1       9.993  -2.925  -0.618  0.00  0.00    -0.253 N 
BRANCH  23  26
ATOM     26  C   UNL     1       9.192  -1.589  -3.899  0.00  0.00    +0.021 A 
ATOM     27  C   UNL     1       7.972  -1.157  -4.415  0.00  0.00    +0.013 A 
ATOM     28  C   UNL     1       7.903  -0.677  -5.707  0.00  0.00    +0.016 A 
ATOM     29  C   UNL     1       9.043  -0.626  -6.490  0.00  0.00    +0.018 A 
ATOM     30  C   UNL     1      10.257  -1.054  -5.982  0.00  0.00    +0.016 A 
ATOM     31  C   UNL     1      10.338  -1.530  -4.689  0.00  0.00    +0.013 A 
ATOM     32 BR   UNL     1       8.942   0.032  -8.260  0.00  0.00    -0.050 Br
ENDBRANCH  23  26
ENDBRANCH  19  20
ENDBRANCH  18  19
ENDBRANCH   2  18
TORSDOF 8
