REMARK  Name = ZINC65006813
REMARK  11 active torsions:
REMARK  status: ('A' for Active; 'I' for Inactive)
REMARK    1  A    between atoms: C_1  and  C_2
REMARK    2  A    between atoms: C_3  and  C_13
REMARK    3  A    between atoms: C_5  and  C_7
REMARK    4  A    between atoms: C_18  and  C_21
REMARK    5  A    between atoms: C_21  and  C_23
REMARK    6  A    between atoms: C_21  and  C_24
REMARK    7  A    between atoms: N_26  and  C_27
REMARK    8  A    between atoms: C_27  and  C_28
REMARK    9  A    between atoms: C_28  and  N_29
REMARK   10  A    between atoms: N_29  and  C_30
REMARK   11  A    between atoms: N_29  and  C_31
REMARK                            x       y       z     vdW  Elec       q    Type
REMARK                         _______ _______ _______ _____ _____    ______ ____
ROOT
ATOM      1  C   UNL     1      -0.008  -0.258  -2.570  0.00  0.00    +0.255 C 
ATOM      2  O   UNL     1       0.108  -0.649  -1.424  0.00  0.00    -0.269 OA
ATOM      3  N   UNL     1      -0.102  -1.146  -3.580  0.00  0.00    -0.297 N 
ATOM      4  C   UNL     1      -0.198  -2.586  -3.303  0.00  0.00    +0.108 C 
ATOM      5  C   UNL     1       0.896  -3.313  -4.090  0.00  0.00    +0.023 C 
ATOM      6  C   UNL     1       0.781  -2.948  -5.572  0.00  0.00    +0.004 C 
ATOM      7  C   UNL     1       0.982  -1.441  -5.746  0.00  0.00    +0.023 C 
ATOM      8  C   UNL     1      -0.117  -0.692  -4.977  0.00  0.00    +0.108 C 
ENDROOT
BRANCH   1  11
ATOM      9  C   UNL     1       1.540   1.993  -1.054  0.00  0.00    +0.067 C 
ATOM     10  C   UNL     1       0.616   2.227  -2.221  0.00  0.00    +0.058 A 
ATOM     11  C   UNL     1      -0.044   1.180  -2.853  0.00  0.00    +0.097 A 
ATOM     12  S   UNL     1      -0.950   2.073  -4.107  0.00  0.00    -0.062 S 
ATOM     13  C   UNL     1      -0.420   3.623  -3.718  0.00  0.00    +0.109 A 
ATOM     14  N   UNL     1       0.388   3.425  -2.690  0.00  0.00    -0.243 NA
BRANCH  13  15
ATOM     15  C   UNL     1      -0.777   4.901  -4.368  0.00  0.00    +0.007 A 
ATOM     16  C   UNL     1      -1.665   4.916  -5.445  0.00  0.00    +0.010 A 
ATOM     17  C   UNL     1      -1.994   6.113  -6.047  0.00  0.00    +0.001 A 
ATOM     18  C   UNL     1      -1.446   7.297  -5.585  0.00  0.00    +0.000 A 
ATOM     19  C   UNL     1      -0.566   7.289  -4.518  0.00  0.00    +0.001 A 
ATOM     20  C   UNL     1      -0.234   6.100  -3.903  0.00  0.00    +0.010 A 
ENDBRANCH  13  15
ENDBRANCH   1  11
BRANCH   6  21
ATOM     21  C   UNL     1       1.851  -3.700  -6.367  0.00  0.00    +0.075 C 
ATOM     22  C   UNL     1       1.736  -3.336  -7.848  0.00  0.00    +0.017 C 
BRANCH  21  23
ATOM     23  C   UNL     1       1.652  -5.184  -6.197  0.00  0.00    +0.216 C 
ATOM     24  O   UNL     1       0.744  -5.600  -5.509  0.00  0.00    -0.276 OA
ATOM     25  N   UNL     1       2.484  -6.050  -6.811  0.00  0.00    -0.317 N 
ATOM     26  H   UNL     1       3.210  -5.717  -7.361  0.00  0.00    +0.149 HD
BRANCH  25  27
ATOM     27  C   UNL     1       2.291  -7.493  -6.646  0.00  0.00    +0.085 C 
BRANCH  27  28
ATOM     28  C   UNL     1       3.360  -8.244  -7.441  0.00  0.00    -0.060 C 
BRANCH  28  29
ATOM     29  N   UNL     1       3.167  -9.691  -7.276  0.00  0.00    +0.381 N 
ATOM     30  C   UNL     1       1.887 -10.085  -7.878  0.00  0.00    -0.096 C 
ATOM     31  H   UNL     1       3.161  -9.920  -6.293  0.00  0.00    -0.082 HD
BRANCH  29  32
ATOM     32  C   UNL     1       4.263 -10.410  -7.939  0.00  0.00    -0.069 C 
ATOM     33  C   UNL     1       5.596  -9.999  -7.311  0.00  0.00    -0.015 C 
ATOM     34  C   UNL     1       6.737 -10.749  -8.002  0.00  0.00    -0.002 C 
ATOM     35  C   UNL     1       6.535 -12.256  -7.830  0.00  0.00    -0.000 C 
ATOM     36  C   UNL     1       5.202 -12.667  -8.458  0.00  0.00    -0.002 C 
ATOM     37  C   UNL     1       4.061 -11.917  -7.767  0.00  0.00    -0.015 C 
ENDBRANCH  29  32
ENDBRANCH  28  29
ENDBRANCH  27  28
ENDBRANCH  25  27
ENDBRANCH  21  23
ENDBRANCH   6  21
TORSDOF 8
