REMARK  Name = ZINC36684542
REMARK  11 active torsions:
REMARK  status: ('A' for Active; 'I' for Inactive)
REMARK    1  A    between atoms: C_1  and  C_2
REMARK    2  A    between atoms: C_5  and  C_8
REMARK    3  A    between atoms: C_8  and  C_35
REMARK    4  A    between atoms: N_11  and  C_15
REMARK    5  A    between atoms: C_15  and  C_16
REMARK    6  A    between atoms: N_18  and  C_19
REMARK    7  A    between atoms: C_19  and  C_20
REMARK    8  A    between atoms: C_20  and  C_22
REMARK    9  A    between atoms: C_20  and  N_30
REMARK   10  A    between atoms: C_27  and  O_28
REMARK   11  A    between atoms: O_28  and  C_29
REMARK                            x       y       z     vdW  Elec       q    Type
REMARK                         _______ _______ _______ _____ _____    ______ ____
ROOT
ATOM      1  C   UNL     1      -3.826  -4.654   2.214  0.00  0.00    +0.231 C 
ATOM      2  O   UNL     1      -3.936  -3.475   1.952  0.00  0.00    -0.274 OA
ATOM      3  N   UNL     1      -4.903  -5.360   2.610  0.00  0.00    -0.315 N 
ATOM      4  H   UNL     1      -4.815  -6.303   2.820  0.00  0.00    +0.149 HD
ENDROOT
BRANCH   1   5
ATOM      5  C   UNL     1      -2.484  -5.330   2.096  0.00  0.00    +0.213 C 
BRANCH   5   9
ATOM      6  C   UNL     1       0.141  -2.752   1.589  0.00  0.00    +0.135 C 
ATOM      7  C   UNL     1      -0.745  -3.596   2.483  0.00  0.00    +0.251 C 
ATOM      8  O   UNL     1      -0.781  -3.588   3.695  0.00  0.00    -0.272 OA
ATOM      9  N   UNL     1      -1.484  -4.356   1.651  0.00  0.00    -0.215 N 
ATOM     10  C   UNL     1      -1.191  -4.112   0.369  0.00  0.00    +0.310 C 
ATOM     11  O   UNL     1      -1.727  -4.675  -0.566  0.00  0.00    -0.252 OA
ATOM     12  N   UNL     1      -0.237  -3.174   0.229  0.00  0.00    -0.281 N 
ATOM     13  C   UNL     1       1.618  -3.049   1.853  0.00  0.00    +0.047 C 
ATOM     14  H   UNL     1       0.130  -2.840  -0.605  0.00  0.00    +0.152 HD
BRANCH   6  19
ATOM     15  C   UNL     1      -0.967   2.868   2.353  0.00  0.00    +0.044 C 
ATOM     16  C   UNL     1      -0.678   1.403   2.154  0.00  0.00    -0.050 A 
ATOM     17  C   UNL     1      -0.324   0.932   0.903  0.00  0.00    +0.004 A 
ATOM     18  C   UNL     1      -0.059  -0.413   0.720  0.00  0.00    +0.006 A 
ATOM     19  C   UNL     1      -0.147  -1.286   1.788  0.00  0.00    -0.015 A 
ATOM     20  C   UNL     1      -0.500  -0.815   3.039  0.00  0.00    +0.006 A 
ATOM     21  C   UNL     1      -0.761   0.530   3.223  0.00  0.00    +0.004 A 
ENDBRANCH   6  19
ENDBRANCH   5   9
ENDBRANCH   1   5
BRANCH   3  22
ATOM     22  C   UNL     1      -6.208  -4.703   2.724  0.00  0.00    +0.093 C 
BRANCH  22  23
ATOM     23  C   UNL     1      -7.224  -5.685   3.311  0.00  0.00    -0.017 C 
BRANCH  23  24
ATOM     24  C   UNL     1      -7.433  -6.826   2.349  0.00  0.00    -0.018 A 
ATOM     25  C   UNL     1      -6.795  -8.033   2.558  0.00  0.00    +0.005 A 
ATOM     26  C   UNL     1      -6.986  -9.080   1.676  0.00  0.00    +0.000 A 
ATOM     27  C   UNL     1      -7.816  -8.922   0.581  0.00  0.00    +0.004 A 
ATOM     28  C   UNL     1      -8.457  -7.717   0.367  0.00  0.00    +0.046 A 
ATOM     29  C   UNL     1      -8.271  -6.667   1.255  0.00  0.00    +0.122 A 
BRANCH  29  30
ATOM     30  O   UNL     1      -8.905  -5.482   1.050  0.00  0.00    -0.495 OA
ATOM     31  C   UNL     1      -9.752  -5.390  -0.097  0.00  0.00    +0.277 C 
ENDBRANCH  29  30
ENDBRANCH  23  24
BRANCH  23  32
ATOM     32  N   UNL     1      -6.719  -6.208   4.588  0.00  0.00    +0.385 N 
ATOM     33  C   UNL     1      -6.476  -5.092   5.537  0.00  0.00    -0.078 C 
ATOM     34  C   UNL     1      -6.512  -5.789   6.920  0.00  0.00    -0.020 C 
ATOM     35  C   UNL     1      -7.630  -6.843   6.747  0.00  0.00    -0.020 C 
ATOM     36  C   UNL     1      -7.740  -7.066   5.227  0.00  0.00    -0.078 C 
ATOM     37  H   UNL     1      -5.869  -6.731   4.438  0.00  0.00    -0.081 HD
ENDBRANCH  23  32
ENDBRANCH  22  23
ENDBRANCH   3  22
TORSDOF 8
