REMARK  Name = ZINC38650659
REMARK  14 active torsions:
REMARK  status: ('A' for Active; 'I' for Inactive)
REMARK    1  A    between atoms: C_1  and  C_2
REMARK    2  A    between atoms: C_2  and  C_3
REMARK    3  A    between atoms: C_3  and  O_4
REMARK    4  A    between atoms: O_4  and  C_5
REMARK    5  A    between atoms: C_8  and  C_11
REMARK    6  A    between atoms: C_16  and  O_25
REMARK    7  A    between atoms: C_20  and  N_24
REMARK    8  A    between atoms: C_21  and  C_22
REMARK    9  A    between atoms: O_25  and  C_26
REMARK   10  A    between atoms: C_26  and  C_28
REMARK   11  A    between atoms: C_28  and  O_29
REMARK   12  A    between atoms: O_29  and  C_30
REMARK   13  A    between atoms: C_31  and  C_37
REMARK   14  A    between atoms: C_35  and  C_36
REMARK                            x       y       z     vdW  Elec       q    Type
REMARK                         _______ _______ _______ _____ _____    ______ ____
ROOT
ATOM      1  C   UNL     1      -6.412  -4.639   0.002  0.00  0.00    +0.098 C 
ATOM      2  C   UNL     1      -6.513  -5.482   1.246  0.00  0.00    +0.008 A 
ATOM      3  C   UNL     1      -6.676  -4.866   2.474  0.00  0.00    +0.012 A 
ATOM      4  C   UNL     1      -6.771  -5.623   3.625  0.00  0.00    +0.047 A 
ATOM      5  C   UNL     1      -6.703  -7.007   3.552  0.00  0.00    +0.135 A 
ATOM      6  C   UNL     1      -6.540  -7.627   2.324  0.00  0.00    +0.093 A 
ATOM      7  C   UNL     1      -6.444  -6.864   1.167  0.00  0.00    +0.138 A 
ATOM      8  O   UNL     1      -6.286  -7.486  -0.027  0.00  0.00    -0.441 OA
ATOM      9  C   UNL     1      -6.574  -6.834  -1.165  0.00  0.00    +0.199 C 
ATOM     10  C   UNL     1      -6.648  -5.487  -1.217  0.00  0.00    +0.098 C 
ENDROOT
BRANCH   1  14
ATOM     11  C   UNL     1      -2.515  -2.900  -0.215  0.00  0.00    +0.121 A 
ATOM     12  C   UNL     1      -3.637  -2.086  -0.156  0.00  0.00    +0.046 A 
ATOM     13  C   UNL     1      -4.896  -2.651  -0.086  0.00  0.00    +0.008 A 
ATOM     14  C   UNL     1      -5.038  -4.026  -0.075  0.00  0.00    -0.034 A 
ATOM     15  C   UNL     1      -3.921  -4.839  -0.133  0.00  0.00    +0.008 A 
ATOM     16  C   UNL     1      -2.661  -4.279  -0.209  0.00  0.00    +0.046 A 
BRANCH  11  17
ATOM     17  O   UNL     1      -1.276  -2.346  -0.284  0.00  0.00    -0.492 OA
BRANCH  17  18
ATOM     18  C   UNL     1      -1.201  -0.919  -0.285  0.00  0.00    +0.229 C 
BRANCH  18  20
ATOM     19  C   UNL     1       0.343   1.043  -0.369  0.00  0.00    +0.007 C 
ATOM     20  C   UNL     1       0.263  -0.485  -0.368  0.00  0.00    +0.038 C 
ENDBRANCH  18  20
ENDBRANCH  17  18
ENDBRANCH  11  17
ENDBRANCH   1  14
BRANCH   9  21
ATOM     21  N   UNL     1      -6.799  -7.559  -2.309  0.00  0.00    -0.328 N 
ATOM     22  H   UNL     1      -6.749  -8.528  -2.288  0.00  0.00    +0.145 HD
ATOM     23  H   UNL     1      -7.009  -7.103  -3.139  0.00  0.00    +0.145 HD
ENDBRANCH   9  21
BRANCH  10  24
ATOM     24  C   UNL     1      -6.959  -4.853  -2.462  0.00  0.00    +0.101 C 
ATOM     25  N   UNL     1      -7.206  -4.350  -3.451  0.00  0.00    -0.191 NA
ENDBRANCH  10  24
BRANCH   5  26
ATOM     26  O   UNL     1      -6.796  -7.753   4.684  0.00  0.00    -0.423 OA
BRANCH  26  27
ATOM     27  C   UNL     1      -5.698  -8.403   5.103  0.00  0.00    +0.350 C 
ATOM     28  O   UNL     1      -4.643  -8.232   4.539  0.00  0.00    -0.247 OA
BRANCH  27  29
ATOM     29  C   UNL     1      -5.781  -9.345   6.276  0.00  0.00    +0.349 C 
BRANCH  29  30
ATOM     30  O   UNL     1      -4.492  -9.909   6.527  0.00  0.00    -0.480 OA
BRANCH  30  31
ATOM     31  C   UNL     1      -4.392 -10.786   7.560  0.00  0.00    +0.127 A 
ATOM     32  C   UNL     1      -4.095 -10.327   8.835  0.00  0.00    -0.009 A 
ATOM     33  C   UNL     1      -3.995 -11.221   9.883  0.00  0.00    +0.007 A 
ATOM     34  C   UNL     1      -4.190 -12.572   9.663  0.00  0.00    +0.001 A 
ATOM     35  C   UNL     1      -4.486 -13.032   8.393  0.00  0.00    +0.007 A 
ATOM     36  C   UNL     1      -4.593 -12.142   7.342  0.00  0.00    -0.009 A 
ATOM     37  C   UNL     1      -4.921 -12.643   5.959  0.00  0.00    +0.047 C 
ATOM     38  C   UNL     1      -3.882  -8.855   9.076  0.00  0.00    +0.047 C 
ENDBRANCH  30  31
ENDBRANCH  29  30
ENDBRANCH  27  29
ENDBRANCH  26  27
ENDBRANCH   5  26
TORSDOF 11
