REMARK  Name = ZINC09938605
REMARK  12 active torsions:
REMARK  status: ('A' for Active; 'I' for Inactive)
REMARK    1  A    between atoms: C_1  and  C_2
REMARK    2  A    between atoms: C_2  and  C_3
REMARK    3  A    between atoms: C_3  and  C_5
REMARK    4  A    between atoms: C_3  and  N_6
REMARK    5  A    between atoms: C_7  and  C_9
REMARK    6  A    between atoms: C_9  and  S_10
REMARK    7  A    between atoms: S_10  and  C_11
REMARK    8  A    between atoms: N_24  and  C_25
REMARK    9  A    between atoms: C_25  and  C_26
REMARK   10  A    between atoms: C_26  and  C_27
REMARK   11  A    between atoms: C_27  and  C_28
REMARK   12  A    between atoms: N_30  and  C_31
REMARK                            x       y       z     vdW  Elec       q    Type
REMARK                         _______ _______ _______ _____ _____    ______ ____
ROOT
ATOM      1  C   UNL     1      -2.792  -2.473   0.015  0.00  0.00    +0.173 A 
ATOM      2  N   UNL     1      -1.572  -2.001   0.006  0.00  0.00    -0.222 NA
ATOM      3  C   UNL     1      -1.317  -0.663   0.011  0.00  0.00    +0.094 A 
ATOM      4  C   UNL     1       0.002  -0.004   0.002  0.00  0.00    +0.015 A 
ATOM      5  C   UNL     1       1.273  -0.624  -0.013  0.00  0.00    +0.011 A 
ATOM      6  C   UNL     1       2.410   0.122  -0.019  0.00  0.00    +0.001 A 
ATOM      7  C   UNL     1       2.366   1.510  -0.012  0.00  0.00    +0.001 A 
ATOM      8  C   UNL     1       1.144   2.151   0.003  0.00  0.00    +0.016 A 
ATOM      9  C   UNL     1      -0.017   1.402   0.010  0.00  0.00    +0.022 A 
ATOM     10  S   UNL     1      -1.742   1.819   0.036  0.00  0.00    -0.081 S 
ATOM     11  C   UNL     1      -2.425   0.183   0.026  0.00  0.00    +0.103 A 
ATOM     12  C   UNL     1      -3.728  -0.324   0.036  0.00  0.00    +0.269 A 
ATOM     13  O   UNL     1      -4.691   0.425   0.049  0.00  0.00    -0.266 OA
ATOM     14  N   UNL     1      -3.893  -1.667   0.030  0.00  0.00    -0.287 N 
ENDROOT
BRANCH   1  15
ATOM     15  S   UNL     1      -3.022  -4.220   0.008  0.00  0.00    -0.078 S 
BRANCH  15  16
ATOM     16  C   UNL     1      -1.296  -4.765  -0.011  0.00  0.00    +0.173 C 
BRANCH  16  18
ATOM     17  N   UNL     1      -0.055  -6.904  -0.035  0.00  0.00    -0.312 N 
ATOM     18  C   UNL     1      -1.244  -6.271  -0.020  0.00  0.00    +0.224 C 
ATOM     19  O   UNL     1      -2.273  -6.913  -0.014  0.00  0.00    -0.275 OA
ATOM     20  H   UNL     1       0.768  -6.391  -0.040  0.00  0.00    +0.149 HD
BRANCH  17  21
ATOM     21  C   UNL     1      -0.005  -8.368  -0.043  0.00  0.00    +0.070 C 
ATOM     22  C   UNL     1      -0.100  -8.890   1.392  0.00  0.00    +0.028 C 
BRANCH  21  24
ATOM     23  C   UNL     1       1.353  -8.415  -2.140  0.00  0.00    +0.005 C 
ATOM     24  C   UNL     1       1.313  -8.830  -0.668  0.00  0.00    +0.018 C 
ENDBRANCH  21  24
ENDBRANCH  17  21
ENDBRANCH  16  18
ENDBRANCH  15  16
ENDBRANCH   1  15
BRANCH  14  25
ATOM     25  C   UNL     1      -5.237  -2.250   0.040  0.00  0.00    +0.128 C 
BRANCH  25  26
ATOM     26  C   UNL     1      -5.720  -2.444  -1.399  0.00  0.00    +0.031 C 
BRANCH  26  27
ATOM     27  C   UNL     1      -7.124  -3.052  -1.388  0.00  0.00    +0.097 C 
BRANCH  27  28
ATOM     28  C   UNL     1      -7.599  -3.244  -2.805  0.00  0.00    +0.213 C 
ATOM     29  O   UNL     1      -6.885  -2.926  -3.732  0.00  0.00    -0.276 OA
ATOM     30  N   UNL     1      -8.817  -3.769  -3.042  0.00  0.00    -0.312 N 
ATOM     31  H   UNL     1      -9.388  -4.024  -2.300  0.00  0.00    +0.149 HD
BRANCH  30  32
ATOM     32  C   UNL     1      -9.279  -3.956  -4.420  0.00  0.00    +0.073 C 
ATOM     33  C   UNL     1      -9.902  -2.655  -4.929  0.00  0.00    +0.022 C 
ATOM     34  C   UNL     1     -10.385  -2.849  -6.368  0.00  0.00    +0.002 C 
ATOM     35  C   UNL     1     -11.430  -3.966  -6.409  0.00  0.00    +0.000 C 
ATOM     36  C   UNL     1     -10.807  -5.267  -5.899  0.00  0.00    +0.002 C 
ATOM     37  C   UNL     1     -10.324  -5.072  -4.461  0.00  0.00    +0.022 C 
ENDBRANCH  30  32
ENDBRANCH  27  28
ENDBRANCH  26  27
ENDBRANCH  25  26
ENDBRANCH  14  25
TORSDOF 10
