REMARK  Name = ZINC64844129
REMARK  10 active torsions:
REMARK  status: ('A' for Active; 'I' for Inactive)
REMARK    1  A    between atoms: C_1  and  C_2
REMARK    2  A    between atoms: C_4  and  C_35
REMARK    3  A    between atoms: C_5  and  S_9
REMARK    4  A    between atoms: C_6  and  C_8
REMARK    5  A    between atoms: S_9  and  N_12
REMARK    6  A    between atoms: N_12  and  C_13
REMARK    7  A    between atoms: C_15  and  C_32
REMARK    8  A    between atoms: C_18  and  N_19
REMARK    9  A    between atoms: C_23  and  C_26
REMARK   10  A    between atoms: C_26  and  N_27
REMARK                            x       y       z     vdW  Elec       q    Type
REMARK                         _______ _______ _______ _____ _____    ______ ____
ROOT
ATOM      1  C   UNL     1      -0.237  -7.847   0.411  0.00  0.00    +0.113 A 
ATOM      2  C   UNL     1      -1.366  -8.643   0.485  0.00  0.00    +0.046 A 
ATOM      3  C   UNL     1      -1.195 -10.026   0.671  0.00  0.00    +0.081 A 
ATOM      4  C   UNL     1       0.100 -10.541   0.773  0.00  0.00    +0.099 A 
ATOM      5  N   UNL     1       1.148  -9.749   0.698  0.00  0.00    -0.347 N 
ATOM      6  C   UNL     1       1.026  -8.442   0.517  0.00  0.00    +0.124 A 
ATOM      7  H   UNL     1       2.035 -10.133   0.772  0.00  0.00    +0.167 HD
ENDROOT
BRANCH   6   8
ATOM      8  N   UNL     1       2.162  -7.653   0.438  0.00  0.00    -0.315 N 
ATOM      9  C   UNL     1       2.857  -7.468  -0.843  0.00  0.00    +0.106 C 
ATOM     10  C   UNL     1       4.334  -7.834  -0.660  0.00  0.00    +0.019 C 
ATOM     11  C   UNL     1       4.918  -7.019   0.496  0.00  0.00    +0.005 C 
ATOM     12  C   UNL     1       4.173  -7.357   1.789  0.00  0.00    -0.010 C 
ATOM     13  C   UNL     1       2.691  -6.981   1.633  0.00  0.00    +0.108 C 
BRANCH  12  14
ATOM     14  C   UNL     1       4.779  -6.567   2.950  0.00  0.00    -0.074 C 
BRANCH  14  15
ATOM     15  N   UNL     1       4.115  -6.950   4.203  0.00  0.00    +0.380 N 
ATOM     16  C   UNL     1       4.452  -8.354   4.552  0.00  0.00    -0.079 C 
ATOM     17  C   UNL     1       4.184  -8.413   6.077  0.00  0.00    -0.020 C 
ATOM     18  C   UNL     1       4.663  -7.028   6.567  0.00  0.00    -0.020 C 
ATOM     19  C   UNL     1       4.621  -6.124   5.321  0.00  0.00    -0.079 C 
ATOM     20  H   UNL     1       3.116  -6.842   4.115  0.00  0.00    -0.082 HD
ENDBRANCH  14  15
ENDBRANCH  12  14
ENDBRANCH   6   8
BRANCH   3  21
ATOM     21  C   UNL     1      -2.362 -10.918   0.757  0.00  0.00    +0.388 C 
ATOM     22  O   UNL     1      -3.492 -10.457   0.667  0.00  0.00    -0.241 OA
ATOM     23  O   UNL     1      -2.203 -12.120   0.919  0.00  0.00    -0.241 OA
ENDBRANCH   3  21
BRANCH   1  24
ATOM     24  N   UNL     1      -0.356  -6.464   0.226  0.00  0.00    -0.094 NA
BRANCH  24  25
ATOM     25  S   UNL     1      -1.855  -5.771   0.102  0.00  0.00    +0.092 S 
ATOM     26  O   UNL     1      -2.484  -5.934   1.366  0.00  0.00    -0.148 OA
ATOM     27  O   UNL     1      -2.430  -6.258  -1.103  0.00  0.00    -0.148 OA
BRANCH  25  32
ATOM     28  C   UNL     1      -1.020   0.156  -0.659  0.00  0.00    +0.044 C 
ATOM     29  C   UNL     1      -1.229  -1.324  -0.469  0.00  0.00    -0.050 A 
ATOM     30  C   UNL     1      -1.364  -1.845   0.804  0.00  0.00    +0.008 A 
ATOM     31  C   UNL     1      -1.556  -3.203   0.979  0.00  0.00    -0.023 A 
ATOM     32  C   UNL     1      -1.612  -4.040  -0.120  0.00  0.00    +0.116 A 
ATOM     33  C   UNL     1      -1.478  -3.519  -1.394  0.00  0.00    -0.023 A 
ATOM     34  C   UNL     1      -1.290  -2.160  -1.568  0.00  0.00    +0.008 A 
ATOM     35  C   UNL     1      -1.539  -4.431  -2.591  0.00  0.00    +0.046 C 
ATOM     36  C   UNL     1      -1.703  -3.771   2.367  0.00  0.00    +0.046 C 
ENDBRANCH  25  32
ENDBRANCH  24  25
ENDBRANCH   1  24
TORSDOF 7
