REMARK  Name = ZINC39850343
REMARK  7 active torsions:
REMARK  status: ('A' for Active; 'I' for Inactive)
REMARK    1  A    between atoms: C_1  and  O_2
REMARK    2  A    between atoms: O_2  and  C_3
REMARK    3  A    between atoms: C_7  and  C_9
REMARK    4  A    between atoms: C_11  and  C_23
REMARK    5  A    between atoms: C_13  and  C_18
REMARK    6  A    between atoms: C_13  and  O_22
REMARK    7  A    between atoms: C_23  and  C_25
REMARK                            x       y       z     vdW  Elec       q    Type
REMARK                         _______ _______ _______ _____ _____    ______ ____
ROOT
ATOM      1  C   UNL     1       0.873  -3.733   2.126  0.00  0.00    +0.120 C 
ATOM      2  C   UNL     1       0.399  -4.646   3.261  0.00  0.00    +0.145 C 
ATOM      3  C   UNL     1       1.155  -5.975   3.166  0.00  0.00    +0.243 C 
ATOM      4  N   UNL     1       2.595  -5.711   3.184  0.00  0.00    -0.264 N 
ATOM      5  C   UNL     1       3.099  -4.563   2.707  0.00  0.00    +0.302 C 
ATOM      6  O   UNL     1       4.304  -4.399   2.736  0.00  0.00    -0.253 OA
ATOM      7  N   UNL     1       2.328  -3.590   2.198  0.00  0.00    -0.292 N 
ATOM      8  H   UNL     1       3.196  -6.380   3.548  0.00  0.00    +0.153 HD
ATOM      9  H   UNL     1       2.743  -2.776   1.873  0.00  0.00    +0.151 HD
ENDROOT
BRANCH   1  14
ATOM     10  C   UNL     1       0.214  -0.169   3.194  0.00  0.00    +0.120 A 
ATOM     11  C   UNL     1      -0.966   0.107   2.517  0.00  0.00    +0.045 A 
ATOM     12  C   UNL     1      -1.544  -0.860   1.718  0.00  0.00    +0.004 A 
ATOM     13  C   UNL     1      -0.948  -2.102   1.591  0.00  0.00    +0.006 A 
ATOM     14  C   UNL     1       0.227  -2.379   2.265  0.00  0.00    -0.023 A 
ATOM     15  C   UNL     1       0.812  -1.413   3.061  0.00  0.00    +0.051 A 
BRANCH  10  17
ATOM     16  C   UNL     1       0.113   2.039   4.070  0.00  0.00    +0.277 C 
ATOM     17  O   UNL     1       0.785   0.781   3.981  0.00  0.00    -0.495 OA
ENDBRANCH  10  17
ENDBRANCH   1  14
BRANCH   3  18
ATOM     18  C   UNL     1       0.783  -6.861   4.357  0.00  0.00    +0.436 C 
ATOM     19  F   UNL     1      -0.594  -7.107   4.343  0.00  0.00    -0.166 F 
ATOM     20  F   UNL     1       1.474  -8.075   4.269  0.00  0.00    -0.166 F 
ATOM     21  F   UNL     1       1.130  -6.213   5.547  0.00  0.00    -0.166 F 
ENDBRANCH   3  18
BRANCH   3  22
ATOM     22  O   UNL     1       0.806  -6.638   1.949  0.00  0.00    -0.364 OA
ATOM     23  H   UNL     1       1.249  -7.488   1.823  0.00  0.00    +0.212 HD
ENDBRANCH   3  22
BRANCH   2  24
ATOM     24  C   UNL     1       0.683  -3.992   4.589  0.00  0.00    +0.179 C 
ATOM     25  O   UNL     1       1.768  -3.488   4.798  0.00  0.00    -0.291 OA
BRANCH  24  26
ATOM     26  C   UNL     1      -0.314  -3.964   5.590  0.00  0.00    +0.055 A 
ATOM     27  C   UNL     1      -0.260  -3.413   6.866  0.00  0.00    +0.019 A 
ATOM     28  C   UNL     1      -1.399  -3.544   7.619  0.00  0.00    +0.008 A 
ATOM     29  C   UNL     1      -2.472  -4.184   7.087  0.00  0.00    +0.046 A 
ATOM     30  S   UNL     1      -1.971  -4.620   5.545  0.00  0.00    -0.094 S 
ENDBRANCH  24  26
ENDBRANCH   2  24
TORSDOF 6
