REMARK  Name = ZINC05082216
REMARK  7 active torsions:
REMARK  status: ('A' for Active; 'I' for Inactive)
REMARK    1  A    between atoms: C_1  and  C_2
REMARK    2  A    between atoms: C_7  and  C_8
REMARK    3  A    between atoms: C_8  and  S_9
REMARK    4  A    between atoms: S_9  and  C_10
REMARK    5  A    between atoms: C_15  and  N_19
REMARK    6  A    between atoms: C_16  and  N_18
REMARK    7  A    between atoms: C_20  and  C_22
REMARK                            x       y       z     vdW  Elec       q    Type
REMARK                         _______ _______ _______ _____ _____    ______ ____
ROOT
ATOM      1  C   UNL     1      -4.879  -4.036   0.211  0.00  0.00    +0.171 A 
ATOM      2  N   UNL     1      -4.860  -2.676   0.136  0.00  0.00    -0.300 N 
ATOM      3  H   UNL     1      -5.720  -2.165   0.128  0.00  0.00    +0.171 HD
ATOM      4  C   UNL     1      -3.684  -2.017   0.071  0.00  0.00    +0.275 A 
ATOM      5  O   UNL     1      -3.658  -0.798   0.009  0.00  0.00    -0.266 OA
ATOM      6  C   UNL     1      -2.493  -2.758   0.073  0.00  0.00    +0.139 A 
ATOM      7  C   UNL     1      -2.570  -4.144   0.152  0.00  0.00    +0.146 A 
ATOM      8  N   UNL     1      -3.766  -4.739   0.219  0.00  0.00    -0.207 NA
ENDROOT
BRANCH   6   9
ATOM      9  N   UNL     1      -1.245  -2.110   0.002  0.00  0.00    -0.274 N 
ATOM     10  C   UNL     1      -0.957  -1.313  -1.046  0.00  0.00    +0.249 C 
ATOM     11  O   UNL     1      -1.738  -1.224  -1.974  0.00  0.00    -0.270 OA
ATOM     12  H   UNL     1      -0.591  -2.237   0.708  0.00  0.00    +0.155 HD
BRANCH  10  13
ATOM     13  C   UNL     1       0.306  -0.548  -1.068  0.00  0.00    +0.040 A 
ATOM     14  C   UNL     1       1.204  -0.649  -0.003  0.00  0.00    +0.016 A 
ATOM     15  C   UNL     1       2.382   0.067  -0.028  0.00  0.00    +0.042 A 
ATOM     16  C   UNL     1       2.677   0.887  -1.106  0.00  0.00    +0.158 A 
ATOM     17  C   UNL     1       1.788   0.991  -2.167  0.00  0.00    +0.159 A 
ATOM     18  C   UNL     1       0.606   0.279  -2.153  0.00  0.00    +0.054 A 
ATOM     19  F   UNL     1       2.081   1.791  -3.216  0.00  0.00    -0.202 F 
ATOM     20  F   UNL     1       3.833   1.586  -1.124  0.00  0.00    -0.202 F 
ENDBRANCH  10  13
ENDBRANCH   6   9
BRANCH   7  21
ATOM     21  N   UNL     1      -1.414  -4.905   0.160  0.00  0.00    -0.341 N 
ATOM     22  H   UNL     1      -0.548  -4.471   0.111  0.00  0.00    +0.144 HD
ATOM     23  H   UNL     1      -1.470  -5.872   0.215  0.00  0.00    +0.144 HD
ENDBRANCH   7  21
BRANCH   1  24
ATOM     24  S   UNL     1      -6.427  -4.873   0.301  0.00  0.00    -0.083 S 
BRANCH  24  25
ATOM     25  C   UNL     1      -5.854  -6.588   0.379  0.00  0.00    +0.112 C 
BRANCH  25  32
ATOM     26  C   UNL     1      -7.063  -7.610  -2.038  0.00  0.00    +0.044 C 
ATOM     27  C   UNL     1      -7.620  -8.001  -0.693  0.00  0.00    -0.046 A 
ATOM     28  C   UNL     1      -8.710  -8.848  -0.616  0.00  0.00    +0.003 A 
ATOM     29  C   UNL     1      -9.220  -9.206   0.618  0.00  0.00    +0.000 A 
ATOM     30  C   UNL     1      -8.642  -8.717   1.774  0.00  0.00    +0.000 A 
ATOM     31  C   UNL     1      -7.549  -7.874   1.697  0.00  0.00    +0.005 A 
ATOM     32  C   UNL     1      -7.042  -7.511   0.463  0.00  0.00    -0.034 A 
ENDBRANCH  25  32
ENDBRANCH  24  25
ENDBRANCH   1  24
TORSDOF 6
