REMARK  Name = ZINC46617878
REMARK  10 active torsions:
REMARK  status: ('A' for Active; 'I' for Inactive)
REMARK    1  A    between atoms: C_1  and  C_2
REMARK    2  A    between atoms: C_5  and  N_8
REMARK    3  A    between atoms: N_8  and  S_9
REMARK    4  A    between atoms: S_9  and  C_12
REMARK    5  A    between atoms: C_15  and  N_21
REMARK    6  A    between atoms: C_16  and  N_18
REMARK    7  A    between atoms: N_21  and  C_22
REMARK    8  A    between atoms: C_22  and  C_23
REMARK    9  A    between atoms: N_29  and  C_30
REMARK   10  A    between atoms: N_29  and  C_31
REMARK                            x       y       z     vdW  Elec       q    Type
REMARK                         _______ _______ _______ _____ _____    ______ ____
ROOT
ATOM      1  C   UNL     1       3.135  -4.647   2.325  0.00  0.00    +0.108 A 
ATOM      2  C   UNL     1       3.583  -3.406   2.739  0.00  0.00    +0.030 A 
ATOM      3  C   UNL     1       3.425  -3.017   4.055  0.00  0.00    +0.027 A 
ATOM      4  C   UNL     1       2.817  -3.874   4.963  0.00  0.00    +0.058 A 
ATOM      5  C   UNL     1       2.368  -5.120   4.544  0.00  0.00    +0.149 A 
ATOM      6  C   UNL     1       2.524  -5.501   3.225  0.00  0.00    +0.063 A 
ENDROOT
BRANCH   1   7
ATOM      7  S   UNL     1       3.338  -5.139   0.645  0.00  0.00    +0.059 S 
ATOM      8  O   UNL     1       3.321  -6.560   0.634  0.00  0.00    -0.153 OA
ATOM      9  O   UNL     1       4.427  -4.386   0.130  0.00  0.00    -0.153 OA
BRANCH   7  10
ATOM     10  N   UNL     1       1.988  -4.643  -0.176  0.00  0.00    -0.187 NA
ATOM     11  H   UNL     1       1.387  -5.300  -0.562  0.00  0.00    +0.148 HD
BRANCH  10  16
ATOM     12  C   UNL     1      -0.499   0.471  -0.874  0.00  0.00    +0.007 C 
ATOM     13  C   UNL     1      -0.200  -1.022  -0.725  0.00  0.00    -0.014 C 
ATOM     14  C   UNL     1       0.759  -1.464  -1.832  0.00  0.00    +0.005 C 
ATOM     15  C   UNL     1       1.058  -2.957  -1.683  0.00  0.00    +0.020 C 
ATOM     16  C   UNL     1       1.702  -3.214  -0.319  0.00  0.00    +0.077 C 
ATOM     17  C   UNL     1       0.743  -2.772   0.789  0.00  0.00    +0.020 C 
ATOM     18  C   UNL     1       0.444  -1.279   0.639  0.00  0.00    +0.005 C 
ENDBRANCH  10  16
ENDBRANCH   7  10
ENDBRANCH   1   7
BRANCH   5  19
ATOM     19  N   UNL     1       1.720  -6.037   5.508  0.00  0.00    +0.058 N 
ATOM     20  O   UNL     1       2.127  -6.107   6.644  0.00  0.00    -0.126 OA
ATOM     21  O   UNL     1       0.782  -6.716   5.159  0.00  0.00    -0.126 OA
ENDBRANCH   5  19
BRANCH   4  22
ATOM     22  N   UNL     1       2.656  -3.484   6.295  0.00  0.00    -0.338 N 
ATOM     23  H   UNL     1       2.139  -4.035   6.902  0.00  0.00    +0.146 HD
BRANCH  22  24
ATOM     24  C   UNL     1       3.269  -2.243   6.773  0.00  0.00    +0.137 C 
BRANCH  24  25
ATOM     25  C   UNL     1       2.948  -2.054   8.233  0.00  0.00    -0.026 A 
ATOM     26  C   UNL     1       1.805  -1.369   8.626  0.00  0.00    +0.023 A 
ATOM     27  C   UNL     1       1.539  -1.214   9.971  0.00  0.00    +0.084 A 
ATOM     28  N   UNL     1       2.354  -1.707  10.884  0.00  0.00    -0.350 N 
ATOM     29  C   UNL     1       3.453  -2.366  10.550  0.00  0.00    +0.098 A 
ATOM     30  C   UNL     1       3.780  -2.565   9.212  0.00  0.00    +0.047 A 
ATOM     31  N   UNL     1       4.284  -2.869  11.545  0.00  0.00    -0.323 N 
ATOM     32  C   UNL     1       3.884  -2.774  12.951  0.00  0.00    +0.130 C 
ATOM     33  C   UNL     1       5.560  -3.494  11.187  0.00  0.00    +0.130 C 
ATOM     34  H   UNL     1       2.143  -1.584  11.823  0.00  0.00    +0.166 HD
ENDBRANCH  24  25
ENDBRANCH  22  24
ENDBRANCH   4  22
TORSDOF 7
