REMARK  Name = ZINC01898165
REMARK  7 active torsions:
REMARK  status: ('A' for Active; 'I' for Inactive)
REMARK    1  A    between atoms: C_1  and  C_2
REMARK    2  A    between atoms: C_12  and  C_13
REMARK    3  A    between atoms: C_13  and  C_14
REMARK    4  A    between atoms: C_14  and  C_15
REMARK    5  A    between atoms: C_20  and  O_28
REMARK    6  A    between atoms: C_31  and  C_32
REMARK    7  A    between atoms: C_35  and  C_38
REMARK                            x       y       z     vdW  Elec       q    Type
REMARK                         _______ _______ _______ _____ _____    ______ ____
ROOT
ATOM      1  C   UNL     1      -0.018   1.503   0.010  0.00  0.00    +0.045 C 
ATOM      2  C   UNL     1       0.002  -0.004   0.002  0.00  0.00    -0.030 A 
ATOM      3  C   UNL     1       0.006  -0.750  -1.260  0.00  0.00    +0.022 A 
ATOM      4  C   UNL     1      -0.008  -0.081  -2.485  0.00  0.00    +0.024 A 
ATOM      5  C   UNL     1      -0.003  -0.816  -3.659  0.00  0.00    +0.029 A 
ATOM      6  C   UNL     1       0.017  -2.224  -3.623  0.00  0.00    +0.139 A 
ATOM      7  C   UNL     1       0.032  -2.883  -2.402  0.00  0.00    +0.093 A 
ATOM      8  C   UNL     1       0.026  -2.159  -1.222  0.00  0.00    +0.143 A 
ATOM      9  O   UNL     1       0.041  -2.796  -0.029  0.00  0.00    -0.422 OA
ATOM     10  C   UNL     1       0.037  -2.118   1.128  0.00  0.00    +0.341 A 
ATOM     11  O   UNL     1       0.051  -2.736   2.178  0.00  0.00    -0.245 OA
ATOM     12  C   UNL     1       0.023  -0.707   1.163  0.00  0.00    +0.041 A 
ATOM     13  O   UNL     1       0.017  -2.660  -4.899  0.00  0.00    -0.462 OA
ATOM     14  C   UNL     1      -0.001  -1.633  -5.765  0.00  0.00    +0.204 A 
ATOM     15  C   UNL     1      -0.014  -0.460  -5.092  0.00  0.00    +0.028 A 
ENDROOT
BRANCH  15  16
ATOM     16  C   UNL     1      -0.036   0.903  -5.673  0.00  0.00    -0.014 A 
ATOM     17  C   UNL     1      -0.970   1.838  -5.224  0.00  0.00    +0.009 A 
ATOM     18  C   UNL     1      -0.990   3.104  -5.764  0.00  0.00    +0.009 A 
ATOM     19  C   UNL     1      -0.078   3.453  -6.760  0.00  0.00    -0.018 A 
ATOM     20  C   UNL     1       0.855   2.518  -7.209  0.00  0.00    +0.009 A 
ATOM     21  C   UNL     1       0.880   1.254  -6.665  0.00  0.00    +0.009 A 
BRANCH  19  22
ATOM     22  C   UNL     1      -0.100   4.817  -7.341  0.00  0.00    -0.018 A 
ATOM     23  C   UNL     1      -1.028   5.754  -6.891  0.00  0.00    +0.008 A 
ATOM     24  C   UNL     1      -1.044   7.022  -7.436  0.00  0.00    +0.001 A 
ATOM     25  C   UNL     1      -0.142   7.363  -8.428  0.00  0.00    +0.000 A 
ATOM     26  C   UNL     1       0.781   6.437  -8.879  0.00  0.00    +0.001 A 
ATOM     27  C   UNL     1       0.810   5.168  -8.337  0.00  0.00    +0.008 A 
ENDBRANCH  19  22
ENDBRANCH  15  16
BRANCH  12  28
ATOM     28  C   UNL     1       0.025   0.016   2.485  0.00  0.00    +0.052 C 
BRANCH  28  29
ATOM     29  C   UNL     1      -1.409   0.131   3.006  0.00  0.00    +0.101 C 
BRANCH  29  30
ATOM     30  C   UNL     1      -1.406   0.855   4.328  0.00  0.00    +0.216 C 
ATOM     31  O   UNL     1      -0.360   1.241   4.806  0.00  0.00    -0.276 OA
ATOM     32  N   UNL     1      -2.566   1.074   4.979  0.00  0.00    -0.301 N 
ATOM     33  C   UNL     1      -3.840   0.607   4.416  0.00  0.00    +0.110 C 
ATOM     34  C   UNL     1      -4.808   1.792   4.342  0.00  0.00    +0.054 C 
ATOM     35  C   UNL     1      -4.934   2.433   5.726  0.00  0.00    +0.072 C 
ATOM     36  C   UNL     1      -5.917   3.604   5.652  0.00  0.00    +0.035 C 
ATOM     37  C   UNL     1      -5.407   4.631   4.638  0.00  0.00    +0.003 C 
ATOM     38  C   UNL     1      -4.035   5.145   5.076  0.00  0.00    +0.001 C 
ATOM     39  C   UNL     1      -3.053   3.975   5.159  0.00  0.00    +0.008 C 
ATOM     40  C   UNL     1      -3.565   2.952   6.174  0.00  0.00    +0.038 C 
ATOM     41  C   UNL     1      -2.580   1.778   6.268  0.00  0.00    +0.114 C 
BRANCH  35  42
ATOM     42  O   UNL     1      -5.407   1.462   6.662  0.00  0.00    -0.388 OA
ATOM     43  H   UNL     1      -6.272   1.091   6.440  0.00  0.00    +0.210 HD
ENDBRANCH  35  42
ENDBRANCH  29  30
ENDBRANCH  28  29
ENDBRANCH  12  28
TORSDOF 6
