REMARK  Name = ZINC34999879
REMARK  12 active torsions:
REMARK  status: ('A' for Active; 'I' for Inactive)
REMARK    1  A    between atoms: C_1  and  C_2
REMARK    2  A    between atoms: C_6  and  C_36
REMARK    3  A    between atoms: C_7  and  N_8
REMARK    4  A    between atoms: N_11  and  C_12
REMARK    5  A    between atoms: C_12  and  C_14
REMARK    6  A    between atoms: C_12  and  C_17
REMARK    7  A    between atoms: C_14  and  C_15
REMARK    8  A    between atoms: C_14  and  C_16
REMARK    9  A    between atoms: C_23  and  C_26
REMARK   10  A    between atoms: C_27  and  C_29
REMARK   11  A    between atoms: C_29  and  C_30
REMARK   12  A    between atoms: C_30  and  C_31
REMARK                            x       y       z     vdW  Elec       q    Type
REMARK                         _______ _______ _______ _____ _____    ______ ____
ROOT
ATOM      1  C   UNL     1      -0.736  -0.674   5.867  0.00  0.00    +0.163 C 
ENDROOT
BRANCH   1   2
ATOM      2  C   UNL     1      -1.378   0.124   6.972  0.00  0.00    +0.236 C 
ATOM      3  O   UNL     1      -1.821   1.230   6.743  0.00  0.00    -0.274 OA
ATOM      4  N   UNL     1      -1.460  -0.390   8.215  0.00  0.00    -0.297 N 
ATOM      5  C   UNL     1      -0.826  -1.677   8.535  0.00  0.00    +0.127 C 
ATOM      6  C   UNL     1      -1.888  -2.615   9.121  0.00  0.00    +0.127 C 
ATOM      7  N   UNL     1      -2.613  -1.899  10.181  0.00  0.00    -0.296 N 
ATOM      8  C   UNL     1      -3.248  -0.613   9.861  0.00  0.00    +0.090 C 
ATOM      9  C   UNL     1      -2.180   0.328   9.276  0.00  0.00    +0.130 C 
ATOM     10  C   UNL     1      -4.365  -0.832   8.838  0.00  0.00    +0.029 C 
ATOM     11  C   UNL     1      -2.695  -2.414  11.424  0.00  0.00    +0.216 C 
ATOM     12  O   UNL     1      -3.296  -1.815  12.290  0.00  0.00    -0.276 OA
BRANCH  11  13
ATOM     13  C   UNL     1      -2.040  -3.735  11.737  0.00  0.00    +0.096 C 
BRANCH  13  14
ATOM     14  C   UNL     1      -2.282  -4.088  13.206  0.00  0.00    +0.013 C 
BRANCH  14  15
ATOM     15  C   UNL     1      -1.617  -5.429  13.524  0.00  0.00    -0.011 C 
ATOM     16  C   UNL     1      -2.340  -6.568  12.777  0.00  0.00    +0.003 C 
ATOM     17  C   UNL     1      -2.317  -7.752  13.776  0.00  0.00    +0.000 C 
ATOM     18  C   UNL     1      -2.541  -7.053  15.140  0.00  0.00    +0.000 C 
ATOM     19  C   UNL     1      -1.744  -5.737  15.026  0.00  0.00    +0.003 C 
ENDBRANCH  14  15
ENDBRANCH  13  14
ENDBRANCH  11  13
ENDBRANCH   1   2
BRANCH   1  23
ATOM     20  N   UNL     1      -2.007  -1.022   2.435  0.00  0.00    -0.269 N 
ATOM     21  C   UNL     1      -1.386  -1.288   3.601  0.00  0.00    +0.304 C 
ATOM     22  O   UNL     1      -0.803  -2.345   3.752  0.00  0.00    -0.252 OA
ATOM     23  N   UNL     1      -1.411  -0.384   4.599  0.00  0.00    -0.288 N 
ATOM     24  H   UNL     1      -2.434  -0.162   2.298  0.00  0.00    +0.156 HD
ATOM     25  H   UNL     1      -1.875   0.459   4.479  0.00  0.00    +0.151 HD
BRANCH  20  32
ATOM     26  C   UNL     1      -1.366  -0.206  -0.215  0.00  0.00    +0.045 C 
ATOM     27  C   UNL     1      -1.730  -1.631   0.114  0.00  0.00    -0.029 A 
ATOM     28  C   UNL     1      -1.754  -2.586  -0.884  0.00  0.00    +0.005 A 
ATOM     29  C   UNL     1      -2.087  -3.894  -0.583  0.00  0.00    +0.001 A 
ATOM     30  C   UNL     1      -2.398  -4.250   0.717  0.00  0.00    +0.005 A 
ATOM     31  C   UNL     1      -2.377  -3.299   1.719  0.00  0.00    -0.029 A 
ATOM     32  C   UNL     1      -2.036  -1.986   1.421  0.00  0.00    +0.041 A 
ATOM     33  C   UNL     1      -2.717  -3.688   3.134  0.00  0.00    +0.045 C 
ENDBRANCH  20  32
ENDBRANCH   1  23
BRANCH   1  34
ATOM     34  C   UNL     1       0.742  -0.293   5.756  0.00  0.00    +0.012 C 
ATOM     35  C   UNL     1       1.422  -0.488   7.113  0.00  0.00    +0.009 C 
ATOM     36  C   UNL     1       1.421  -1.183   4.713  0.00  0.00    +0.009 C 
ENDBRANCH   1  34
TORSDOF 7
