REMARK  Name = ZINC45138352
REMARK  8 active torsions:
REMARK  status: ('A' for Active; 'I' for Inactive)
REMARK    1  A    between atoms: C_1  and  C_2
REMARK    2  A    between atoms: C_2  and  C_3
REMARK    3  A    between atoms: C_2  and  N_4
REMARK    4  A    between atoms: C_7  and  C_10
REMARK    5  A    between atoms: C_10  and  N_11
REMARK    6  A    between atoms: N_11  and  S_12
REMARK    7  A    between atoms: S_12  and  C_15
REMARK    8  A    between atoms: N_21  and  N_22
REMARK                            x       y       z     vdW  Elec       q    Type
REMARK                         _______ _______ _______ _____ _____    ______ ____
ROOT
ATOM      1  S   UNL     1       2.729  -4.804   5.086  0.00  0.00    +0.059 S 
ATOM      2  O   UNL     1       2.343  -5.013   6.438  0.00  0.00    -0.153 OA
ATOM      3  O   UNL     1       2.761  -5.856   4.132  0.00  0.00    -0.153 OA
ENDROOT
BRANCH   1   4
ATOM      4  C   UNL     1       4.348  -4.111   5.126  0.00  0.00    +0.110 A 
ATOM      5  C   UNL     1       5.199  -4.230   4.035  0.00  0.00    +0.048 A 
ATOM      6  C   UNL     1       6.461  -3.675   4.098  0.00  0.00    +0.115 A 
ATOM      7  N   UNL     1       6.866  -3.035   5.178  0.00  0.00    -0.239 NA
ATOM      8  C   UNL     1       6.085  -2.900   6.239  0.00  0.00    +0.134 A 
ATOM      9  C   UNL     1       4.798  -3.430   6.243  0.00  0.00    +0.073 A 
ATOM     10  N   UNL     1       6.552  -2.218   7.356  0.00  0.00    -0.267 N 
ATOM     11  H   UNL     1       5.984  -2.116   8.136  0.00  0.00    +0.167 HD
BRANCH  10  12
ATOM     12  N   UNL     1       7.813  -1.691   7.357  0.00  0.00    -0.255 NA
ATOM     13  H   UNL     1       7.943  -1.063   6.578  0.00  0.00    +0.140 HD
ATOM     14  H   UNL     1       8.010  -1.228   8.231  0.00  0.00    +0.140 HD
ENDBRANCH  10  12
ENDBRANCH   1   4
BRANCH   1  15
ATOM     15  N   UNL     1       1.714  -3.645   4.478  0.00  0.00    -0.190 NA
ATOM     16  H   UNL     1       1.016  -3.270   5.037  0.00  0.00    +0.148 HD
BRANCH  15  17
ATOM     17  C   UNL     1       1.873  -3.184   3.097  0.00  0.00    +0.107 C 
BRANCH  17  21
ATOM     18  N   UNL     1       0.713  -0.491   1.192  0.00  0.00    +0.381 N 
ATOM     19  C   UNL     1      -0.018  -0.094   2.423  0.00  0.00    -0.078 C 
ATOM     20  C   UNL     1       0.491  -1.107   3.479  0.00  0.00    -0.016 C 
ATOM     21  C   UNL     1       0.621  -2.416   2.668  0.00  0.00    -0.014 C 
ATOM     22  C   UNL     1       0.742  -1.969   1.200  0.00  0.00    -0.074 C 
ATOM     23  H   UNL     1       1.652  -0.124   1.211  0.00  0.00    -0.081 HD
BRANCH  18  25
ATOM     24  C   UNL     1      -0.019   1.526   0.010  0.00  0.00    -0.014 C 
ATOM     25  C   UNL     1       0.002  -0.004   0.002  0.00  0.00    -0.075 C 
ATOM     26  C   UNL     1       0.718  -0.497  -1.257  0.00  0.00    -0.014 C 
ENDBRANCH  18  25
ENDBRANCH  17  21
ENDBRANCH  15  17
ENDBRANCH   1  15
TORSDOF 6
