REMARK  Name = ZINC66738969
REMARK  6 active torsions:
REMARK  status: ('A' for Active; 'I' for Inactive)
REMARK    1  A    between atoms: C_1  and  C_2
REMARK    2  A    between atoms: C_9  and  C_14
REMARK    3  A    between atoms: C_17  and  O_20
REMARK    4  A    between atoms: O_20  and  C_21
REMARK    5  A    between atoms: C_21  and  C_23
REMARK    6  A    between atoms: C_21  and  C_24
REMARK                            x       y       z     vdW  Elec       q    Type
REMARK                         _______ _______ _______ _____ _____    ______ ____
ROOT
ATOM      1  C   UNL     1      -0.435   0.808  -0.998  0.00  0.00    +0.045 C 
ATOM      2  C   UNL     1      -0.515  -0.693  -0.891  0.00  0.00    -0.029 A 
ATOM      3  C   UNL     1      -0.737  -1.459  -2.020  0.00  0.00    +0.005 A 
ATOM      4  C   UNL     1      -0.811  -2.840  -1.930  0.00  0.00    +0.001 A 
ATOM      5  C   UNL     1      -0.663  -3.472  -0.713  0.00  0.00    +0.015 A 
ATOM      6  C   UNL     1      -0.438  -2.713   0.432  0.00  0.00    +0.058 A 
ATOM      7  C   UNL     1      -0.362  -1.311   0.337  0.00  0.00    +0.044 A 
ATOM      8  N   UNL     1      -0.143  -0.588   1.504  0.00  0.00    -0.321 N 
ATOM      9  C   UNL     1      -0.630  -1.141   2.774  0.00  0.00    +0.190 C 
ATOM     10  N   UNL     1      -0.314  -2.567   2.860  0.00  0.00    -0.289 N 
ATOM     11  C   UNL     1      -0.267  -3.337   1.756  0.00  0.00    +0.247 C 
ATOM     12  O   UNL     1      -0.070  -4.533   1.852  0.00  0.00    -0.270 OA
ATOM     13  H   UNL     1       0.321   0.264   1.480  0.00  0.00    +0.148 HD
ATOM     14  H   UNL     1      -0.144  -2.965   3.728  0.00  0.00    +0.151 HD
ENDROOT
BRANCH   9  15
ATOM     15  C   UNL     1      -2.123  -0.958   2.858  0.00  0.00    -0.009 A 
ATOM     16  C   UNL     1      -2.724   0.114   2.223  0.00  0.00    +0.010 A 
ATOM     17  C   UNL     1      -4.093   0.284   2.299  0.00  0.00    +0.046 A 
ATOM     18  C   UNL     1      -4.865  -0.622   3.012  0.00  0.00    +0.122 A 
ATOM     19  C   UNL     1      -4.260  -1.696   3.647  0.00  0.00    +0.046 A 
ATOM     20  C   UNL     1      -2.891  -1.865   3.564  0.00  0.00    +0.010 A 
BRANCH  18  21
ATOM     21  O   UNL     1      -6.211  -0.456   3.088  0.00  0.00    -0.475 OA
BRANCH  21  22
ATOM     22  C   UNL     1      -6.753   0.734   2.512  0.00  0.00    +0.271 C 
ATOM     23  C   UNL     1      -6.981   0.517   1.015  0.00  0.00    +0.068 C 
BRANCH  22  24
ATOM     24  C   UNL     1      -8.033   1.056   3.162  0.00  0.00    +0.107 C 
ATOM     25  N   UNL     1      -9.021   1.305   3.664  0.00  0.00    -0.193 NA
ENDBRANCH  22  24
ENDBRANCH  21  22
ENDBRANCH  18  21
ENDBRANCH   9  15
TORSDOF 4
