REMARK  Name = ZINC36206573
REMARK  11 active torsions:
REMARK  status: ('A' for Active; 'I' for Inactive)
REMARK    1  A    between atoms: C_1  and  O_2
REMARK    2  A    between atoms: O_2  and  C_3
REMARK    3  A    between atoms: C_8  and  C_9
REMARK    4  A    between atoms: C_18  and  C_20
REMARK    5  A    between atoms: C_20  and  N_21
REMARK    6  A    between atoms: N_21  and  C_22
REMARK    7  A    between atoms: N_21  and  C_33
REMARK    8  A    between atoms: C_22  and  C_23
REMARK    9  A    between atoms: C_23  and  C_25
REMARK   10  A    between atoms: C_23  and  O_32
REMARK   11  A    between atoms: C_25  and  C_26
REMARK                            x       y       z     vdW  Elec       q    Type
REMARK                         _______ _______ _______ _____ _____    ______ ____
ROOT
ATOM      1  C   UNL     1       3.749  -3.259   3.955  0.00  0.00    -0.003 C 
ENDROOT
BRANCH   1  11
ATOM      2  C   UNL     1      -0.096  -4.504  -0.064  0.00  0.00    +0.007 A 
ATOM      3  C   UNL     1       0.325  -5.486  -0.897  0.00  0.00    +0.056 A 
ATOM      4  S   UNL     1       1.940  -5.900  -0.266  0.00  0.00    -0.076 S 
ATOM      5  C   UNL     1       2.012  -4.757   1.089  0.00  0.00    +0.116 A 
ATOM      6  C   UNL     1       0.785  -4.077   1.017  0.00  0.00    +0.080 A 
ATOM      7  C   UNL     1       0.575  -3.071   2.013  0.00  0.00    +0.260 A 
ATOM      8  O   UNL     1      -0.462  -2.429   2.035  0.00  0.00    -0.267 OA
ATOM      9  N   UNL     1       1.538  -2.843   2.924  0.00  0.00    -0.312 N 
ATOM     10  H   UNL     1       1.401  -2.162   3.601  0.00  0.00    +0.170 HD
ATOM     11  C   UNL     1       2.699  -3.548   2.915  0.00  0.00    +0.094 A 
ATOM     12  N   UNL     1       2.916  -4.480   2.025  0.00  0.00    -0.229 NA
BRANCH   2  18
ATOM     13  C   UNL     1      -1.516  -2.521  -0.599  0.00  0.00    +0.128 A 
ATOM     14  C   UNL     1      -2.761  -1.940  -0.776  0.00  0.00    +0.046 A 
ATOM     15  C   UNL     1      -3.907  -2.693  -0.604  0.00  0.00    +0.004 A 
ATOM     16  C   UNL     1      -3.820  -4.029  -0.254  0.00  0.00    +0.001 A 
ATOM     17  C   UNL     1      -2.586  -4.621  -0.073  0.00  0.00    +0.012 A 
ATOM     18  C   UNL     1      -1.424  -3.873  -0.250  0.00  0.00    +0.025 A 
BRANCH  13  20
ATOM     19  C   UNL     1      -0.560  -0.409  -1.124  0.00  0.00    +0.277 C 
ATOM     20  O   UNL     1      -0.388  -1.782  -0.768  0.00  0.00    -0.495 OA
ENDBRANCH  13  20
ENDBRANCH   2  18
ENDBRANCH   1  11
BRANCH   1  21
ATOM     21  N   UNL     1       4.965  -4.025   3.650  0.00  0.00    +0.388 N 
ATOM     22  H   UNL     1       4.710  -4.928   3.279  0.00  0.00    -0.081 HD
BRANCH  21  23
ATOM     23  C   UNL     1       5.766  -3.297   2.656  0.00  0.00    -0.068 C 
ATOM     24  C   UNL     1       4.918  -3.038   1.409  0.00  0.00    -0.015 C 
ATOM     25  C   UNL     1       5.753  -2.279   0.375  0.00  0.00    -0.002 C 
ATOM     26  C   UNL     1       6.210  -0.945   0.967  0.00  0.00    -0.000 C 
ATOM     27  C   UNL     1       7.057  -1.204   2.214  0.00  0.00    -0.002 C 
ATOM     28  C   UNL     1       6.223  -1.962   3.249  0.00  0.00    -0.015 C 
ENDBRANCH  21  23
BRANCH  21  29
ATOM     29  C   UNL     1       5.753  -4.204   4.877  0.00  0.00    -0.046 C 
BRANCH  29  30
ATOM     30  C   UNL     1       6.923  -5.150   4.599  0.00  0.00    +0.102 C 
BRANCH  30  31
ATOM     31  O   UNL     1       7.844  -4.519   3.707  0.00  0.00    -0.393 OA
ATOM     32  H   UNL     1       8.277  -3.737   4.077  0.00  0.00    +0.210 HD
ENDBRANCH  30  31
BRANCH  30  33
ATOM     33  C   UNL     1       7.632  -5.484   5.913  0.00  0.00    +0.064 C 
BRANCH  33  34
ATOM     34  C   UNL     1       8.706  -6.509   5.657  0.00  0.00    -0.045 A 
ATOM     35  C   UNL     1       8.408  -7.857   5.738  0.00  0.00    +0.004 A 
ATOM     36  C   UNL     1       9.393  -8.798   5.503  0.00  0.00    +0.000 A 
ATOM     37  C   UNL     1      10.677  -8.391   5.188  0.00  0.00    +0.000 A 
ATOM     38  C   UNL     1      10.974  -7.043   5.106  0.00  0.00    +0.000 A 
ATOM     39  C   UNL     1       9.988  -6.103   5.337  0.00  0.00    +0.004 A 
ENDBRANCH  33  34
ENDBRANCH  30  33
ENDBRANCH  29  30
ENDBRANCH  21  29
ENDBRANCH   1  21
TORSDOF 10
