REMARK  Name = ZINC43525875
REMARK  6 active torsions:
REMARK  status: ('A' for Active; 'I' for Inactive)
REMARK    1  A    between atoms: C_1  and  C_2
REMARK    2  A    between atoms: N_4  and  C_5
REMARK    3  A    between atoms: C_5  and  C_6
REMARK    4  A    between atoms: C_15  and  C_17
REMARK    5  A    between atoms: C_19  and  C_23
REMARK    6  A    between atoms: N_21  and  C_22
REMARK                            x       y       z     vdW  Elec       q    Type
REMARK                         _______ _______ _______ _____ _____    ______ ____
ROOT
ATOM      1  C   UNL     1      -2.495  -2.799   0.026  0.00  0.00    -0.051 C 
ATOM      2  C   UNL     1      -2.589  -4.326   0.068  0.00  0.00    -0.010 C 
ATOM      3  C   UNL     1      -3.340  -4.740   1.340  0.00  0.00    -0.007 C 
ATOM      4  C   UNL     1      -2.562  -4.214   2.554  0.00  0.00    -0.015 C 
ATOM      5  C   UNL     1      -2.447  -2.692   2.444  0.00  0.00    -0.078 C 
ATOM      6  N   UNL     1      -3.146  -2.226   1.206  0.00  0.00    +0.383 N 
ATOM      7  C   UNL     1      -4.568  -2.577   1.233  0.00  0.00    -0.068 C 
ATOM      8  C   UNL     1      -4.731  -4.095   1.314  0.00  0.00    +0.024 C 
ATOM      9  H   UNL     1      -3.075  -1.220   1.154  0.00  0.00    -0.081 HD
ENDROOT
BRANCH   8  10
ATOM     10  C   UNL     1      -5.479  -4.455   2.572  0.00  0.00    +0.041 A 
ATOM     11  C   UNL     1      -5.404  -3.808   3.758  0.00  0.00    +0.048 A 
ATOM     12  C   UNL     1      -6.252  -4.460   4.659  0.00  0.00    +0.066 A 
ATOM     13  N   UNL     1      -6.817  -5.463   4.035  0.00  0.00    -0.176 NA
ATOM     14  N   UNL     1      -6.349  -5.477   2.715  0.00  0.00    -0.271 N 
ATOM     15  C   UNL     1      -6.733  -6.434   1.675  0.00  0.00    +0.172 C 
BRANCH  12  16
ATOM     16  C   UNL     1      -6.476  -4.076   6.098  0.00  0.00    +0.040 C 
ATOM     17  C   UNL     1      -6.418  -2.553   6.234  0.00  0.00    +0.010 C 
ATOM     18  C   UNL     1      -6.645  -2.162   7.696  0.00  0.00    +0.001 C 
ATOM     19  C   UNL     1      -5.559  -2.794   8.568  0.00  0.00    +0.000 C 
ATOM     20  C   UNL     1      -5.617  -4.317   8.432  0.00  0.00    +0.001 C 
ATOM     21  C   UNL     1      -5.390  -4.708   6.970  0.00  0.00    +0.010 C 
ENDBRANCH  12  16
ENDBRANCH   8  10
BRANCH   1  22
ATOM     22  C   UNL     1      -1.024  -2.381   0.004  0.00  0.00    +0.089 C 
BRANCH  22  26
ATOM     23  C   UNL     1       0.375   1.179   0.152  0.00  0.00    +0.109 C 
ATOM     24  C   UNL     1       0.278  -0.323   0.075  0.00  0.00    +0.210 C 
ATOM     25  O   UNL     1       1.287  -0.993   0.010  0.00  0.00    -0.276 OA
ATOM     26  N   UNL     1      -0.929  -0.921   0.079  0.00  0.00    -0.317 N 
ATOM     27  H   UNL     1      -1.736  -0.385   0.131  0.00  0.00    +0.149 HD
ENDBRANCH  22  26
ENDBRANCH   1  22
TORSDOF 4
