REMARK  Name = ZINC13024352
REMARK  14 active torsions:
REMARK  status: ('A' for Active; 'I' for Inactive)
REMARK    1  A    between atoms: C_1  and  C_2
REMARK    2  A    between atoms: C_2  and  C_3
REMARK    3  A    between atoms: C_3  and  C_4
REMARK    4  A    between atoms: C_3  and  C_5
REMARK    5  A    between atoms: C_3  and  N_6
REMARK    6  A    between atoms: C_7  and  C_9
REMARK    7  A    between atoms: C_9  and  C_11
REMARK    8  A    between atoms: C_9  and  N_18
REMARK    9  A    between atoms: C_16  and  C_17
REMARK   10  A    between atoms: N_18  and  C_19
REMARK   11  A    between atoms: C_23  and  C_25
REMARK   12  A    between atoms: C_25  and  C_27
REMARK   13  A    between atoms: C_28  and  C_30
REMARK   14  A    between atoms: C_30  and  N_31
REMARK                            x       y       z     vdW  Elec       q    Type
REMARK                         _______ _______ _______ _____ _____    ______ ____
ROOT
ATOM      1  N   UNL     1      -5.180   3.517  -1.475  0.00  0.00    -0.254 N 
ATOM      2  C   UNL     1      -3.856   3.422  -1.707  0.00  0.00    +0.242 C 
ATOM      3  O   UNL     1      -3.412   3.679  -2.806  0.00  0.00    -0.273 OA
ENDROOT
BRANCH   1   4
ATOM      4  C   UNL     1      -5.680   3.326  -0.182  0.00  0.00    +0.038 A 
ATOM      5  C   UNL     1      -5.562   4.337   0.764  0.00  0.00    +0.023 A 
ATOM      6  C   UNL     1      -6.059   4.157   2.042  0.00  0.00    +0.002 A 
ATOM      7  C   UNL     1      -6.665   2.968   2.391  0.00  0.00    +0.011 A 
ATOM      8  C   UNL     1      -6.783   1.942   1.449  0.00  0.00    +0.019 A 
ATOM      9  C   UNL     1      -6.286   2.127   0.156  0.00  0.00    +0.035 A 
BRANCH   8  10
ATOM     10  C   UNL     1      -7.428   0.671   1.817  0.00  0.00    +0.160 C 
ATOM     11  O   UNL     1      -7.529  -0.218   0.999  0.00  0.00    -0.292 OA
ATOM     12  C   UNL     1      -7.963   0.474   3.212  0.00  0.00    +0.091 C 
ENDBRANCH   8  10
ENDBRANCH   1   4
BRANCH   1  13
ATOM     13  C   UNL     1      -6.096   3.819  -2.578  0.00  0.00    +0.197 C 
BRANCH  13  14
ATOM     14  C   UNL     1      -7.136   2.733  -2.678  0.00  0.00    -0.015 A 
ATOM     15  C   UNL     1      -8.426   2.968  -2.239  0.00  0.00    +0.006 A 
ATOM     16  C   UNL     1      -9.380   1.972  -2.331  0.00  0.00    +0.000 A 
ATOM     17  C   UNL     1      -9.044   0.741  -2.864  0.00  0.00    +0.000 A 
ATOM     18  C   UNL     1      -7.755   0.506  -3.304  0.00  0.00    +0.004 A 
ATOM     19  C   UNL     1      -6.802   1.504  -3.216  0.00  0.00    -0.045 A 
ATOM     20  C   UNL     1      -5.398   1.250  -3.700  0.00  0.00    +0.044 C 
ENDBRANCH  13  14
BRANCH  13  22
ATOM     21  N   UNL     1      -7.510   5.720  -3.288  0.00  0.00    -0.308 N 
ATOM     22  C   UNL     1      -6.773   5.141  -2.320  0.00  0.00    +0.239 C 
ATOM     23  O   UNL     1      -6.655   5.682  -1.241  0.00  0.00    -0.273 OA
ATOM     24  H   UNL     1      -7.656   5.259  -4.129  0.00  0.00    +0.149 HD
BRANCH  21  25
ATOM     25  C   UNL     1      -8.091   7.048  -3.071  0.00  0.00    +0.029 C 
ATOM     26  C   UNL     1      -9.034   7.001  -1.867  0.00  0.00    +0.031 C 
ATOM     27  C   UNL     1      -6.971   8.056  -2.804  0.00  0.00    +0.031 C 
BRANCH  25  29
ATOM     28  C   UNL     1      -9.479   8.858  -4.089  0.00  0.00    +0.006 C 
ATOM     29  C   UNL     1      -8.873   7.472  -4.316  0.00  0.00    +0.022 C 
ENDBRANCH  25  29
ENDBRANCH  21  25
ENDBRANCH  13  22
ENDBRANCH   1  13
BRANCH   2  30
ATOM     30  C   UNL     1      -2.925   2.998  -0.600  0.00  0.00    +0.242 C 
BRANCH  30  31
ATOM     31  N   UNL     1      -1.570   2.841  -1.133  0.00  0.00    -0.235 N 
ATOM     32  C   UNL     1      -1.022   1.696  -1.661  0.00  0.00    +0.090 A 
ATOM     33  C   UNL     1      -1.494   0.405  -1.868  0.00  0.00    +0.029 A 
ATOM     34  C   UNL     1      -0.676  -0.536  -2.428  0.00  0.00    +0.002 A 
ATOM     35  C   UNL     1       0.622  -0.212  -2.802  0.00  0.00    +0.002 A 
ATOM     36  C   UNL     1       1.107   1.049  -2.615  0.00  0.00    +0.032 A 
ATOM     37  C   UNL     1       0.291   2.031  -2.038  0.00  0.00    +0.113 A 
ATOM     38  N   UNL     1       0.485   3.330  -1.734  0.00  0.00    -0.129 NA
ATOM     39  N   UNL     1      -0.577   3.829  -1.207  0.00  0.00    -0.064 NA
ENDBRANCH  30  31
ENDBRANCH   2  30
TORSDOF 9
