REMARK  Name = ZINC22018573
REMARK  11 active torsions:
REMARK  status: ('A' for Active; 'I' for Inactive)
REMARK    1  A    between atoms: C_1  and  C_2
REMARK    2  A    between atoms: C_2  and  O_3
REMARK    3  A    between atoms: O_3  and  C_4
REMARK    4  A    between atoms: C_4  and  C_6
REMARK    5  A    between atoms: C_7  and  C_32
REMARK    6  A    between atoms: C_8  and  C_13
REMARK    7  A    between atoms: C_9  and  C_12
REMARK    8  A    between atoms: C_13  and  C_15
REMARK    9  A    between atoms: C_15  and  N_16
REMARK   10  A    between atoms: C_19  and  C_23
REMARK   11  A    between atoms: C_19  and  C_24
REMARK                            x       y       z     vdW  Elec       q    Type
REMARK                         _______ _______ _______ _____ _____    ______ ____
ROOT
ATOM      1  N   UNL     1      -1.035  -2.199   0.222  0.00  0.00    -0.216 N 
ATOM      2  C   UNL     1      -0.951  -3.023  -0.842  0.00  0.00    +0.251 C 
ATOM      3  O   UNL     1      -1.089  -2.728  -2.009  0.00  0.00    -0.272 OA
ATOM      4  C   UNL     1      -0.646  -4.395  -0.274  0.00  0.00    +0.136 C 
ATOM      5  N   UNL     1      -0.597  -4.164   1.180  0.00  0.00    -0.281 N 
ATOM      6  C   UNL     1      -0.835  -2.854   1.371  0.00  0.00    +0.310 C 
ATOM      7  O   UNL     1      -0.866  -2.325   2.464  0.00  0.00    -0.252 OA
ATOM      8  C   UNL     1      -1.764  -5.379  -0.625  0.00  0.00    +0.047 C 
ATOM      9  H   UNL     1      -0.392  -5.002   1.863  0.00  0.00    +0.152 HD
ENDROOT
BRANCH   4  10
ATOM     10  C   UNL     1       0.682  -4.898  -0.777  0.00  0.00    +0.003 A 
ATOM     11  C   UNL     1       1.722  -5.108   0.110  0.00  0.00    +0.009 A 
ATOM     12  C   UNL     1       2.941  -5.569  -0.351  0.00  0.00    +0.020 A 
ATOM     13  C   UNL     1       3.121  -5.821  -1.699  0.00  0.00    +0.042 A 
ATOM     14  C   UNL     1       2.081  -5.612  -2.587  0.00  0.00    +0.040 A 
ATOM     15  C   UNL     1       0.859  -5.155  -2.124  0.00  0.00    +0.048 A 
ATOM     16 CL   UNL     1      -0.449  -4.899  -3.236  0.00  0.00    -0.083 Cl
ATOM     17 CL   UNL     1       4.652  -6.401  -2.277  0.00  0.00    -0.083 Cl
ENDBRANCH   4  10
BRANCH   1  18
ATOM     18  C   UNL     1      -1.317  -0.764   0.131  0.00  0.00    +0.197 C 
BRANCH  18  19
ATOM     19  C   UNL     1      -0.021  -0.004   0.009  0.00  0.00    +0.183 C 
ATOM     20  O   UNL     1       1.027  -0.606  -0.099  0.00  0.00    -0.290 OA
BRANCH  19  23
ATOM     21  C   UNL     1      -0.013   3.583   0.722  0.00  0.00    +0.128 A 
ATOM     22  C   UNL     1       0.007   2.294   1.166  0.00  0.00    -0.008 A 
ATOM     23  C   UNL     1      -0.027   1.462   0.022  0.00  0.00    +0.043 A 
ATOM     24  C   UNL     1      -0.061   2.296  -1.085  0.00  0.00    +0.024 A 
ATOM     25  N   UNL     1      -0.058   3.567  -0.656  0.00  0.00    -0.352 N 
ATOM     26  H   UNL     1      -0.084   4.513  -1.217  0.00  0.00    +0.166 HD
ATOM     27  C   UNL     1      -0.099   1.851  -2.524  0.00  0.00    +0.064 C 
ATOM     28  C   UNL     1       0.056   1.842   2.603  0.00  0.00    +0.047 C 
BRANCH  21  29
ATOM     29  C   UNL     1       0.011   4.782   1.565  0.00  0.00    +0.356 C 
ATOM     30  O   UNL     1       0.051   4.673   2.776  0.00  0.00    -0.243 OA
BRANCH  29  31
ATOM     31  O   UNL     1      -0.013   6.006   0.999  0.00  0.00    -0.460 OA
BRANCH  31  33
ATOM     32  C   UNL     1      -0.019   8.440   1.077  0.00  0.00    +0.048 C 
ATOM     33  C   UNL     1       0.013   7.148   1.895  0.00  0.00    +0.229 C 
ENDBRANCH  31  33
ENDBRANCH  29  31
ENDBRANCH  21  29
ENDBRANCH  19  23
ENDBRANCH  18  19
ENDBRANCH   1  18
TORSDOF 7
