REMARK  Name = ZINC09095879
REMARK  14 active torsions:
REMARK  status: ('A' for Active; 'I' for Inactive)
REMARK    1  A    between atoms: C_1  and  C_2
REMARK    2  A    between atoms: C_2  and  C_3
REMARK    3  A    between atoms: C_3  and  C_5
REMARK    4  A    between atoms: C_3  and  S_17
REMARK    5  A    between atoms: N_7  and  C_8
REMARK    6  A    between atoms: C_12  and  N_14
REMARK    7  A    between atoms: S_17  and  C_18
REMARK    8  A    between atoms: C_21  and  C_24
REMARK    9  A    between atoms: N_22  and  C_23
REMARK   10  A    between atoms: C_24  and  C_26
REMARK   11  A    between atoms: C_24  and  N_29
REMARK   12  A    between atoms: C_26  and  C_27
REMARK   13  A    between atoms: C_26  and  C_28
REMARK   14  A    between atoms: C_30  and  C_32
REMARK                            x       y       z     vdW  Elec       q    Type
REMARK                         _______ _______ _______ _____ _____    ______ ____
ROOT
ATOM      1  C   UNL     1       1.910   9.899  -0.262  0.00  0.00    +0.192 A 
ATOM      2  N   UNL     1       0.771  10.277   0.271  0.00  0.00    -0.122 NA
ATOM      3  N   UNL     1       0.656  11.555   0.195  0.00  0.00    -0.132 NA
ATOM      4  C   UNL     1       1.706  12.064  -0.385  0.00  0.00    +0.155 A 
ATOM      5  N   UNL     1       2.544  11.028  -0.692  0.00  0.00    -0.308 N 
ATOM      6  C   UNL     1       3.851  11.113  -1.349  0.00  0.00    +0.152 C 
ENDROOT
BRANCH   1   7
ATOM      7  S   UNL     1       2.509   8.247  -0.391  0.00  0.00    -0.073 S 
BRANCH   7   8
ATOM      8  C   UNL     1       1.087   7.344   0.273  0.00  0.00    +0.140 C 
BRANCH   8   9
ATOM      9  C   UNL     1       1.277   5.867   0.042  0.00  0.00    +0.231 C 
ATOM     10  O   UNL     1       2.395   5.412  -0.081  0.00  0.00    -0.274 OA
ATOM     11  N   UNL     1       0.206   5.053  -0.028  0.00  0.00    -0.285 N 
ATOM     12  H   UNL     1      -0.689   5.426  -0.002  0.00  0.00    +0.155 HD
BRANCH  11  13
ATOM     13  C   UNL     1       0.385   3.669  -0.139  0.00  0.00    +0.036 A 
ATOM     14  C   UNL     1       1.473   3.057   0.470  0.00  0.00    +0.023 A 
ATOM     15  C   UNL     1       1.647   1.692   0.358  0.00  0.00    +0.004 A 
ATOM     16  C   UNL     1       0.739   0.934  -0.359  0.00  0.00    +0.033 A 
ATOM     17  C   UNL     1      -0.342   1.541  -0.971  0.00  0.00    +0.128 A 
ATOM     18  C   UNL     1      -0.525   2.906  -0.858  0.00  0.00    +0.056 A 
BRANCH  17  19
ATOM     19  N   UNL     1      -1.308   0.727  -1.743  0.00  0.00    +0.056 N 
ATOM     20  O   UNL     1      -1.150  -0.476  -1.839  0.00  0.00    -0.126 OA
ATOM     21  O   UNL     1      -2.261   1.261  -2.282  0.00  0.00    -0.126 OA
ENDBRANCH  17  19
ENDBRANCH  11  13
ENDBRANCH   8   9
BRANCH   8  23
ATOM     22  C   UNL     1      -0.308   6.960   2.310  0.00  0.00    +0.005 C 
ATOM     23  C   UNL     1       0.968   7.614   1.775  0.00  0.00    +0.020 C 
ENDBRANCH   8  23
ENDBRANCH   7   8
ENDBRANCH   1   7
BRANCH   4  24
ATOM     24  C   UNL     1       1.952  13.525  -0.661  0.00  0.00    +0.144 C 
BRANCH  24  25
ATOM     25  N   UNL     1       0.737  14.130  -1.211  0.00  0.00    -0.301 N 
ATOM     26  C   UNL     1       0.822  15.230  -1.985  0.00  0.00    +0.245 C 
ATOM     27  O   UNL     1       1.908  15.720  -2.228  0.00  0.00    -0.270 OA
ATOM     28  H   UNL     1      -0.130  13.739  -1.017  0.00  0.00    +0.150 HD
BRANCH  26  29
ATOM     29  C   UNL     1      -0.405  15.841  -2.540  0.00  0.00    +0.037 A 
ATOM     30  C   UNL     1      -1.653  15.277  -2.268  0.00  0.00    +0.013 A 
ATOM     31  C   UNL     1      -2.794  15.855  -2.784  0.00  0.00    +0.001 A 
ATOM     32  C   UNL     1      -2.703  16.984  -3.579  0.00  0.00    +0.000 A 
ATOM     33  C   UNL     1      -1.469  17.544  -3.857  0.00  0.00    +0.001 A 
ATOM     34  C   UNL     1      -0.320  16.980  -3.342  0.00  0.00    +0.013 A 
ENDBRANCH  26  29
ENDBRANCH  24  25
BRANCH  24  35
ATOM     35  C   UNL     1       2.331  14.233   0.640  0.00  0.00    +0.011 C 
ATOM     36  C   UNL     1       3.601  13.601   1.214  0.00  0.00    +0.009 C 
ATOM     37  C   UNL     1       2.582  15.716   0.360  0.00  0.00    +0.009 C 
ENDBRANCH  24  35
ENDBRANCH   4  24
TORSDOF 10
