REMARK  Name = ZINC33672188
REMARK  10 active torsions:
REMARK  status: ('A' for Active; 'I' for Inactive)
REMARK    1  A    between atoms: C_1  and  C_2
REMARK    2  A    between atoms: C_5  and  N_9
REMARK    3  A    between atoms: C_6  and  C_8
REMARK    4  A    between atoms: C_10  and  C_12
REMARK    5  A    between atoms: C_12  and  C_13
REMARK    6  A    between atoms: N_17  and  C_29
REMARK    7  A    between atoms: N_20  and  N_21
REMARK    8  A    between atoms: C_22  and  C_24
REMARK    9  A    between atoms: C_32  and  O_35
REMARK   10  A    between atoms: O_35  and  C_36
REMARK                            x       y       z     vdW  Elec       q    Type
REMARK                         _______ _______ _______ _____ _____    ______ ____
ROOT
ATOM      1  C   UNL     1      -0.236  -6.847  -2.627  0.00  0.00    +0.191 C 
ATOM      2  C   UNL     1      -0.367  -8.357  -2.654  0.00  0.00    +0.248 C 
ATOM      3  O   UNL     1      -1.257  -9.024  -2.171  0.00  0.00    -0.273 OA
ATOM      4  N   UNL     1       0.711  -8.804  -3.328  0.00  0.00    -0.219 N 
ATOM      5  C   UNL     1       1.497  -7.797  -3.726  0.00  0.00    +0.164 C 
ATOM      6  S   UNL     1       2.949  -8.014  -4.607  0.00  0.00    -0.016 S 
ATOM      7  N   UNL     1       1.017  -6.592  -3.358  0.00  0.00    -0.218 N 
ENDROOT
BRANCH   4   8
ATOM      8  C   UNL     1       0.977 -10.159  -3.581  0.00  0.00    +0.043 A 
ATOM      9  C   UNL     1       0.130 -10.891  -4.401  0.00  0.00    +0.027 A 
ATOM     10  C   UNL     1       0.392 -12.224  -4.650  0.00  0.00    +0.047 A 
ATOM     11  C   UNL     1       1.501 -12.831  -4.080  0.00  0.00    +0.120 A 
ATOM     12  C   UNL     1       2.348 -12.099  -3.260  0.00  0.00    +0.047 A 
ATOM     13  C   UNL     1       2.090 -10.765  -3.015  0.00  0.00    +0.027 A 
BRANCH  11  14
ATOM     14  O   UNL     1       1.759 -14.143  -4.324  0.00  0.00    -0.495 OA
ATOM     15  C   UNL     1       2.918 -14.704  -3.705  0.00  0.00    +0.277 C 
ENDBRANCH  11  14
ENDBRANCH   4   8
BRANCH   7  16
ATOM     16  N   UNL     1       1.595  -5.342  -3.619  0.00  0.00    -0.227 N 
ATOM     17  C   UNL     1       2.678  -4.942  -2.923  0.00  0.00    +0.267 C 
ATOM     18  O   UNL     1       3.154  -5.666  -2.068  0.00  0.00    -0.268 OA
ATOM     19  H   UNL     1       1.216  -4.765  -4.300  0.00  0.00    +0.173 HD
BRANCH  17  20
ATOM     20  C   UNL     1       3.282  -3.635  -3.195  0.00  0.00    +0.075 A 
ATOM     21  C   UNL     1       4.388  -3.043  -2.604  0.00  0.00    +0.021 A 
ATOM     22  C   UNL     1       4.719  -1.795  -3.074  0.00  0.00    +0.008 A 
ATOM     23  C   UNL     1       3.967  -1.239  -4.056  0.00  0.00    +0.046 A 
ATOM     24  S   UNL     1       2.791  -2.394  -4.378  0.00  0.00    -0.092 S 
ENDBRANCH  17  20
ENDBRANCH   7  16
BRANCH   1  25
ATOM     25  C   UNL     1      -0.131  -6.342  -1.186  0.00  0.00    +0.129 C 
BRANCH  25  27
ATOM     26  N   UNL     1       0.063  -4.169  -0.021  0.00  0.00    -0.285 N 
ATOM     27  C   UNL     1      -0.038  -4.838  -1.187  0.00  0.00    +0.220 C 
ATOM     28  O   UNL     1      -0.054  -4.230  -2.236  0.00  0.00    -0.275 OA
ATOM     29  H   UNL     1       0.157  -4.657   0.812  0.00  0.00    +0.155 HD
BRANCH  26  34
ATOM     30  C   UNL     1      -0.061   1.503   0.013  0.00  0.00    +0.044 C 
ATOM     31  C   UNL     1      -0.028  -0.004   0.004  0.00  0.00    -0.050 A 
ATOM     32  C   UNL     1      -0.621  -0.701  -1.033  0.00  0.00    +0.005 A 
ATOM     33  C   UNL     1      -0.592  -2.081  -1.044  0.00  0.00    +0.024 A 
ATOM     34  C   UNL     1       0.033  -2.770  -0.013  0.00  0.00    +0.036 A 
ATOM     35  C   UNL     1       0.628  -2.067   1.026  0.00  0.00    -0.029 A 
ATOM     36  C   UNL     1       0.600  -0.686   1.029  0.00  0.00    +0.008 A 
ATOM     37  C   UNL     1       1.308  -2.810   2.147  0.00  0.00    +0.045 C 
ENDBRANCH  26  34
ENDBRANCH  25  27
ENDBRANCH   1  25
TORSDOF 7
