REMARK  Name = ZINC39991395
REMARK  14 active torsions:
REMARK  status: ('A' for Active; 'I' for Inactive)
REMARK    1  A    between atoms: C_1  and  C_2
REMARK    2  A    between atoms: C_2  and  C_3
REMARK    3  A    between atoms: C_6  and  C_9
REMARK    4  A    between atoms: C_11  and  C_23
REMARK    5  A    between atoms: N_15  and  C_16
REMARK    6  A    between atoms: C_16  and  C_17
REMARK    7  A    between atoms: C_17  and  C_18
REMARK    8  A    between atoms: C_18  and  N_19
REMARK    9  A    between atoms: N_19  and  C_20
REMARK   10  A    between atoms: N_19  and  C_21
REMARK   11  A    between atoms: C_23  and  C_25
REMARK   12  A    between atoms: C_26  and  C_37
REMARK   13  A    between atoms: C_28  and  S_30
REMARK   14  A    between atoms: S_30  and  C_31
REMARK                            x       y       z     vdW  Elec       q    Type
REMARK                         _______ _______ _______ _____ _____    ______ ____
ROOT
ATOM      1  C   UNL     1      -5.412  -2.001   0.035  0.00  0.00    +0.145 C 
ATOM      2  C   UNL     1      -5.439  -3.454  -0.381  0.00  0.00    +0.077 C 
ATOM      3  C   UNL     1      -6.205  -3.527  -1.492  0.00  0.00    +0.249 C 
ATOM      4  C   UNL     1      -6.693  -2.178  -1.837  0.00  0.00    +0.288 C 
ATOM      5  O   UNL     1      -7.406  -1.916  -2.785  0.00  0.00    -0.266 OA
ATOM      6  N   UNL     1      -6.232  -1.280  -0.946  0.00  0.00    -0.284 N 
ATOM      7  O   UNL     1      -6.481  -4.661  -2.181  0.00  0.00    -0.282 OA
ENDROOT
BRANCH   1  11
ATOM      8  C   UNL     1      -1.403  -0.528  -0.033  0.00  0.00    -0.048 A 
ATOM      9  C   UNL     1      -2.064  -0.678   1.172  0.00  0.00    +0.004 A 
ATOM     10  C   UNL     1      -3.362  -1.154   1.194  0.00  0.00    +0.006 A 
ATOM     11  C   UNL     1      -3.998  -1.481   0.011  0.00  0.00    -0.022 A 
ATOM     12  C   UNL     1      -3.337  -1.331  -1.194  0.00  0.00    +0.006 A 
ATOM     13  C   UNL     1      -2.042  -0.850  -1.216  0.00  0.00    +0.004 A 
BRANCH   8  15
ATOM     14  C   UNL     1      -0.008   1.517  -0.163  0.00  0.00    +0.009 C 
ATOM     15  C   UNL     1       0.011  -0.009  -0.056  0.00  0.00    +0.032 C 
ENDBRANCH   8  15
ENDBRANCH   1  11
BRANCH   2  16
ATOM     16  C   UNL     1      -4.763  -4.569   0.293  0.00  0.00    +0.203 C 
ATOM     17  O   UNL     1      -3.861  -5.165  -0.272  0.00  0.00    -0.286 OA
BRANCH  16  18
ATOM     18  C   UNL     1      -5.159  -4.954   1.599  0.00  0.00    +0.083 A 
ATOM     19  C   UNL     1      -4.603  -5.904   2.454  0.00  0.00    +0.058 A 
ATOM     20  N   UNL     1      -5.184  -6.048   3.615  0.00  0.00    -0.237 NA
ATOM     21  C   UNL     1      -6.242  -5.328   3.953  0.00  0.00    +0.140 A 
ATOM     22  S   UNL     1      -6.502  -4.350   2.608  0.00  0.00    -0.057 S 
ATOM     23  C   UNL     1      -3.399  -6.720   2.060  0.00  0.00    +0.067 C 
BRANCH  21  24
ATOM     24  S   UNL     1      -7.157  -5.377   5.458  0.00  0.00    -0.063 S 
BRANCH  24  25
ATOM     25  C   UNL     1      -6.433  -6.709   6.355  0.00  0.00    +0.015 A 
ATOM     26  C   UNL     1      -5.436  -6.459   7.290  0.00  0.00    +0.015 A 
ATOM     27  C   UNL     1      -4.870  -7.505   7.991  0.00  0.00    +0.001 A 
ATOM     28  C   UNL     1      -5.294  -8.802   7.762  0.00  0.00    +0.000 A 
ATOM     29  C   UNL     1      -6.286  -9.055   6.832  0.00  0.00    +0.001 A 
ATOM     30  C   UNL     1      -6.861  -8.012   6.133  0.00  0.00    +0.015 A 
ENDBRANCH  24  25
ENDBRANCH  21  24
ENDBRANCH  16  18
ENDBRANCH   2  16
BRANCH   6  31
ATOM     31  C   UNL     1      -6.501   0.160  -0.953  0.00  0.00    +0.107 C 
BRANCH  31  32
ATOM     32  C   UNL     1      -5.427   0.875  -1.774  0.00  0.00    +0.000 C 
BRANCH  32  33
ATOM     33  C   UNL     1      -5.708   2.380  -1.782  0.00  0.00    -0.078 C 
BRANCH  33  34
ATOM     34  N   UNL     1      -4.676   3.066  -2.571  0.00  0.00    +0.376 N 
ATOM     35  C   UNL     1      -5.011   4.493  -2.678  0.00  0.00    -0.097 C 
ATOM     36  C   UNL     1      -3.373   2.917  -1.909  0.00  0.00    -0.097 C 
ATOM     37  H   UNL     1      -4.633   2.661  -3.493  0.00  0.00    -0.083 HD
ENDBRANCH  33  34
ENDBRANCH  32  33
ENDBRANCH  31  32
ENDBRANCH   6  31
TORSDOF 10
