REMARK  Name = ZINC55156498
REMARK  7 active torsions:
REMARK  status: ('A' for Active; 'I' for Inactive)
REMARK    1  A    between atoms: C_1  and  C_2
REMARK    2  A    between atoms: C_3  and  N_11
REMARK    3  A    between atoms: C_7  and  N_8
REMARK    4  A    between atoms: C_12  and  C_14
REMARK    5  A    between atoms: C_14  and  C_16
REMARK    6  A    between atoms: C_14  and  N_17
REMARK    7  A    between atoms: N_17  and  C_18
REMARK                            x       y       z     vdW  Elec       q    Type
REMARK                         _______ _______ _______ _____ _____    ______ ____
ROOT
ATOM      1  N   UNL     1      -0.412   0.188  -2.474  0.00  0.00    -0.284 N 
ATOM      2  C   UNL     1      -0.693  -0.494  -3.603  0.00  0.00    +0.237 C 
ATOM      3  O   UNL     1      -0.659  -1.706  -3.604  0.00  0.00    -0.273 OA
ATOM      4  H   UNL     1      -0.387   1.157  -2.487  0.00  0.00    +0.155 HD
ENDROOT
BRANCH   1   7
ATOM      5  C   UNL     1      -1.258   1.365  -0.026  0.00  0.00    +0.048 C 
ATOM      6  C   UNL     1      -0.552   0.034  -0.068  0.00  0.00    +0.001 A 
ATOM      7  C   UNL     1      -0.155  -0.504  -1.285  0.00  0.00    +0.039 A 
ATOM      8  C   UNL     1       0.496  -1.730  -1.320  0.00  0.00    +0.024 A 
ATOM      9  C   UNL     1       0.747  -2.410  -0.144  0.00  0.00    +0.004 A 
ATOM     10  C   UNL     1       0.350  -1.872   1.066  0.00  0.00    +0.033 A 
ATOM     11  C   UNL     1      -0.293  -0.648   1.104  0.00  0.00    +0.131 A 
BRANCH  11  12
ATOM     12  N   UNL     1      -0.710  -0.073   2.402  0.00  0.00    +0.057 N 
ATOM     13  O   UNL     1      -0.806   1.126   2.529  0.00  0.00    -0.126 OA
ATOM     14  O   UNL     1      -0.954  -0.801   3.336  0.00  0.00    -0.126 OA
ENDBRANCH  11  12
ENDBRANCH   1   7
BRANCH   2  15
ATOM     15  C   UNL     1      -1.050   0.251  -4.863  0.00  0.00    +0.154 C 
ATOM     16  C   UNL     1      -2.302   1.096  -4.620  0.00  0.00    +0.038 C 
BRANCH  15  17
ATOM     17  N   UNL     1      -1.310  -0.708  -5.940  0.00  0.00    -0.330 N 
ATOM     18  H   UNL     1      -1.595  -1.610  -5.728  0.00  0.00    +0.147 HD
BRANCH  17  19
ATOM     19  C   UNL     1      -1.146  -0.322  -7.276  0.00  0.00    +0.074 A 
ATOM     20  C   UNL     1      -0.732   0.968  -7.580  0.00  0.00    +0.027 A 
ATOM     21  C   UNL     1      -0.571   1.349  -8.899  0.00  0.00    +0.006 A 
ATOM     22  C   UNL     1      -0.823   0.450  -9.917  0.00  0.00    +0.049 A 
ATOM     23  C   UNL     1      -1.237  -0.842  -9.622  0.00  0.00    +0.164 A 
ATOM     24  C   UNL     1      -1.393  -1.232  -8.300  0.00  0.00    +0.183 A 
ATOM     25  O   UNL     1      -1.787  -2.499  -7.987  0.00  0.00    -0.483 OA
ATOM     26  C   UNL     1      -2.382  -3.265  -9.040  0.00  0.00    +0.270 C 
ATOM     27  C   UNL     1      -1.517  -3.106 -10.298  0.00  0.00    +0.270 C 
ATOM     28  O   UNL     1      -1.484  -1.713 -10.639  0.00  0.00    -0.485 OA
ENDBRANCH  17  19
ENDBRANCH  15  17
ENDBRANCH   2  15
TORSDOF 5
