REMARK  Name = ZINC63254448
REMARK  13 active torsions:
REMARK  status: ('A' for Active; 'I' for Inactive)
REMARK    1  A    between atoms: C_1  and  C_2
REMARK    2  A    between atoms: C_2  and  C_3
REMARK    3  A    between atoms: C_2  and  C_4
REMARK    4  A    between atoms: C_9  and  N_10
REMARK    5  A    between atoms: C_11  and  C_13
REMARK    6  A    between atoms: C_13  and  C_15
REMARK    7  A    between atoms: C_13  and  N_25
REMARK    8  A    between atoms: C_15  and  C_16
REMARK    9  A    between atoms: C_26  and  O_28
REMARK   10  A    between atoms: O_28  and  C_29
REMARK   11  A    between atoms: C_29  and  C_30
REMARK   12  A    between atoms: C_29  and  C_31
REMARK   13  A    between atoms: C_29  and  C_32
REMARK                            x       y       z     vdW  Elec       q    Type
REMARK                         _______ _______ _______ _____ _____    ______ ____
ROOT
ATOM      1  C   UNL     1      -0.490  -2.380  -4.357  0.00  0.00    +0.166 C 
ENDROOT
BRANCH   1   3
ATOM      2  N   UNL     1      -0.991  -1.440  -2.124  0.00  0.00    -0.284 N 
ATOM      3  C   UNL     1      -1.445  -2.043  -3.241  0.00  0.00    +0.238 C 
ATOM      4  O   UNL     1      -2.622  -2.315  -3.347  0.00  0.00    -0.273 OA
ATOM      5  H   UNL     1      -0.061  -1.171  -2.062  0.00  0.00    +0.155 HD
BRANCH   2  11
ATOM      6  C   UNL     1      -1.363  -1.099   0.238  0.00  0.00    -0.024 A 
ATOM      7  C   UNL     1      -2.223  -0.858   1.291  0.00  0.00    +0.006 A 
ATOM      8  C   UNL     1      -3.580  -0.726   1.060  0.00  0.00    +0.000 A 
ATOM      9  C   UNL     1      -4.080  -0.833  -0.225  0.00  0.00    +0.002 A 
ATOM     10  C   UNL     1      -3.225  -1.073  -1.282  0.00  0.00    +0.023 A 
ATOM     11  C   UNL     1      -1.861  -1.202  -1.054  0.00  0.00    +0.037 A 
BRANCH   6  13
ATOM     12  C   UNL     1       0.677   0.082   1.009  0.00  0.00    +0.012 C 
ATOM     13  C   UNL     1       0.116  -1.243   0.490  0.00  0.00    +0.015 C 
ATOM     14  C   UNL     1       0.351  -2.339   1.531  0.00  0.00    +0.012 C 
ENDBRANCH   6  13
ENDBRANCH   2  11
ENDBRANCH   1   3
BRANCH   1  15
ATOM     15  N   UNL     1      -1.080  -3.414  -5.209  0.00  0.00    -0.269 N 
ATOM     16  C   UNL     1      -2.249  -3.182  -5.840  0.00  0.00    +0.401 C 
ATOM     17  O   UNL     1      -2.812  -2.115  -5.701  0.00  0.00    -0.226 OA
ATOM     18  H   UNL     1      -0.630  -4.267  -5.320  0.00  0.00    +0.153 HD
BRANCH  16  19
ATOM     19  O   UNL     1      -2.792  -4.133  -6.623  0.00  0.00    -0.445 OA
BRANCH  19  20
ATOM     20  C   UNL     1      -4.031  -3.819  -7.260  0.00  0.00    +0.107 C 
ATOM     21  C   UNL     1      -3.845  -2.599  -8.164  0.00  0.00    +0.055 C 
ATOM     22  C   UNL     1      -4.489  -5.012  -8.102  0.00  0.00    +0.055 C 
ATOM     23  C   UNL     1      -5.088  -3.510  -6.197  0.00  0.00    +0.055 C 
ENDBRANCH  19  20
ENDBRANCH  16  19
ENDBRANCH   1  15
BRANCH   1  24
ATOM     24  C   UNL     1      -0.217  -1.126  -5.191  0.00  0.00    +0.065 C 
BRANCH  24  25
ATOM     25  C   UNL     1       0.830  -1.432  -6.230  0.00  0.00    -0.039 C 
ATOM     26  C   UNL     1       0.618  -1.796  -7.516  0.00  0.00    -0.001 A 
ATOM     27  C   UNL     1      -0.604  -2.008  -8.300  0.00  0.00    +0.010 A 
ATOM     28  C   UNL     1      -0.495  -2.378  -9.597  0.00  0.00    +0.001 A 
ATOM     29  C   UNL     1       0.752  -2.564 -10.208  0.00  0.00    +0.002 A 
ATOM     30  C   UNL     1       1.919  -2.388  -9.552  0.00  0.00    +0.026 A 
ATOM     31  C   UNL     1       1.923  -1.998  -8.184  0.00  0.00    +0.043 A 
ATOM     32  N   UNL     1       2.904  -1.768  -7.345  0.00  0.00    -0.380 N 
ATOM     33  C   UNL     1       2.331  -1.388  -6.049  0.00  0.00    +0.144 C 
ATOM     34  H   UNL     1       3.850  -1.835  -7.548  0.00  0.00    +0.160 HD
ENDBRANCH  24  25
ENDBRANCH   1  24
TORSDOF 8
