REMARK  Name = ZINC15955942
REMARK  6 active torsions:
REMARK  status: ('A' for Active; 'I' for Inactive)
REMARK    1  A    between atoms: C_1  and  O_2
REMARK    2  A    between atoms: O_2  and  C_3
REMARK    3  A    between atoms: C_3  and  C_5
REMARK    4  A    between atoms: C_8  and  C_11
REMARK    5  A    between atoms: N_30  and  C_33
REMARK    6  A    between atoms: C_33  and  C_34
REMARK                            x       y       z     vdW  Elec       q    Type
REMARK                         _______ _______ _______ _____ _____    ______ ____
ROOT
ATOM      1  C   UNL     1       0.002  -0.004   0.002  0.00  0.00    +0.154 C 
ATOM      2  C   UNL     1      -0.101  -0.527   1.417  0.00  0.00    +0.046 A 
ATOM      3  C   UNL     1      -1.208  -1.121   1.913  0.00  0.00    -0.015 A 
ATOM      4  C   UNL     1      -0.918  -1.476   3.287  0.00  0.00    +0.003 A 
ATOM      5  C   UNL     1      -1.673  -2.103   4.284  0.00  0.00    +0.010 A 
ATOM      6  C   UNL     1      -1.064  -2.285   5.501  0.00  0.00    +0.001 A 
ATOM      7  C   UNL     1       0.235  -1.871   5.743  0.00  0.00    +0.002 A 
ATOM      8  C   UNL     1       1.005  -1.248   4.776  0.00  0.00    +0.026 A 
ATOM      9  C   UNL     1       0.413  -1.050   3.530  0.00  0.00    +0.047 A 
ATOM     10  N   UNL     1       0.874  -0.481   2.377  0.00  0.00    -0.356 N 
ATOM     11  H   UNL     1       1.758  -0.102   2.257  0.00  0.00    +0.166 HD
ATOM     12  C   UNL     1      -2.480  -1.351   1.137  0.00  0.00    +0.069 C 
ATOM     13  C   UNL     1      -2.475  -0.445  -0.102  0.00  0.00    +0.167 C 
ATOM     14  N   UNL     1      -1.165  -0.518  -0.746  0.00  0.00    -0.276 N 
ATOM     15  C   UNL     1      -0.979  -1.027  -1.966  0.00  0.00    +0.234 C 
ATOM     16  O   UNL     1       0.159  -1.105  -2.379  0.00  0.00    -0.274 OA
ATOM     17  C   UNL     1      -2.078  -1.507  -2.857  0.00  0.00    +0.204 C 
ATOM     18  N   UNL     1      -3.388  -1.327  -2.254  0.00  0.00    -0.284 N 
ATOM     19  C   UNL     1      -3.578  -0.852  -1.025  0.00  0.00    +0.237 C 
ATOM     20  O   UNL     1      -4.720  -0.742  -0.630  0.00  0.00    -0.274 OA
ENDROOT
BRANCH   1  24
ATOM     21  C   UNL     1      -0.056   4.272   0.025  0.00  0.00    +0.059 A 
ATOM     22  C   UNL     1       1.054   3.583   0.517  0.00  0.00    +0.015 A 
ATOM     23  C   UNL     1       1.066   2.204   0.507  0.00  0.00    +0.006 A 
ATOM     24  C   UNL     1      -0.018   1.503   0.010  0.00  0.00    -0.021 A 
ATOM     25  C   UNL     1      -1.119   2.179  -0.484  0.00  0.00    +0.006 A 
ATOM     26  C   UNL     1      -1.147   3.558  -0.475  0.00  0.00    +0.015 A 
BRANCH  21  27
ATOM     27  C   UNL     1      -0.076   5.749   0.033  0.00  0.00    +0.339 C 
ATOM     28  O   UNL     1       0.875   6.367   0.469  0.00  0.00    -0.245 OA
BRANCH  27  30
ATOM     29  C   UNL     1      -1.098   7.861  -0.404  0.00  0.00    +0.280 C 
ATOM     30  O   UNL     1      -1.148   6.411  -0.443  0.00  0.00    -0.464 OA
ENDBRANCH  27  30
ENDBRANCH  21  27
ENDBRANCH   1  24
BRANCH  18  31
ATOM     31  C   UNL     1      -4.567  -1.692  -3.044  0.00  0.00    +0.182 C 
BRANCH  31  32
ATOM     32  C   UNL     1      -5.030  -0.496  -3.835  0.00  0.00    +0.122 A 
ATOM     33  C   UNL     1      -4.626  -0.169  -5.076  0.00  0.00    +0.046 A 
ATOM     34  C   UNL     1      -5.310   1.017  -5.430  0.00  0.00    +0.041 A 
ATOM     35  C   UNL     1      -6.090   1.344  -4.384  0.00  0.00    +0.195 A 
ATOM     36  O   UNL     1      -5.921   0.421  -3.424  0.00  0.00    -0.466 OA
ENDBRANCH  31  32
ENDBRANCH  18  31
TORSDOF 5
