REMARK  Name = ZINC58700217
REMARK  7 active torsions:
REMARK  status: ('A' for Active; 'I' for Inactive)
REMARK    1  A    between atoms: C_1  and  C_2
REMARK    2  A    between atoms: C_2  and  C_4
REMARK    3  A    between atoms: C_2  and  N_11
REMARK    4  A    between atoms: N_11  and  C_12
REMARK    5  A    between atoms: C_15  and  C_17
REMARK    6  A    between atoms: C_17  and  O_18
REMARK    7  A    between atoms: O_18  and  C_19
REMARK                            x       y       z     vdW  Elec       q    Type
REMARK                         _______ _______ _______ _____ _____    ______ ____
ROOT
ATOM      1  N   UNL     1       0.761  -0.444   1.100  0.00  0.00    -0.289 N 
ATOM      2  C   UNL     1       1.944  -1.044   0.865  0.00  0.00    +0.254 C 
ATOM      3  O   UNL     1       2.627  -1.423   1.793  0.00  0.00    -0.272 OA
ENDROOT
BRANCH   1   4
ATOM      4  C   UNL     1       0.258  -0.327   2.471  0.00  0.00    +0.077 C 
ATOM      5  C   UNL     1       1.260  -0.527   3.611  0.00  0.00    +0.024 C 
ATOM      6  C   UNL     1       0.212  -1.602   3.317  0.00  0.00    +0.024 C 
ENDBRANCH   1   4
BRANCH   1   8
ATOM      7  C   UNL     1      -0.362   1.560   0.259  0.00  0.00    +0.033 C 
ATOM      8  C   UNL     1      -0.022   0.093  -0.015  0.00  0.00    +0.104 C 
BRANCH   8   9
ATOM      9  C   UNL     1      -1.296  -0.699  -0.161  0.00  0.00    -0.027 A 
ATOM     10  C   UNL     1      -2.173  -0.799   0.903  0.00  0.00    +0.007 A 
ATOM     11  C   UNL     1      -3.341  -1.526   0.770  0.00  0.00    +0.020 A 
ATOM     12  C   UNL     1      -3.634  -2.152  -0.429  0.00  0.00    +0.041 A 
ATOM     13  C   UNL     1      -2.756  -2.050  -1.494  0.00  0.00    +0.020 A 
ATOM     14  C   UNL     1      -1.590  -1.319  -1.361  0.00  0.00    +0.007 A 
ATOM     15 CL   UNL     1      -5.101  -3.064  -0.597  0.00  0.00    -0.084 Cl
ENDBRANCH   8   9
ENDBRANCH   1   8
BRANCH   2  16
ATOM     16  C   UNL     1       2.419  -1.246  -0.551  0.00  0.00    +0.324 C 
BRANCH  16  17
ATOM     17  O   UNL     1       3.632  -2.001  -0.544  0.00  0.00    -0.483 OA
BRANCH  17  18
ATOM     18  C   UNL     1       4.196  -2.272  -1.748  0.00  0.00    +0.125 A 
ATOM     19  C   UNL     1       3.589  -1.810  -2.915  0.00  0.00    +0.046 A 
ATOM     20  C   UNL     1       4.144  -2.075  -4.134  0.00  0.00    +0.015 A 
ATOM     21  C   UNL     1       5.330  -2.814  -4.213  0.00  0.00    +0.018 A 
ATOM     22  C   UNL     1       5.948  -3.113  -5.506  0.00  0.00    +0.018 A 
ATOM     23  C   UNL     1       7.099  -3.834  -5.516  0.00  0.00    +0.092 A 
ATOM     24  C   UNL     1       7.663  -4.272  -4.301  0.00  0.00    +0.337 A 
ATOM     25  O   UNL     1       8.695  -4.918  -4.324  0.00  0.00    -0.245 OA
ATOM     26  O   UNL     1       7.092  -3.994  -3.118  0.00  0.00    -0.422 OA
ATOM     27  C   UNL     1       5.947  -3.282  -3.038  0.00  0.00    +0.143 A 
ATOM     28  C   UNL     1       5.373  -3.000  -1.808  0.00  0.00    +0.092 A 
ENDBRANCH  17  18
ENDBRANCH  16  17
ENDBRANCH   2  16
TORSDOF 6
