REMARK  Name = ZINC01710261
REMARK  6 active torsions:
REMARK  status: ('A' for Active; 'I' for Inactive)
REMARK    1  A    between atoms: C_1  and  C_2
REMARK    2  A    between atoms: C_2  and  C_3
REMARK    3  A    between atoms: C_2  and  C_4
REMARK    4  A    between atoms: CA_6  and  C_12
REMARK    5  A    between atoms: C_8  and  C_10
REMARK    6  A    between atoms: C_8  and  C_11
REMARK                            x       y       z     vdW  Elec       q    Type
REMARK                         _______ _______ _______ _____ _____    ______ ____
ROOT
ATOM      1  C   UNL     1      -3.204   2.711   0.751  0.00  0.00    -0.008 C 
ATOM      2  CA  UNL     1      -0.838   3.120   1.273  0.00  0.00    +0.061 C 
ATOM      3  C   UNL     1      -0.729   1.579   1.267  0.00  0.00    +0.007 C 
ATOM      4  S   UNL     1      -2.503   1.076   1.257  0.00  0.00    -0.171 S 
ATOM      5  C   UNL     1      -0.013   1.086   0.008  0.00  0.00    +0.021 C 
ATOM      6  C   UNL     1      -0.024   1.075   2.528  0.00  0.00    +0.021 C 
ATOM      7  N   UNL     1      -2.215   3.634   1.409  0.00  0.00    +0.397 N 
ATOM      8  H1  UNL     1      -2.445   3.717   2.406  0.00  0.00    -0.083 HD
ATOM      9  H2  UNL     1      -2.273   4.559   0.967  0.00  0.00    -0.083 HD
ENDROOT
BRANCH   1  11
ATOM     10  C   UNL     1      -5.563   1.888   0.723  0.00  0.00    +0.006 C 
ATOM     11  C   UNL     1      -4.607   2.919   1.325  0.00  0.00    -0.022 C 
ATOM     12  C   UNL     1      -4.566   2.750   2.845  0.00  0.00    +0.006 C 
ENDBRANCH   1  11
BRANCH   2  13
ATOM     13  C   UNL     1      -0.025   3.656   2.423  0.00  0.00    +0.344 C 
ATOM     14  O   UNL     1      -0.572   3.979   3.451  0.00  0.00    -0.248 OA
ATOM     15  OXT UNL     1       1.307   3.773   2.306  0.00  0.00    -0.248 OA
ENDBRANCH   2  13
TORSDOF 2
