REMARK  Name = ZINC15329664
REMARK  11 active torsions:
REMARK  status: ('A' for Active; 'I' for Inactive)
REMARK    1  A    between atoms: C_1  and  C_2
REMARK    2  A    between atoms: C_4  and  C_28
REMARK    3  A    between atoms: C_5  and  N_9
REMARK    4  A    between atoms: C_6  and  C_8
REMARK    5  A    between atoms: C_10  and  C_12
REMARK    6  A    between atoms: C_12  and  N_13
REMARK    7  A    between atoms: N_13  and  S_14
REMARK    8  A    between atoms: S_14  and  C_17
REMARK    9  A    between atoms: C_19  and  N_25
REMARK   10  A    between atoms: C_21  and  C_24
REMARK   11  A    between atoms: C_22  and  C_23
REMARK                            x       y       z     vdW  Elec       q    Type
REMARK                         _______ _______ _______ _____ _____    ______ ____
ROOT
ATOM      1  N   UNL     1      -1.326   3.046   1.672  0.00  0.00    -0.181 NA
ATOM      2  H   UNL     1      -0.638   3.085   2.355  0.00  0.00    +0.149 HD
ENDROOT
BRANCH   1   3
ATOM      3  S   UNL     1      -2.331   4.341   1.436  0.00  0.00    +0.059 S 
ATOM      4  O   UNL     1      -1.960   5.323   2.393  0.00  0.00    -0.153 OA
ATOM      5  O   UNL     1      -2.335   4.602   0.039  0.00  0.00    -0.153 OA
BRANCH   3   6
ATOM      6  C   UNL     1      -3.961   3.819   1.855  0.00  0.00    +0.111 A 
ATOM      7  C   UNL     1      -4.938   3.752   0.879  0.00  0.00    +0.061 A 
ATOM      8  C   UNL     1      -6.216   3.342   1.209  0.00  0.00    +0.128 A 
ATOM      9  C   UNL     1      -6.518   2.999   2.514  0.00  0.00    +0.036 A 
ATOM     10  C   UNL     1      -5.541   3.066   3.489  0.00  0.00    -0.044 A 
ATOM     11  C   UNL     1      -4.261   3.471   3.159  0.00  0.00    -0.021 A 
ATOM     12  C   UNL     1      -3.194   3.538   4.221  0.00  0.00    +0.046 C 
ATOM     13  C   UNL     1      -5.870   2.694   4.912  0.00  0.00    +0.044 C 
BRANCH   8  14
ATOM     14  N   UNL     1      -7.262   3.270   0.164  0.00  0.00    +0.056 N 
ATOM     15  O   UNL     1      -6.997   3.572  -0.986  0.00  0.00    -0.126 OA
ATOM     16  O   UNL     1      -8.389   2.908   0.454  0.00  0.00    -0.126 OA
ENDBRANCH   8  14
ENDBRANCH   3   6
ENDBRANCH   1   3
BRANCH   1  17
ATOM     17  C   UNL     1      -1.476   1.843   0.850  0.00  0.00    +0.201 C 
BRANCH  17  19
ATOM     18  N   UNL     1      -0.153  -0.175   0.306  0.00  0.00    -0.284 N 
ATOM     19  C   UNL     1      -0.241   0.990   0.979  0.00  0.00    +0.233 C 
ATOM     20  O   UNL     1       0.677   1.353   1.684  0.00  0.00    -0.274 OA
ATOM     21  H   UNL     1      -0.913  -0.500  -0.201  0.00  0.00    +0.155 HD
BRANCH  18  26
ATOM     22  C   UNL     1       4.659  -3.177   0.443  0.00  0.00    +0.044 C 
ATOM     23  C   UNL     1       3.381  -2.379   0.407  0.00  0.00    -0.050 A 
ATOM     24  C   UNL     1       2.177  -2.991   0.708  0.00  0.00    +0.008 A 
ATOM     25  C   UNL     1       1.004  -2.263   0.675  0.00  0.00    -0.029 A 
ATOM     26  C   UNL     1       1.034  -0.915   0.341  0.00  0.00    +0.039 A 
ATOM     27  C   UNL     1       2.243  -0.305   0.034  0.00  0.00    -0.029 A 
ATOM     28  C   UNL     1       3.413  -1.038   0.073  0.00  0.00    +0.008 A 
ATOM     29  C   UNL     1       2.279   1.155  -0.335  0.00  0.00    +0.045 C 
ATOM     30  C   UNL     1      -0.307  -2.930   1.003  0.00  0.00    +0.045 C 
ENDBRANCH  18  26
ENDBRANCH  17  19
ENDBRANCH   1  17
TORSDOF 6
