REMARK  Name = ZINC05646394
REMARK  8 active torsions:
REMARK  status: ('A' for Active; 'I' for Inactive)
REMARK    1  A    between atoms: C_1  and  C_2
REMARK    2  A    between atoms: C_9  and  N_25
REMARK    3  A    between atoms: C_10  and  C_23
REMARK    4  A    between atoms: C_11  and  C_13
REMARK    5  A    between atoms: C_16  and  C_19
REMARK    6  A    between atoms: C_19  and  C_20
REMARK    7  A    between atoms: C_19  and  C_21
REMARK    8  A    between atoms: C_19  and  C_22
REMARK                            x       y       z     vdW  Elec       q    Type
REMARK                         _______ _______ _______ _____ _____    ______ ____
ROOT
ATOM      1  C   UNL     1      -2.023   4.667   3.092  0.00  0.00    +0.065 C 
ATOM      2  C   UNL     1      -3.135   3.801   2.558  0.00  0.00    +0.041 A 
ATOM      3  C   UNL     1      -3.339   3.480   1.272  0.00  0.00    +0.049 A 
ATOM      4  C   UNL     1      -4.484   2.656   1.202  0.00  0.00    +0.245 A 
ATOM      5  N   UNL     1      -4.940   2.496   2.410  0.00  0.00    -0.135 NA
ATOM      6  N   UNL     1      -4.108   3.209   3.288  0.00  0.00    -0.278 N 
ATOM      7  H   UNL     1      -4.215   3.268   4.281  0.00  0.00    +0.189 HD
ATOM      8  O   UNL     1      -4.950   2.166   0.021  0.00  0.00    -0.421 OA
ATOM      9  C   UNL     1      -4.454   2.702  -1.112  0.00  0.00    +0.201 C 
ATOM     10  C   UNL     1      -3.361   3.492  -1.170  0.00  0.00    +0.098 C 
ATOM     11  C   UNL     1      -2.553   3.869   0.045  0.00  0.00    +0.101 C 
ENDROOT
BRANCH  11  12
ATOM     12  C   UNL     1      -1.238   3.133   0.030  0.00  0.00    -0.035 A 
ATOM     13  C   UNL     1      -1.219   1.751   0.017  0.00  0.00    +0.005 A 
ATOM     14  C   UNL     1      -0.013   1.076   0.008  0.00  0.00    +0.004 A 
ATOM     15  C   UNL     1       1.175   1.783   0.000  0.00  0.00    -0.042 A 
ATOM     16  C   UNL     1       1.156   3.165   0.008  0.00  0.00    +0.004 A 
ATOM     17  C   UNL     1      -0.050   3.840   0.022  0.00  0.00    +0.005 A 
BRANCH  15  18
ATOM     18  C   UNL     1       2.490   1.048  -0.016  0.00  0.00    -0.013 C 
ATOM     19  C   UNL     1       2.571   0.176  -1.271  0.00  0.00    +0.015 C 
ATOM     20  C   UNL     1       3.639   2.058  -0.022  0.00  0.00    +0.015 C 
ATOM     21  C   UNL     1       2.595   0.162   1.227  0.00  0.00    +0.015 C 
ENDBRANCH  15  18
ENDBRANCH  11  12
BRANCH   9  22
ATOM     22  N   UNL     1      -5.105   2.424  -2.288  0.00  0.00    -0.328 N 
ATOM     23  H   UNL     1      -4.776   2.792  -3.123  0.00  0.00    +0.145 HD
ATOM     24  H   UNL     1      -5.894   1.859  -2.284  0.00  0.00    +0.145 HD
ENDBRANCH   9  22
BRANCH  10  25
ATOM     25  C   UNL     1      -2.950   3.995  -2.446  0.00  0.00    +0.101 C 
ATOM     26  N   UNL     1      -2.625   4.395  -3.458  0.00  0.00    -0.191 NA
ENDBRANCH  10  25
TORSDOF 4
