REMARK  Name = ZINC33434057
REMARK  9 active torsions:
REMARK  status: ('A' for Active; 'I' for Inactive)
REMARK    1  A    between atoms: C_3  and  C_10
REMARK    2  A    between atoms: C_5  and  N_7
REMARK    3  A    between atoms: N_11  and  N_12
REMARK    4  A    between atoms: C_15  and  C_18
REMARK    5  A    between atoms: C_18  and  S_19
REMARK    6  A    between atoms: S_19  and  C_20
REMARK    7  A    between atoms: N_22  and  N_23
REMARK    8  A    between atoms: C_24  and  C_25
REMARK    9  A    between atoms: C_29  and  N_31
REMARK                            x       y       z     vdW  Elec       q    Type
REMARK                         _______ _______ _______ _____ _____    ______ ____
ROOT
ATOM      1  C   UNL     1       6.015   9.339   0.260  0.00  0.00    +0.130 C 
ENDROOT
BRANCH   1   5
ATOM      2  N   UNL     1       2.745   5.827   1.218  0.00  0.00    -0.124 NA
ATOM      3  C   UNL     1       3.180   7.040   0.851  0.00  0.00    +0.192 A 
ATOM      4  N   UNL     1       4.455   7.486   0.774  0.00  0.00    -0.335 N 
ATOM      5  C   UNL     1       4.637   8.741   0.380  0.00  0.00    +0.035 A 
ATOM      6  C   UNL     1       3.515   9.463   0.090  0.00  0.00    +0.070 A 
ATOM      7  S   UNL     1       2.273   8.368   0.370  0.00  0.00    -0.056 S 
ATOM      8  H   UNL     1       5.205   6.913   0.997  0.00  0.00    +0.168 HD
BRANCH   2  10
ATOM      9  C   UNL     1       1.049   4.363   1.594  0.00  0.00    +0.143 C 
ATOM     10  N   UNL     1       1.481   5.570   1.229  0.00  0.00    -0.155 NA
BRANCH   9  13
ATOM     11  C   UNL     1      -2.610   4.785   1.248  0.00  0.00    +0.003 A 
ATOM     12  C   UNL     1      -1.264   5.073   1.233  0.00  0.00    +0.009 A 
ATOM     13  C   UNL     1      -0.335   4.082   1.606  0.00  0.00    -0.003 A 
ATOM     14  C   UNL     1      -0.798   2.808   1.990  0.00  0.00    +0.042 A 
ATOM     15  C   UNL     1      -2.138   2.546   1.998  0.00  0.00    +0.127 A 
ATOM     16  C   UNL     1      -3.047   3.526   1.630  0.00  0.00    +0.033 A 
BRANCH  15  17
ATOM     17  N   UNL     1      -2.623   1.207   2.402  0.00  0.00    +0.056 N 
ATOM     18  O   UNL     1      -1.763   0.273   2.752  0.00  0.00    -0.126 OA
ATOM     19  O   UNL     1      -3.914   0.949   2.411  0.00  0.00    -0.126 OA
ENDBRANCH  15  17
ENDBRANCH   9  13
ENDBRANCH   2  10
ENDBRANCH   1   5
BRANCH   1  20
ATOM     20  S   UNL     1       6.663   9.700   1.915  0.00  0.00    -0.085 S 
BRANCH  20  21
ATOM     21  C   UNL     1       8.258  10.385   1.608  0.00  0.00    +0.145 C 
ATOM     22  N   UNL     1       8.686  10.515   0.383  0.00  0.00    -0.380 N 
ATOM     23  N   UNL     1       9.051  10.782   2.661  0.00  0.00    -0.217 N 
ATOM     24  H   UNL     1       9.564  10.892   0.213  0.00  0.00    +0.158 HD
ATOM     25  H   UNL     1       8.732  10.685   3.572  0.00  0.00    +0.176 HD
ATOM     26  H   UNL     1       8.127  10.236  -0.359  0.00  0.00    +0.158 HD
BRANCH  23  27
ATOM     27  N   UNL     1      10.319  11.326   2.417  0.00  0.00    -0.188 NA
ATOM     28  C   UNL     1      11.113  11.591   3.408  0.00  0.00    +0.138 C 
BRANCH  28  29
ATOM     29  C   UNL     1      10.923  10.916   4.706  0.00  0.00    -0.003 A 
ATOM     30  C   UNL     1      10.088   9.800   4.801  0.00  0.00    +0.009 A 
ATOM     31  C   UNL     1       9.915   9.175   6.018  0.00  0.00    +0.003 A 
ATOM     32  C   UNL     1      10.567   9.649   7.143  0.00  0.00    +0.033 A 
ATOM     33  C   UNL     1      11.396  10.754   7.056  0.00  0.00    +0.127 A 
ATOM     34  C   UNL     1      11.582  11.386   5.844  0.00  0.00    +0.042 A 
BRANCH  33  35
ATOM     35  N   UNL     1      12.088  11.254   8.264  0.00  0.00    +0.056 N 
ATOM     36  O   UNL     1      11.929  10.698   9.326  0.00  0.00    -0.126 OA
ATOM     37  O   UNL     1      12.812  12.220   8.190  0.00  0.00    -0.126 OA
ENDBRANCH  33  35
ENDBRANCH  28  29
ENDBRANCH  23  27
ENDBRANCH  20  21
ENDBRANCH   1  20
TORSDOF 9
