REMARK  Name = ZINC39666219
REMARK  10 active torsions:
REMARK  status: ('A' for Active; 'I' for Inactive)
REMARK    1  A    between atoms: C_1  and  C_2
REMARK    2  A    between atoms: C_5  and  O_8
REMARK    3  A    between atoms: O_8  and  C_9
REMARK    4  A    between atoms: C_9  and  C_11
REMARK    5  A    between atoms: C_9  and  C_12
REMARK    6  A    between atoms: C_12  and  N_13
REMARK    7  A    between atoms: C_14  and  C_16
REMARK    8  A    between atoms: C_27  and  C_29
REMARK    9  A    between atoms: C_32  and  O_35
REMARK   10  A    between atoms: O_35  and  C_36
REMARK                            x       y       z     vdW  Elec       q    Type
REMARK                         _______ _______ _______ _____ _____    ______ ____
ROOT
ATOM      1  C   UNL     1      -4.323  -6.608  -0.084  0.00  0.00    +0.100 C 
ATOM      2  C   UNL     1      -3.618  -5.960  -1.296  0.00  0.00    +0.121 C 
ATOM      3  N   UNL     1      -4.071  -6.754  -2.462  0.00  0.00    -0.296 N 
ATOM      4  C   UNL     1      -5.503  -7.025  -2.189  0.00  0.00    +0.115 C 
ATOM      5  C   UNL     1      -5.562  -7.303  -0.673  0.00  0.00    -0.004 C 
ATOM      6  C   UNL     1      -5.500  -8.805  -0.411  0.00  0.00    -0.010 C 
ATOM      7  C   UNL     1      -6.769  -9.466  -0.956  0.00  0.00    -0.082 C 
ATOM      8  N   UNL     1      -7.946  -8.883  -0.302  0.00  0.00    +0.379 N 
ATOM      9  C   UNL     1      -8.050  -7.457  -0.635  0.00  0.00    -0.082 C 
ATOM     10  C   UNL     1      -6.835  -6.711  -0.077  0.00  0.00    -0.010 C 
ATOM     11  C   UNL     1      -3.347  -7.141  -3.530  0.00  0.00    +0.248 C 
ATOM     12  O   UNL     1      -3.649  -8.151  -4.136  0.00  0.00    -0.270 OA
ATOM     13  H   UNL     1      -8.777  -9.361  -0.618  0.00  0.00    -0.086 HD
ATOM     14  H   UNL     1      -7.861  -8.988   0.698  0.00  0.00    -0.086 HD
ENDROOT
BRANCH  11  15
ATOM     15  C   UNL     1      -2.185  -6.340  -3.965  0.00  0.00    +0.055 A 
ATOM     16  C   UNL     1      -1.571  -6.589  -5.201  0.00  0.00    +0.020 A 
ATOM     17  C   UNL     1      -0.489  -5.813  -5.563  0.00  0.00    +0.068 A 
ATOM     18  C   UNL     1      -0.045  -4.819  -4.697  0.00  0.00    +0.220 A 
ATOM     19  N   UNL     1      -0.646  -4.609  -3.535  0.00  0.00    -0.220 NA
ATOM     20  C   UNL     1      -1.685  -5.321  -3.154  0.00  0.00    +0.127 A 
BRANCH  18  21
ATOM     21  O   UNL     1       1.018  -4.054  -5.046  0.00  0.00    -0.438 OA
BRANCH  21  22
ATOM     22  C   UNL     1       1.928  -3.748  -4.085  0.00  0.00    +0.130 A 
ATOM     23  C   UNL     1       1.835  -4.331  -2.829  0.00  0.00    +0.046 A 
ATOM     24  C   UNL     1       2.761  -4.019  -1.853  0.00  0.00    +0.004 A 
ATOM     25  C   UNL     1       3.781  -3.127  -2.127  0.00  0.00    +0.000 A 
ATOM     26  C   UNL     1       3.876  -2.544  -3.378  0.00  0.00    +0.004 A 
ATOM     27  C   UNL     1       2.956  -2.857  -4.359  0.00  0.00    +0.046 A 
ENDBRANCH  21  22
ENDBRANCH  18  21
ENDBRANCH  11  15
BRANCH   1  29
ATOM     28  N   UNL     1      -3.636  -7.990   1.849  0.00  0.00    -0.312 N 
ATOM     29  C   UNL     1      -3.417  -7.618   0.572  0.00  0.00    +0.218 C 
ATOM     30  O   UNL     1      -2.491  -8.095  -0.048  0.00  0.00    -0.275 OA
ATOM     31  H   UNL     1      -4.418  -7.665   2.322  0.00  0.00    +0.149 HD
BRANCH  28  32
ATOM     32  C   UNL     1      -2.693  -8.887   2.522  0.00  0.00    +0.148 C 
BRANCH  32  33
ATOM     33  C   UNL     1      -3.103  -9.050   3.987  0.00  0.00    +0.187 C 
ATOM     34  C   UNL     1      -2.075  -9.923   4.710  0.00  0.00    +0.053 C 
BRANCH  33  35
ATOM     35  O   UNL     1      -3.161  -7.766   4.612  0.00  0.00    -0.488 OA
BRANCH  35  40
ATOM     36  C   UNL     1      -6.494  -7.266   9.124  0.00  0.00    +0.044 C 
ATOM     37  C   UNL     1      -5.602  -7.400   7.917  0.00  0.00    -0.050 A 
ATOM     38  C   UNL     1      -4.814  -6.336   7.520  0.00  0.00    +0.007 A 
ATOM     39  C   UNL     1      -3.995  -6.456   6.414  0.00  0.00    +0.046 A 
ATOM     40  C   UNL     1      -3.965  -7.646   5.701  0.00  0.00    +0.121 A 
ATOM     41  C   UNL     1      -4.757  -8.712   6.101  0.00  0.00    +0.046 A 
ATOM     42  C   UNL     1      -5.570  -8.589   7.212  0.00  0.00    +0.007 A 
ENDBRANCH  35  40
ENDBRANCH  33  35
ENDBRANCH  32  33
ENDBRANCH  28  32
ENDBRANCH   1  29
TORSDOF 8
