REMARK  Name = ZINC06206498
REMARK  8 active torsions:
REMARK  status: ('A' for Active; 'I' for Inactive)
REMARK    1  A    between atoms: C_1  and  C_2
REMARK    2  A    between atoms: C_5  and  C_7
REMARK    3  A    between atoms: C_7  and  O_9
REMARK    4  A    between atoms: O_9  and  C_10
REMARK    5  A    between atoms: C_10  and  C_12
REMARK    6  A    between atoms: C_10  and  C_13
REMARK    7  A    between atoms: N_15  and  C_16
REMARK    8  A    between atoms: C_19  and  N_23
REMARK                            x       y       z     vdW  Elec       q    Type
REMARK                         _______ _______ _______ _____ _____    ______ ____
ROOT
ATOM      1  C   UNL     1       1.208   1.540  -0.020  0.00  0.00    +0.258 C 
ATOM      2  O   UNL     1       1.308   2.745  -0.116  0.00  0.00    -0.271 OA
ATOM      3  N   UNL     1      -0.011   0.966   0.007  0.00  0.00    -0.281 N 
ATOM      4  H   UNL     1      -0.091  -0.001   0.019  0.00  0.00    +0.155 HD
ENDROOT
BRANCH   3   5
ATOM      5  C   UNL     1      -1.161   1.764   0.013  0.00  0.00    +0.052 A 
ATOM      6  C   UNL     1      -1.180   2.962  -0.688  0.00  0.00    +0.027 A 
ATOM      7  C   UNL     1      -2.316   3.748  -0.681  0.00  0.00    +0.034 A 
ATOM      8  C   UNL     1      -3.434   3.342   0.024  0.00  0.00    +0.128 A 
ATOM      9  C   UNL     1      -3.420   2.150   0.724  0.00  0.00    +0.054 A 
ATOM     10  C   UNL     1      -2.288   1.356   0.716  0.00  0.00    +0.064 A 
ATOM     11 CL   UNL     1      -2.273  -0.145   1.588  0.00  0.00    -0.082 Cl
BRANCH   8  12
ATOM     12  N   UNL     1      -4.650   4.187   0.029  0.00  0.00    +0.056 N 
ATOM     13  O   UNL     1      -4.665   5.237  -0.587  0.00  0.00    -0.126 OA
ATOM     14  O   UNL     1      -5.636   3.831   0.650  0.00  0.00    -0.126 OA
ENDBRANCH   8  12
ENDBRANCH   3   5
BRANCH   1  15
ATOM     15  C   UNL     1       2.446   0.686   0.069  0.00  0.00    +0.259 C 
ATOM     16  C   UNL     1       2.538  -0.209  -1.169  0.00  0.00    +0.062 C 
BRANCH  15  17
ATOM     17  O   UNL     1       3.619   1.538   0.138  0.00  0.00    -0.448 OA
BRANCH  17  18
ATOM     18  C   UNL     1       4.684   1.061   0.815  0.00  0.00    +0.347 C 
ATOM     19  O   UNL     1       4.633  -0.038   1.333  0.00  0.00    -0.244 OA
BRANCH  18  24
ATOM     20  C   UNL     1       8.795   4.844   0.668  0.00  0.00    +0.051 C 
ATOM     21  C   UNL     1       7.861   3.676   0.853  0.00  0.00    -0.012 A 
ATOM     22  C   UNL     1       8.086   2.511   1.517  0.00  0.00    +0.012 A 
ATOM     23  C   UNL     1       7.093   1.566   1.568  0.00  0.00    +0.023 A 
ATOM     24  C   UNL     1       5.901   1.867   0.925  0.00  0.00    +0.096 A 
ATOM     25  S   UNL     1       6.242   3.488   0.263  0.00  0.00    -0.087 S 
ENDBRANCH  18  24
ENDBRANCH  17  18
ENDBRANCH  15  17
ENDBRANCH   1  15
TORSDOF 6
