REMARK  Name = ZINC48748829
REMARK  5 active torsions:
REMARK  status: ('A' for Active; 'I' for Inactive)
REMARK    1  A    between atoms: C_1  and  C_2
REMARK    2  A    between atoms: C_2  and  C_3
REMARK    3  A    between atoms: C_2  and  C_4
REMARK    4  A    between atoms: C_2  and  C_5
REMARK    5  A    between atoms: C_11  and  C_13
REMARK                            x       y       z     vdW  Elec       q    Type
REMARK                         _______ _______ _______ _____ _____    ______ ____
ROOT
ATOM      1  C   UNL     1       0.721  -0.513  -1.221  0.00  0.00    +0.109 A 
ATOM      2  N   UNL     1       1.952  -0.293  -1.638  0.00  0.00    -0.144 NA
ATOM      3  N   UNL     1       2.392  -0.774  -2.717  0.00  0.00    -0.126 NA
ATOM      4  C   UNL     1       1.640  -1.533  -3.502  0.00  0.00    +0.188 A 
ATOM      5  S   UNL     1       0.122  -1.550  -2.552  0.00  0.00    -0.035 S 
ATOM      6  N   UNL     1       1.944  -2.145  -4.713  0.00  0.00    -0.259 N 
ATOM      7  C   UNL     1       3.171  -2.001  -5.251  0.00  0.00    +0.255 C 
ATOM      8  O   UNL     1       3.982  -1.260  -4.728  0.00  0.00    -0.270 OA
ATOM      9  H   UNL     1       1.273  -2.676  -5.170  0.00  0.00    +0.157 HD
ENDROOT
BRANCH   7  10
ATOM     10  C   UNL     1       3.530  -2.739  -6.471  0.00  0.00    +0.101 A 
ATOM     11  C   UNL     1       4.830  -2.692  -6.971  0.00  0.00    +0.020 A 
ATOM     12  C   UNL     1       5.132  -3.405  -8.131  0.00  0.00    +0.018 A 
ATOM     13  C   UNL     1       4.170  -4.130  -8.757  0.00  0.00    +0.086 A 
ATOM     14  N   UNL     1       2.904  -4.179  -8.277  0.00  0.00    -0.328 N 
ATOM     15  C   UNL     1       2.560  -3.515  -7.157  0.00  0.00    +0.261 A 
ATOM     16  O   UNL     1       1.417  -3.576  -6.737  0.00  0.00    -0.267 OA
ATOM     17  H   UNL     1       2.236  -4.705  -8.745  0.00  0.00    +0.168 HD
ENDBRANCH   7  10
BRANCH   1  19
ATOM     18  C   UNL     1      -0.016   1.496   0.032  0.00  0.00    +0.018 C 
ATOM     19  C   UNL     1       0.020  -0.033   0.024  0.00  0.00    +0.013 C 
ATOM     20  C   UNL     1       0.773  -0.532   1.258  0.00  0.00    +0.018 C 
ATOM     21  C   UNL     1      -1.410  -0.577   0.045  0.00  0.00    +0.018 C 
ENDBRANCH   1  19
TORSDOF 2
