REMARK  Name = ZINC39674468
REMARK  12 active torsions:
REMARK  status: ('A' for Active; 'I' for Inactive)
REMARK    1  A    between atoms: C_1  and  C_2
REMARK    2  A    between atoms: C_2  and  C_3
REMARK    3  A    between atoms: C_3  and  C_4
REMARK    4  A    between atoms: C_4  and  C_5
REMARK    5  A    between atoms: C_5  and  C_7
REMARK    6  A    between atoms: C_5  and  C_8
REMARK    7  A    between atoms: C_12  and  C_21
REMARK    8  A    between atoms: N_23  and  C_24
REMARK    9  A    between atoms: C_24  and  C_26
REMARK   10  A    between atoms: C_24  and  C_27
REMARK   11  A    between atoms: C_28  and  C_34
REMARK   12  A    between atoms: C_31  and  C_33
REMARK                            x       y       z     vdW  Elec       q    Type
REMARK                         _______ _______ _______ _____ _____    ______ ____
ROOT
ATOM      1  C   UNL     1      -2.897  -6.195   1.212  0.00  0.00    +0.218 C 
ATOM      2  O   UNL     1      -1.989  -6.982   1.375  0.00  0.00    -0.275 OA
ATOM      3  N   UNL     1      -4.141  -6.645   0.956  0.00  0.00    -0.300 N 
ATOM      4  C   UNL     1      -5.348  -5.847   0.635  0.00  0.00    +0.121 C 
ATOM      5  C   UNL     1      -6.077  -6.663  -0.455  0.00  0.00    +0.100 C 
ATOM      6  C   UNL     1      -5.592  -8.109  -0.254  0.00  0.00    -0.004 C 
ATOM      7  C   UNL     1      -4.610  -8.051   0.926  0.00  0.00    +0.115 C 
ATOM      8  C   UNL     1      -4.874  -8.604  -1.506  0.00  0.00    -0.010 C 
ATOM      9  C   UNL     1      -4.451 -10.062  -1.302  0.00  0.00    -0.082 C 
ATOM     10  N   UNL     1      -5.637 -10.885  -1.036  0.00  0.00    +0.379 N 
ATOM     11  C   UNL     1      -6.269 -10.461   0.219  0.00  0.00    -0.082 C 
ATOM     12  C   UNL     1      -6.768  -9.020   0.080  0.00  0.00    -0.010 C 
ATOM     13  H   UNL     1      -6.294 -10.780  -1.794  0.00  0.00    -0.086 HD
ATOM     14  H   UNL     1      -5.363 -11.853  -0.963  0.00  0.00    -0.086 HD
ENDROOT
BRANCH   5  15
ATOM     15  C   UNL     1      -7.569  -6.577  -0.264  0.00  0.00    +0.219 C 
ATOM     16  O   UNL     1      -8.034  -6.483   0.852  0.00  0.00    -0.275 OA
ATOM     17  N   UNL     1      -8.388  -6.606  -1.335  0.00  0.00    -0.309 N 
ATOM     18  H   UNL     1      -8.017  -6.681  -2.228  0.00  0.00    +0.149 HD
BRANCH  17  19
ATOM     19  C   UNL     1      -9.839  -6.522  -1.149  0.00  0.00    +0.100 C 
ATOM     20  C   UNL     1     -10.264  -5.053  -1.104  0.00  0.00    +0.033 C 
BRANCH  19  21
ATOM     21  C   UNL     1     -10.533  -7.210  -2.297  0.00  0.00    -0.001 C 
ATOM     22  C   UNL     1     -11.388  -8.234  -2.246  0.00  0.00    +0.063 C 
ATOM     23  N   UNL     1     -11.800  -8.577  -3.486  0.00  0.00    -0.159 NA
ATOM     24  N   UNL     1     -11.317  -7.894  -4.393  0.00  0.00    -0.180 NA
ATOM     25  C   UNL     1     -10.425  -6.897  -3.779  0.00  0.00    +0.154 C 
ATOM     26  C   UNL     1      -8.988  -7.084  -4.269  0.00  0.00    +0.039 C 
ATOM     27  C   UNL     1     -11.834  -8.914  -0.978  0.00  0.00    +0.067 C 
ENDBRANCH  19  21
ENDBRANCH  17  19
ENDBRANCH   5  15
BRANCH   1  28
ATOM     28  C   UNL     1      -2.634  -4.714   1.296  0.00  0.00    +0.072 C 
ATOM     29  C   UNL     1      -2.319  -4.172  -0.100  0.00  0.00    +0.017 C 
BRANCH  28  30
ATOM     30  C   UNL     1      -1.443  -4.459   2.223  0.00  0.00    +0.012 C 
BRANCH  30  31
ATOM     31  C   UNL     1      -1.254  -2.952   2.407  0.00  0.00    +0.000 C 
BRANCH  31  33
ATOM     32  C   UNL     1       0.126  -1.190   3.518  0.00  0.00    +0.004 C 
ATOM     33  C   UNL     1      -0.064  -2.696   3.333  0.00  0.00    -0.003 C 
ENDBRANCH  31  33
ENDBRANCH  30  31
ENDBRANCH  28  30
ENDBRANCH   1  28
TORSDOF 7
