REMARK  Name = ZINC00448790
REMARK  5 active torsions:
REMARK  status: ('A' for Active; 'I' for Inactive)
REMARK    1  A    between atoms: C_1  and  C_2
REMARK    2  A    between atoms: C_9  and  C_21
REMARK    3  A    between atoms: C_15  and  C_19
REMARK    4  A    between atoms: C_15  and  C_20
REMARK    5  A    between atoms: C_24  and  C_26
REMARK                            x       y       z     vdW  Elec       q    Type
REMARK                         _______ _______ _______ _____ _____    ______ ____
ROOT
ATOM      1  C   UNL     1       2.490   1.058  -0.014  0.00  0.00    +0.044 C 
ATOM      2  C   UNL     1       1.173   1.791   0.001  0.00  0.00    -0.049 A 
ATOM      3  C   UNL     1       1.156   3.174   0.007  0.00  0.00    +0.005 A 
ATOM      4  C   UNL     1      -0.047   3.858   0.038  0.00  0.00    +0.025 A 
ATOM      5  C   UNL     1      -1.234   3.145   0.064  0.00  0.00    +0.052 A 
ATOM      6  C   UNL     1      -1.217   1.758   0.017  0.00  0.00    +0.050 A 
ATOM      7  C   UNL     1      -0.013   1.076   0.008  0.00  0.00    +0.028 A 
ATOM      8  N   UNL     1      -2.438   1.089  -0.069  0.00  0.00    -0.329 N 
ATOM      9  C   UNL     1      -3.295   1.245  -1.225  0.00  0.00    +0.172 C 
ATOM     10  C   UNL     1      -3.847   2.636  -1.417  0.00  0.00    +0.039 C 
ATOM     11  C   UNL     1      -3.446   3.742  -0.764  0.00  0.00    +0.017 C 
ATOM     12  N   UNL     1      -2.470   3.765   0.188  0.00  0.00    -0.316 N 
ATOM     13  C   UNL     1      -4.097   5.085  -1.046  0.00  0.00    +0.058 C 
ATOM     14  C   UNL     1      -4.543   5.154  -2.505  0.00  0.00    -0.023 C 
ATOM     15  C   UNL     1      -5.539   4.013  -2.743  0.00  0.00    +0.086 C 
ATOM     16  C   UNL     1      -4.875   2.717  -2.386  0.00  0.00    +0.163 C 
ATOM     17  O   UNL     1      -5.232   1.700  -2.948  0.00  0.00    -0.292 OA
ATOM     18  C   UNL     1      -3.332   4.985  -3.426  0.00  0.00    +0.011 C 
ATOM     19  C   UNL     1      -5.219   6.499  -2.778  0.00  0.00    +0.011 C 
ATOM     20  H   UNL     1      -2.717   0.509   0.658  0.00  0.00    +0.147 HD
ATOM     21  H   UNL     1      -2.647   4.252   1.008  0.00  0.00    +0.152 HD
ENDROOT
BRANCH   9  22
ATOM     22  C   UNL     1      -2.508   0.874  -2.455  0.00  0.00    +0.130 A 
ATOM     23  C   UNL     1      -2.975   0.178  -3.508  0.00  0.00    +0.047 A 
ATOM     24  C   UNL     1      -1.907   0.061  -4.427  0.00  0.00    +0.045 A 
ATOM     25  C   UNL     1      -0.852   0.691  -3.881  0.00  0.00    +0.102 A 
ATOM     26  O   UNL     1      -1.223   1.187  -2.689  0.00  0.00    -0.463 OA
ATOM     27  C   UNL     1       0.514   0.825  -4.504  0.00  0.00    +0.086 C 
ENDBRANCH   9  22
TORSDOF 1
