REMARK  Name = ZINC66333588
REMARK  6 active torsions:
REMARK  status: ('A' for Active; 'I' for Inactive)
REMARK    1  A    between atoms: C_4  and  C_7
REMARK    2  A    between atoms: C_7  and  C_9
REMARK    3  A    between atoms: C_7  and  N_13
REMARK    4  A    between atoms: N_13  and  S_14
REMARK    5  A    between atoms: S_14  and  C_17
REMARK    6  A    between atoms: C_20  and  N_22
REMARK                            x       y       z     vdW  Elec       q    Type
REMARK                         _______ _______ _______ _____ _____    ______ ____
ROOT
ATOM      1  N   UNL     1       3.630  -1.873   0.845  0.00  0.00    +0.482 NA
ENDROOT
BRANCH   1   2
ATOM      2  S   UNL     1       4.940  -2.871   1.021  0.00  0.00    -0.053 S 
ATOM      3  O   UNL     1       5.147  -3.495  -0.239  0.00  0.00    -0.191 OA
ATOM      4  O   UNL     1       5.949  -2.108   1.668  0.00  0.00    -0.191 OA
BRANCH   2   5
ATOM      5  C   UNL     1       4.476  -4.147   2.145  0.00  0.00    +0.105 A 
ATOM      6  C   UNL     1       3.917  -5.354   1.882  0.00  0.00    +0.035 A 
ATOM      7  C   UNL     1       3.635  -6.205   2.935  0.00  0.00    +0.042 A 
ATOM      8  C   UNL     1       3.925  -5.807   4.197  0.00  0.00    +0.165 A 
ATOM      9  S   UNL     1       4.626  -4.188   3.923  0.00  0.00    -0.048 S 
BRANCH   8  10
ATOM     10  N   UNL     1       3.719  -6.530   5.473  0.00  0.00    +0.063 N 
ATOM     11  O   UNL     1       3.228  -7.635   5.469  0.00  0.00    -0.126 OA
ATOM     12  O   UNL     1       4.041  -6.015   6.518  0.00  0.00    -0.126 OA
ENDBRANCH   8  10
ENDBRANCH   2   5
ENDBRANCH   1   2
BRANCH   1  13
ATOM     13  C   UNL     1       3.711  -0.707  -0.038  0.00  0.00    +0.036 C 
BRANCH  13  17
ATOM     14  C   UNL     1      -0.017   1.378   0.010  0.00  0.00    +0.000 A 
ATOM     15  C   UNL     1       1.171   2.086   0.002  0.00  0.00    +0.000 A 
ATOM     16  C   UNL     1       2.377   1.411  -0.013  0.00  0.00    +0.002 A 
ATOM     17  C   UNL     1       2.396   0.029  -0.020  0.00  0.00    -0.058 A 
ATOM     18  C   UNL     1       1.208  -0.679  -0.012  0.00  0.00    +0.002 A 
ATOM     19  C   UNL     1       0.002  -0.004   0.002  0.00  0.00    +0.000 A 
ENDBRANCH  13  17
BRANCH  13  20
ATOM     20  C   UNL     1       4.019  -1.168  -1.464  0.00  0.00    +0.377 C 
ATOM     21  F   UNL     1       4.096  -0.054  -2.307  0.00  0.00    -0.173 F 
ATOM     22  F   UNL     1       5.240  -1.851  -1.480  0.00  0.00    -0.173 F 
ATOM     23  F   UNL     1       3.002  -2.019  -1.909  0.00  0.00    -0.173 F 
ENDBRANCH  13  20
ENDBRANCH   1  13
TORSDOF 6
