REMARK  Name = ZINC42954411
REMARK  9 active torsions:
REMARK  status: ('A' for Active; 'I' for Inactive)
REMARK    1  A    between atoms: C_1  and  C_2
REMARK    2  A    between atoms: C_2  and  C_4
REMARK    3  A    between atoms: C_2  and  N_23
REMARK    4  A    between atoms: C_4  and  C_6
REMARK    5  A    between atoms: C_4  and  N_13
REMARK    6  A    between atoms: N_16  and  C_19
REMARK    7  A    between atoms: C_19  and  C_20
REMARK    8  A    between atoms: C_19  and  C_21
REMARK    9  A    between atoms: C_19  and  C_22
REMARK                            x       y       z     vdW  Elec       q    Type
REMARK                         _______ _______ _______ _____ _____    ______ ____
ROOT
ATOM      1  C   UNL     1       0.742  -0.511   1.242  0.00  0.00    +0.072 C 
ENDROOT
BRANCH   1   2
ATOM      2  C   UNL     1       0.679  -2.014   1.154  0.00  0.00    -0.032 A 
ATOM      3  C   UNL     1       0.494  -2.628  -0.071  0.00  0.00    +0.006 A 
ATOM      4  C   UNL     1       0.436  -4.006  -0.152  0.00  0.00    +0.015 A 
ATOM      5  C   UNL     1       0.565  -4.772   0.993  0.00  0.00    +0.018 A 
ATOM      6  C   UNL     1       0.751  -4.157   2.219  0.00  0.00    +0.015 A 
ATOM      7  C   UNL     1       0.814  -2.779   2.298  0.00  0.00    +0.006 A 
ATOM      8 BR   UNL     1       0.487  -6.658   0.883  0.00  0.00    -0.050 Br
ENDBRANCH   1   2
BRANCH   1   9
ATOM      9  N   UNL     1       2.007  -0.039   0.663  0.00  0.00    -0.301 NA
ATOM     10  C   UNL     1       2.126  -0.445  -0.745  0.00  0.00    +0.066 C 
ATOM     11  C   UNL     1       3.426   0.115  -1.326  0.00  0.00    -0.062 C 
ATOM     12  N   UNL     1       4.567  -0.393  -0.553  0.00  0.00    +0.385 N 
ATOM     13  C   UNL     1       4.447   0.041   0.845  0.00  0.00    -0.062 C 
ATOM     14  C   UNL     1       3.155  -0.520   1.444  0.00  0.00    +0.066 C 
ATOM     15  H   UNL     1       4.577  -1.401  -0.593  0.00  0.00    -0.081 HD
BRANCH  12  16
ATOM     16  C   UNL     1       5.816   0.131  -1.123  0.00  0.00    -0.074 C 
ATOM     17  C   UNL     1       5.801   1.659  -1.065  0.00  0.00    -0.010 C 
ATOM     18  C   UNL     1       7.005  -0.399  -0.319  0.00  0.00    -0.010 C 
ATOM     19  C   UNL     1       5.942  -0.323  -2.579  0.00  0.00    -0.010 C 
ENDBRANCH  12  16
ENDBRANCH   1   9
BRANCH   1  21
ATOM     20  C   UNL     1      -0.367   1.621   0.556  0.00  0.00    -0.012 C 
ATOM     21  C   UNL     1      -0.430   0.094   0.467  0.00  0.00    -0.056 C 
BRANCH  21  22
ATOM     22  N   UNL     1      -1.695  -0.378   1.046  0.00  0.00    +0.381 N 
ATOM     23  H   UNL     1      -2.469   0.022   0.535  0.00  0.00    -0.090 HD
ATOM     24  H   UNL     1      -1.737  -1.384   0.987  0.00  0.00    -0.090 HD
ATOM     25  H   UNL     1      -1.749  -0.094   2.013  0.00  0.00    -0.090 HD
ENDBRANCH  21  22
ENDBRANCH   1  21
TORSDOF 5
