REMARK  Name = ZINC05408156
REMARK  8 active torsions:
REMARK  status: ('A' for Active; 'I' for Inactive)
REMARK    1  A    between atoms: C_1  and  C_2
REMARK    2  A    between atoms: C_2  and  C_3
REMARK    3  A    between atoms: C_2  and  O_4
REMARK    4  A    between atoms: O_4  and  C_5
REMARK    5  A    between atoms: C_5  and  C_7
REMARK    6  A    between atoms: N_18  and  C_20
REMARK    7  A    between atoms: C_20  and  C_21
REMARK    8  A    between atoms: C_20  and  C_27
REMARK                            x       y       z     vdW  Elec       q    Type
REMARK                         _______ _______ _______ _____ _____    ______ ____
ROOT
ATOM      1  C   UNL     1      -2.088   5.039   1.272  0.00  0.00    +0.145 C 
ATOM      2  C   UNL     1      -2.329   5.539  -0.205  0.00  0.00    +0.157 C 
ATOM      3  C   UNL     1      -3.285   4.473  -0.754  0.00  0.00    +0.004 C 
ATOM      4  C   UNL     1      -4.442   4.705  -0.150  0.00  0.00    +0.008 C 
ATOM      5  C   UNL     1      -4.217   5.935   0.711  0.00  0.00    +0.116 C 
ATOM      6  C   UNL     1      -3.339   5.524   1.960  0.00  0.00    +0.129 C 
ATOM      7  C   UNL     1      -4.313   4.711   2.710  0.00  0.00    +0.224 C 
ATOM      8  O   UNL     1      -4.069   3.735   3.387  0.00  0.00    -0.275 OA
ATOM      9  N   UNL     1      -5.550   5.270   2.496  0.00  0.00    -0.287 N 
ATOM     10  C   UNL     1      -5.442   6.349   1.465  0.00  0.00    +0.148 C 
ATOM     11  O   UNL     1      -3.258   6.684   0.002  0.00  0.00    -0.359 OA
ENDROOT
BRANCH   1  12
ATOM     12  C   UNL     1      -1.989   3.536   1.326  0.00  0.00    +0.314 C 
ATOM     13  O   UNL     1      -2.991   2.862   1.270  0.00  0.00    -0.250 OA
BRANCH  12  14
ATOM     14  O   UNL     1      -0.789   2.946   1.435  0.00  0.00    -0.462 OA
BRANCH  14  16
ATOM     15  C   UNL     1       0.538   0.982   0.872  0.00  0.00    +0.052 C 
ATOM     16  C   UNL     1      -0.769   1.494   1.481  0.00  0.00    +0.170 C 
ATOM     17  C   UNL     1      -0.872   1.029   2.935  0.00  0.00    +0.052 C 
ENDBRANCH  14  16
ENDBRANCH  12  14
ENDBRANCH   1  12
BRANCH   9  18
ATOM     18  C   UNL     1      -6.785   4.870   3.175  0.00  0.00    +0.137 C 
BRANCH  18  19
ATOM     19  C   UNL     1      -6.662   5.151   4.650  0.00  0.00    -0.023 A 
ATOM     20  C   UNL     1      -6.085   6.330   5.083  0.00  0.00    +0.006 A 
ATOM     21  C   UNL     1      -5.976   6.590   6.436  0.00  0.00    +0.000 A 
ATOM     22  C   UNL     1      -6.434   5.666   7.357  0.00  0.00    +0.000 A 
ATOM     23  C   UNL     1      -7.006   4.484   6.924  0.00  0.00    +0.000 A 
ATOM     24  C   UNL     1      -7.120   4.227   5.570  0.00  0.00    +0.006 A 
ENDBRANCH  18  19
BRANCH  18  25
ATOM     25  C   UNL     1      -7.944   5.651   2.610  0.00  0.00    -0.023 A 
ATOM     26  C   UNL     1      -7.874   7.029   2.529  0.00  0.00    +0.006 A 
ATOM     27  C   UNL     1      -8.935   7.745   2.006  0.00  0.00    +0.000 A 
ATOM     28  C   UNL     1     -10.069   7.084   1.574  0.00  0.00    +0.000 A 
ATOM     29  C   UNL     1     -10.141   5.706   1.660  0.00  0.00    +0.000 A 
ATOM     30  C   UNL     1      -9.078   4.989   2.177  0.00  0.00    +0.006 A 
ENDBRANCH  18  25
ENDBRANCH   9  18
TORSDOF 6
