REMARK  Name = ZINC22463552
REMARK  14 active torsions:
REMARK  status: ('A' for Active; 'I' for Inactive)
REMARK    1  A    between atoms: C_1  and  C_2
REMARK    2  A    between atoms: C_2  and  C_3
REMARK    3  A    between atoms: C_2  and  C_4
REMARK    4  A    between atoms: C_4  and  C_5
REMARK    5  A    between atoms: C_5  and  C_7
REMARK    6  A    between atoms: C_5  and  N_24
REMARK    7  A    between atoms: N_9  and  C_10
REMARK    8  A    between atoms: C_10  and  C_11
REMARK    9  A    between atoms: C_11  and  C_13
REMARK   10  A    between atoms: C_11  and  N_19
REMARK   11  A    between atoms: N_24  and  S_25
REMARK   12  A    between atoms: S_25  and  C_28
REMARK   13  A    between atoms: C_31  and  O_34
REMARK   14  A    between atoms: O_34  and  C_35
REMARK                            x       y       z     vdW  Elec       q    Type
REMARK                         _______ _______ _______ _____ _____    ______ ____
ROOT
ATOM      1  C   UNL     1      -0.303   3.637   1.845  0.00  0.00    +0.162 C 
ENDROOT
BRANCH   1   2
ATOM      2  C   UNL     1      -0.468   3.010   3.206  0.00  0.00    +0.232 C 
ATOM      3  O   UNL     1      -0.995   1.923   3.313  0.00  0.00    -0.274 OA
ATOM      4  N   UNL     1      -0.029   3.657   4.303  0.00  0.00    -0.315 N 
ATOM      5  H   UNL     1       0.449   4.643   4.206  0.00  0.00    +0.149 HD
BRANCH   4   6
ATOM      6  C   UNL     1      -0.188   3.048   5.626  0.00  0.00    +0.093 C 
BRANCH   6   7
ATOM      7  C   UNL     1       0.242   4.046   6.703  0.00  0.00    -0.020 C 
BRANCH   7   8
ATOM      8  C   UNL     1       0.150   3.393   8.058  0.00  0.00    -0.059 A 
ATOM      9  C   UNL     1      -1.087   3.162   8.631  0.00  0.00    +0.002 A 
ATOM     10  C   UNL     1      -1.172   2.559   9.872  0.00  0.00    +0.000 A 
ATOM     11  C   UNL     1      -0.019   2.197  10.545  0.00  0.00    +0.000 A 
ATOM     12  C   UNL     1       1.217   2.433   9.974  0.00  0.00    +0.000 A 
ATOM     13  C   UNL     1       1.302   3.032   8.731  0.00  0.00    +0.002 A 
ENDBRANCH   7   8
BRANCH   7  14
ATOM     14  N   UNL     1      -0.640   5.220   6.663  0.00  0.00    +0.385 N 
ATOM     15  C   UNL     1      -0.415   6.094   7.843  0.00  0.00    -0.078 C 
ATOM     16  C   UNL     1      -0.990   7.459   7.387  0.00  0.00    -0.020 C 
ATOM     17  C   UNL     1      -0.587   7.523   5.896  0.00  0.00    -0.020 C 
ATOM     18  C   UNL     1      -0.353   6.059   5.479  0.00  0.00    -0.078 C 
ATOM     19  H   UNL     1      -1.665   4.823   6.638  0.00  0.00    -0.081 HD
ENDBRANCH   7  14
ENDBRANCH   6   7
ENDBRANCH   4   6
ENDBRANCH   1   2
BRANCH   1  20
ATOM     20  N   UNL     1      -0.857   2.743   0.825  0.00  0.00    -0.178 NA
ATOM     21  H   UNL     1      -1.946   2.616   0.737  0.00  0.00    +0.149 HD
BRANCH  20  22
ATOM     22  S   UNL     1       0.147   1.737  -0.026  0.00  0.00    +0.059 S 
ATOM     23  O   UNL     1       1.209   2.543  -0.517  0.00  0.00    -0.153 OA
ATOM     24  O   UNL     1      -0.683   0.966  -0.884  0.00  0.00    -0.153 OA
BRANCH  22  25
ATOM     25  C   UNL     1       0.860   0.613   1.129  0.00  0.00    +0.105 A 
ATOM     26  C   UNL     1       2.052   0.929   1.753  0.00  0.00    +0.032 A 
ATOM     27  C   UNL     1       2.616   0.046   2.654  0.00  0.00    +0.047 A 
ATOM     28  C   UNL     1       1.985  -1.157   2.932  0.00  0.00    +0.120 A 
ATOM     29  C   UNL     1       0.788  -1.472   2.304  0.00  0.00    +0.047 A 
ATOM     30  C   UNL     1       0.228  -0.586   1.404  0.00  0.00    +0.032 A 
BRANCH  28  31
ATOM     31  O   UNL     1       2.537  -2.027   3.819  0.00  0.00    -0.495 OA
ATOM     32  C   UNL     1       3.770  -1.637   4.427  0.00  0.00    +0.277 C 
ENDBRANCH  28  31
ENDBRANCH  22  25
ENDBRANCH  20  22
ENDBRANCH   1  20
BRANCH   1  33
ATOM     33  C   UNL     1      -1.046   4.975   1.807  0.00  0.00    +0.032 C 
BRANCH  33  35
ATOM     34  C   UNL     1      -1.632   6.938   0.377  0.00  0.00    +0.007 C 
ATOM     35  C   UNL     1      -0.805   5.653   0.457  0.00  0.00    -0.015 C 
ATOM     36  C   UNL     1       0.680   5.993   0.315  0.00  0.00    +0.007 C 
ENDBRANCH  33  35
ENDBRANCH   1  33
TORSDOF 11
