REMARK  Name = ZINC16484091
REMARK  6 active torsions:
REMARK  status: ('A' for Active; 'I' for Inactive)
REMARK    1  A    between atoms: C_1  and  C_2
REMARK    2  A    between atoms: C_5  and  S_8
REMARK    3  A    between atoms: S_8  and  C_9
REMARK    4  A    between atoms: C_9  and  C_10
REMARK    5  A    between atoms: N_15  and  C_16
REMARK    6  A    between atoms: C_22  and  C_24
REMARK                            x       y       z     vdW  Elec       q    Type
REMARK                         _______ _______ _______ _____ _____    ______ ____
ROOT
ATOM      1  C   UNL     1      -5.395   3.292   0.071  0.00  0.00    +0.231 C 
ATOM      2  O   UNL     1      -5.524   4.498   0.078  0.00  0.00    -0.274 OA
ATOM      3  N   UNL     1      -6.483   2.498   0.077  0.00  0.00    -0.240 N 
ATOM      4  C   UNL     1      -7.716   3.043   0.092  0.00  0.00    +0.306 C 
ATOM      5  O   UNL     1      -7.846   4.252   0.099  0.00  0.00    -0.252 OA
ATOM      6  N   UNL     1      -8.804   2.249   0.098  0.00  0.00    -0.296 N 
ATOM      7  H   UNL     1      -6.380   1.533   0.071  0.00  0.00    +0.159 HD
ATOM      8  H   UNL     1      -8.701   1.284   0.091  0.00  0.00    +0.151 HD
ENDROOT
BRANCH   6   9
ATOM      9  C   UNL     1     -10.144   2.841   0.114  0.00  0.00    +0.077 C 
ATOM     10  C   UNL     1     -10.546   3.155   1.556  0.00  0.00    +0.022 C 
ATOM     11  C   UNL     1     -10.550   1.864   2.377  0.00  0.00    +0.002 C 
ATOM     12  C   UNL     1     -11.551   0.878   1.771  0.00  0.00    +0.000 C 
ATOM     13  C   UNL     1     -11.149   0.564   0.329  0.00  0.00    +0.005 C 
ATOM     14  C   UNL     1     -11.145   1.855  -0.492  0.00  0.00    +0.006 C 
ATOM     15  C   UNL     1     -10.743   1.542  -1.934  0.00  0.00    +0.009 C 
ENDBRANCH   6   9
BRANCH   1  16
ATOM     16  C   UNL     1      -4.017   2.683   0.054  0.00  0.00    +0.170 C 
BRANCH  16  17
ATOM     17  S   UNL     1      -2.772   4.002   0.050  0.00  0.00    -0.116 S 
BRANCH  17  22
ATOM     18  C   UNL     1       2.490   1.044  -0.017  0.00  0.00    +0.044 C 
ATOM     19  C   UNL     1       1.176   1.783   0.000  0.00  0.00    -0.050 A 
ATOM     20  C   UNL     1      -0.013   1.076   0.008  0.00  0.00    +0.004 A 
ATOM     21  C   UNL     1      -1.218   1.749   0.017  0.00  0.00    +0.015 A 
ATOM     22  C   UNL     1      -1.236   3.139   0.030  0.00  0.00    +0.008 A 
ATOM     23  C   UNL     1      -0.040   3.846   0.023  0.00  0.00    +0.015 A 
ATOM     24  C   UNL     1       1.162   3.166   0.008  0.00  0.00    +0.004 A 
ENDBRANCH  17  22
ENDBRANCH  16  17
ENDBRANCH   1  16
TORSDOF 4
