REMARK  Name = ZINC36145494
REMARK  11 active torsions:
REMARK  status: ('A' for Active; 'I' for Inactive)
REMARK    1  A    between atoms: C_1  and  C_2
REMARK    2  A    between atoms: C_5  and  C_8
REMARK    3  A    between atoms: C_8  and  N_9
REMARK    4  A    between atoms: N_9  and  C_10
REMARK    5  A    between atoms: N_9  and  C_30
REMARK    6  A    between atoms: C_10  and  C_11
REMARK    7  A    between atoms: C_14  and  C_16
REMARK    8  A    between atoms: C_16  and  C_17
REMARK    9  A    between atoms: C_16  and  C_23
REMARK   10  A    between atoms: C_16  and  O_29
REMARK   11  A    between atoms: C_30  and  C_31
REMARK                            x       y       z     vdW  Elec       q    Type
REMARK                         _______ _______ _______ _____ _____    ______ ____
ROOT
ATOM      1  C   UNL     1       2.934  -6.918  -0.049  0.00  0.00    +0.089 A 
ATOM      2  C   UNL     1       3.608  -7.500   0.960  0.00  0.00    +0.043 A 
ATOM      3  C   UNL     1       4.872  -7.871   0.446  0.00  0.00    +0.048 A 
ATOM      4  C   UNL     1       4.895  -7.494  -0.845  0.00  0.00    +0.146 A 
ATOM      5  O   UNL     1       3.716  -6.923  -1.141  0.00  0.00    -0.463 OA
ENDROOT
BRANCH   1   6
ATOM      6  C   UNL     1       1.535  -6.362   0.032  0.00  0.00    -0.003 C 
BRANCH   6   7
ATOM      7  N   UNL     1       1.597  -4.917   0.290  0.00  0.00    +0.389 N 
ATOM      8  H   UNL     1       2.175  -4.475  -0.409  0.00  0.00    -0.081 HD
BRANCH   7   9
ATOM      9  C   UNL     1       0.243  -4.351   0.236  0.00  0.00    -0.042 C 
BRANCH   9  14
ATOM     10  C   UNL     1       0.529   1.395   0.777  0.00  0.00    +0.044 C 
ATOM     11  C   UNL     1       0.454  -0.103   0.636  0.00  0.00    -0.050 A 
ATOM     12  C   UNL     1       0.653  -0.692  -0.599  0.00  0.00    +0.003 A 
ATOM     13  C   UNL     1       0.584  -2.067  -0.728  0.00  0.00    +0.002 A 
ATOM     14  C   UNL     1       0.318  -2.853   0.377  0.00  0.00    -0.064 A 
ATOM     15  C   UNL     1       0.121  -2.264   1.612  0.00  0.00    +0.002 A 
ATOM     16  C   UNL     1       0.193  -0.890   1.743  0.00  0.00    +0.003 A 
ENDBRANCH   9  14
ENDBRANCH   7   9
BRANCH   7  17
ATOM     17  C   UNL     1       2.173  -4.682   1.621  0.00  0.00    -0.046 C 
BRANCH  17  18
ATOM     18  C   UNL     1       1.401  -5.495   2.662  0.00  0.00    +0.102 C 
ATOM     19  C   UNL     1       2.061  -5.349   4.056  0.00  0.00    +0.032 C 
ATOM     20  C   UNL     1       0.855  -5.651   4.986  0.00  0.00    +0.030 C 
ATOM     21  C   UNL     1      -0.329  -5.059   4.191  0.00  0.00    +0.160 C 
ATOM     22  O   UNL     1       0.072  -4.973   2.817  0.00  0.00    -0.378 OA
ENDBRANCH  17  18
ENDBRANCH   7  17
ENDBRANCH   6   7
ENDBRANCH   1   6
BRANCH   4  23
ATOM     23  C   UNL     1       6.045  -7.685  -1.799  0.00  0.00    +0.174 C 
BRANCH  23  24
ATOM     24  C   UNL     1       5.515  -7.844  -3.200  0.00  0.00    -0.004 A 
ATOM     25  C   UNL     1       5.675  -9.043  -3.869  0.00  0.00    +0.007 A 
ATOM     26  C   UNL     1       5.189  -9.189  -5.154  0.00  0.00    +0.000 A 
ATOM     27  C   UNL     1       4.541  -8.135  -5.771  0.00  0.00    +0.000 A 
ATOM     28  C   UNL     1       4.380  -6.936  -5.103  0.00  0.00    +0.000 A 
ATOM     29  C   UNL     1       4.862  -6.792  -3.816  0.00  0.00    +0.007 A 
ENDBRANCH  23  24
BRANCH  23  30
ATOM     30  C   UNL     1       6.953  -6.484  -1.738  0.00  0.00    -0.004 A 
ATOM     31  C   UNL     1       6.435  -5.241  -1.424  0.00  0.00    +0.007 A 
ATOM     32  C   UNL     1       7.268  -4.139  -1.369  0.00  0.00    +0.000 A 
ATOM     33  C   UNL     1       8.619  -4.280  -1.627  0.00  0.00    +0.000 A 
ATOM     34  C   UNL     1       9.137  -5.523  -1.940  0.00  0.00    +0.000 A 
ATOM     35  C   UNL     1       8.305  -6.625  -1.991  0.00  0.00    +0.007 A 
ENDBRANCH  23  30
BRANCH  23  36
ATOM     36  O   UNL     1       6.779  -8.855  -1.432  0.00  0.00    -0.372 OA
ATOM     37  H   UNL     1       6.256  -9.669  -1.449  0.00  0.00    +0.212 HD
ENDBRANCH  23  36
ENDBRANCH   4  23
TORSDOF 10
