REMARK  Name = ZINC28293021
REMARK  10 active torsions:
REMARK  status: ('A' for Active; 'I' for Inactive)
REMARK    1  A    between atoms: C_1  and  C_2
REMARK    2  A    between atoms: C_2  and  C_3
REMARK    3  A    between atoms: C_12  and  C_14
REMARK    4  A    between atoms: N_16  and  C_17
REMARK    5  A    between atoms: C_17  and  C_18
REMARK    6  A    between atoms: C_18  and  C_20
REMARK    7  A    between atoms: C_18  and  N_29
REMARK    8  A    between atoms: C_23  and  C_26
REMARK    9  A    between atoms: C_26  and  C_27
REMARK   10  A    between atoms: C_26  and  C_28
REMARK                            x       y       z     vdW  Elec       q    Type
REMARK                         _______ _______ _______ _____ _____    ______ ____
ROOT
ATOM      1  C   UNL     1       1.133   1.802   2.128  0.00  0.00    +0.094 C 
ENDROOT
BRANCH   1   4
ATOM      2  C   UNL     1       2.730   2.090   0.309  0.00  0.00    +0.279 C 
ATOM      3  O   UNL     1       3.227   3.008   0.930  0.00  0.00    -0.267 OA
ATOM      4  N   UNL     1       1.677   1.421   0.822  0.00  0.00    -0.310 N 
ATOM      5  H   UNL     1       1.227   0.590   0.260  0.00  0.00    +0.149 HD
BRANCH   2  15
ATOM      6  C   UNL     1       4.037  -0.598  -5.366  0.00  0.00    -0.047 A 
ATOM      7  C   UNL     1       2.959  -1.222  -4.753  0.00  0.00    +0.007 A 
ATOM      8  C   UNL     1       2.508  -0.801  -3.521  0.00  0.00    +0.047 A 
ATOM      9  C   UNL     1       3.138   0.262  -2.879  0.00  0.00    +0.139 A 
ATOM     10  C   UNL     1       4.229   0.887  -3.506  0.00  0.00    +0.064 A 
ATOM     11  C   UNL     1       4.671   0.447  -4.753  0.00  0.00    +0.019 A 
ATOM     12  C   UNL     1       4.886   2.012  -2.813  0.00  0.00    +0.193 A 
ATOM     13  O   UNL     1       5.835   2.597  -3.302  0.00  0.00    -0.287 OA
ATOM     14  C   UNL     1       4.338   2.393  -1.502  0.00  0.00    +0.103 A 
ATOM     15  C   UNL     1       3.280   1.704  -1.012  0.00  0.00    +0.193 A 
ATOM     16  O   UNL     1       2.715   0.683  -1.672  0.00  0.00    -0.450 OA
BRANCH   6  18
ATOM     17  C   UNL     1       3.772  -0.314  -7.815  0.00  0.00    +0.009 C 
ATOM     18  C   UNL     1       4.512  -1.076  -6.714  0.00  0.00    +0.032 C 
ENDBRANCH   6  18
ENDBRANCH   2  15
ENDBRANCH   1   4
BRANCH   1  19
ATOM     19  C   UNL     1      -0.111   0.964   2.426  0.00  0.00    -0.020 C 
BRANCH  19  20
ATOM     20  N   UNL     1      -1.070   1.100   1.321  0.00  0.00    +0.385 N 
ATOM     21  C   UNL     1      -0.950   2.415   0.680  0.00  0.00    -0.078 C 
ATOM     22  C   UNL     1      -1.857   2.468  -0.552  0.00  0.00    -0.019 C 
ATOM     23  C   UNL     1      -3.305   2.217  -0.125  0.00  0.00    -0.004 C 
ATOM     24  C   UNL     1      -3.393   0.862   0.583  0.00  0.00    -0.019 C 
ATOM     25  C   UNL     1      -2.442   0.857   1.782  0.00  0.00    -0.078 C 
ATOM     26  H   UNL     1      -0.829   0.336   0.567  0.00  0.00    -0.081 HD
ENDBRANCH  19  20
BRANCH  19  27
ATOM     27  C   UNL     1      -0.747   1.445   3.704  0.00  0.00    -0.059 A 
ATOM     28  C   UNL     1      -1.176   2.755   3.812  0.00  0.00    +0.002 A 
ATOM     29  C   UNL     1      -1.764   3.195   4.984  0.00  0.00    +0.004 A 
ATOM     30  C   UNL     1      -1.913   2.329   6.051  0.00  0.00    -0.045 A 
ATOM     31  C   UNL     1      -1.479   1.021   5.944  0.00  0.00    +0.004 A 
ATOM     32  C   UNL     1      -0.896   0.579   4.771  0.00  0.00    +0.002 A 
BRANCH  30  33
ATOM     33  C   UNL     1      -2.548   2.811   7.329  0.00  0.00    +0.013 C 
ATOM     34  C   UNL     1      -1.726   3.967   7.903  0.00  0.00    +0.012 C 
ATOM     35  C   UNL     1      -3.972   3.291   7.042  0.00  0.00    +0.012 C 
ENDBRANCH  30  33
ENDBRANCH  19  27
ENDBRANCH   1  19
TORSDOF 7
