REMARK  Name = ZINC18253521
REMARK  11 active torsions:
REMARK  status: ('A' for Active; 'I' for Inactive)
REMARK    1  A    between atoms: C_1  and  C_2
REMARK    2  A    between atoms: N_13  and  C_28
REMARK    3  A    between atoms: C_14  and  S_16
REMARK    4  A    between atoms: S_16  and  C_17
REMARK    5  A    between atoms: C_17  and  C_18
REMARK    6  A    between atoms: N_20  and  C_21
REMARK    7  A    between atoms: C_21  and  C_22
REMARK    8  A    between atoms: C_22  and  C_23
REMARK    9  A    between atoms: C_23  and  C_24
REMARK   10  A    between atoms: C_24  and  O_26
REMARK   11  A    between atoms: O_26  and  C_27
REMARK                            x       y       z     vdW  Elec       q    Type
REMARK                         _______ _______ _______ _____ _____    ______ ____
ROOT
ATOM      1  C   UNL     1      -0.002   3.976  -1.536  0.00  0.00    +0.008 C 
ATOM      2  C   UNL     1       0.217   2.471  -1.368  0.00  0.00    -0.009 C 
ATOM      3  C   UNL     1      -1.090   1.726  -1.654  0.00  0.00    +0.008 C 
ATOM      4  C   UNL     1      -0.949   0.259  -1.251  0.00  0.00    +0.037 C 
ATOM      5  C   UNL     1       0.295  -0.322  -1.918  0.00  0.00    -0.023 A 
ATOM      6  C   UNL     1       1.261   0.495  -2.398  0.00  0.00    -0.004 A 
ATOM      7  S   UNL     1       2.492  -0.589  -3.075  0.00  0.00    -0.073 S 
ATOM      8  C   UNL     1       1.713  -2.131  -2.715  0.00  0.00    +0.117 A 
ATOM      9  C   UNL     1       0.511  -1.750  -2.075  0.00  0.00    +0.076 A 
ATOM     10  C   UNL     1      -0.364  -2.801  -1.648  0.00  0.00    +0.268 A 
ATOM     11  O   UNL     1      -1.422  -2.573  -1.087  0.00  0.00    -0.267 OA
ATOM     12  N   UNL     1       0.056  -4.062  -1.905  0.00  0.00    -0.255 N 
ATOM     13  C   UNL     1       1.236  -4.338  -2.530  0.00  0.00    +0.178 A 
ATOM     14  N   UNL     1       2.068  -3.390  -2.938  0.00  0.00    -0.215 NA
ATOM     15  C   UNL     1       1.284   1.992  -2.363  0.00  0.00    +0.046 C 
ENDROOT
BRANCH  12  16
ATOM     16  C   UNL     1      -0.759  -5.132  -1.510  0.00  0.00    +0.052 A 
ATOM     17  C   UNL     1      -1.722  -5.629  -2.378  0.00  0.00    +0.026 A 
ATOM     18  C   UNL     1      -2.520  -6.687  -1.988  0.00  0.00    +0.002 A 
ATOM     19  C   UNL     1      -2.368  -7.244  -0.732  0.00  0.00    +0.000 A 
ATOM     20  C   UNL     1      -1.413  -6.747   0.137  0.00  0.00    +0.002 A 
ATOM     21  C   UNL     1      -0.608  -5.693  -0.249  0.00  0.00    +0.026 A 
ENDBRANCH  12  16
BRANCH  13  22
ATOM     22  S   UNL     1       1.671  -6.023  -2.809  0.00  0.00    -0.078 S 
BRANCH  22  23
ATOM     23  C   UNL     1       3.265  -5.803  -3.637  0.00  0.00    +0.173 C 
BRANCH  23  24
ATOM     24  C   UNL     1       3.843  -7.152  -3.980  0.00  0.00    +0.223 C 
ATOM     25  O   UNL     1       3.237  -8.162  -3.693  0.00  0.00    -0.275 OA
ATOM     26  N   UNL     1       5.034  -7.235  -4.606  0.00  0.00    -0.315 N 
ATOM     27  H   UNL     1       5.519  -6.427  -4.835  0.00  0.00    +0.149 HD
BRANCH  26  28
ATOM     28  C   UNL     1       5.596  -8.546  -4.940  0.00  0.00    +0.105 C 
BRANCH  28  29
ATOM     29  C   UNL     1       6.944  -8.360  -5.639  0.00  0.00    +0.030 C 
BRANCH  29  30
ATOM     30  C   UNL     1       7.531  -9.729  -5.988  0.00  0.00    +0.122 C 
BRANCH  30  31
ATOM     31  C   UNL     1       8.858  -9.546  -6.677  0.00  0.00    +0.307 C 
ATOM     32  O   UNL     1       9.291  -8.434  -6.870  0.00  0.00    -0.251 OA
BRANCH  31  33
ATOM     33  O   UNL     1       9.561 -10.618  -7.077  0.00  0.00    -0.468 OA
ATOM     34  C   UNL     1      10.831 -10.366  -7.734  0.00  0.00    +0.280 C 
ENDBRANCH  31  33
ENDBRANCH  30  31
ENDBRANCH  29  30
ENDBRANCH  28  29
ENDBRANCH  26  28
ENDBRANCH  23  24
ENDBRANCH  22  23
ENDBRANCH  13  22
TORSDOF 9
