REMARK  Name = ZINC20330223
REMARK  18 active torsions:
REMARK  status: ('A' for Active; 'I' for Inactive)
REMARK    1  A    between atoms: C_1  and  C_2
REMARK    2  A    between atoms: C_2  and  C_3
REMARK    3  A    between atoms: C_3  and  C_4
REMARK    4  A    between atoms: C_4  and  C_5
REMARK    5  A    between atoms: C_5  and  O_6
REMARK    6  A    between atoms: O_6  and  C_7
REMARK    7  A    between atoms: C_11  and  C_13
REMARK    8  A    between atoms: C_15  and  C_29
REMARK    9  A    between atoms: N_19  and  C_20
REMARK   10  A    between atoms: C_20  and  C_21
REMARK   11  A    between atoms: C_21  and  C_22
REMARK   12  A    between atoms: C_22  and  N_23
REMARK   13  A    between atoms: N_23  and  C_24
REMARK   14  A    between atoms: N_23  and  C_26
REMARK   15  A    between atoms: C_24  and  C_25
REMARK   16  A    between atoms: C_26  and  C_27
REMARK   17  A    between atoms: C_29  and  C_31
REMARK   18  A    between atoms: C_38  and  C_41
REMARK                            x       y       z     vdW  Elec       q    Type
REMARK                         _______ _______ _______ _____ _____    ______ ____
ROOT
ATOM      1  C   UNL     1       1.380  -0.812   0.732  0.00  0.00    +0.145 C 
ATOM      2  C   UNL     1       0.533   0.435   0.840  0.00  0.00    +0.076 C 
ATOM      3  C   UNL     1      -0.725   0.084   0.487  0.00  0.00    +0.249 C 
ATOM      4  C   UNL     1      -0.749  -1.351   0.136  0.00  0.00    +0.288 C 
ATOM      5  O   UNL     1      -1.734  -1.964  -0.225  0.00  0.00    -0.266 OA
ATOM      6  N   UNL     1       0.479  -1.880   0.281  0.00  0.00    -0.284 N 
ATOM      7  O   UNL     1      -1.791   0.917   0.457  0.00  0.00    -0.282 OA
ENDROOT
BRANCH   1  12
ATOM      8  C   UNL     1       3.856  -1.304   3.544  0.00  0.00    +0.121 A 
ATOM      9  C   UNL     1       3.036  -1.799   4.548  0.00  0.00    +0.045 A 
ATOM     10  C   UNL     1       1.686  -1.972   4.312  0.00  0.00    +0.004 A 
ATOM     11  C   UNL     1       1.151  -1.653   3.078  0.00  0.00    +0.006 A 
ATOM     12  C   UNL     1       1.966  -1.159   2.076  0.00  0.00    -0.019 A 
ATOM     13  C   UNL     1       3.318  -0.989   2.304  0.00  0.00    +0.051 A 
BRANCH   8  14
ATOM     14  O   UNL     1       5.184  -1.133   3.772  0.00  0.00    -0.492 OA
BRANCH  14  15
ATOM     15  C   UNL     1       5.670  -1.483   5.070  0.00  0.00    +0.229 C 
BRANCH  15  16
ATOM     16  C   UNL     1       7.176  -1.224   5.138  0.00  0.00    +0.041 C 
BRANCH  16  17
ATOM     17  C   UNL     1       7.695  -1.599   6.528  0.00  0.00    +0.003 C 
BRANCH  17  19
ATOM     18  C   UNL     1       9.721  -1.715   7.985  0.00  0.00    +0.004 C 
ATOM     19  C   UNL     1       9.202  -1.340   6.596  0.00  0.00    -0.003 C 
ENDBRANCH  17  19
ENDBRANCH  16  17
ENDBRANCH  15  16
ENDBRANCH  14  15
ENDBRANCH   8  14
ENDBRANCH   1  12
BRANCH   2  20
ATOM     20  C   UNL     1       0.987   1.766   1.255  0.00  0.00    +0.195 C 
ATOM     21  O   UNL     1       0.586   2.248   2.298  0.00  0.00    -0.287 OA
BRANCH  20  22
ATOM     22  C   UNL     1       1.930   2.522   0.407  0.00  0.00    +0.023 A 
ATOM     23  C   UNL     1       2.394   1.974  -0.793  0.00  0.00    +0.015 A 
ATOM     24  C   UNL     1       3.264   2.682  -1.586  0.00  0.00    +0.046 A 
ATOM     25  C   UNL     1       3.700   3.951  -1.199  0.00  0.00    +0.124 A 
ATOM     26  C   UNL     1       3.243   4.487   0.002  0.00  0.00    -0.002 A 
ATOM     27  C   UNL     1       2.371   3.790   0.799  0.00  0.00    +0.019 A 
ATOM     28  C   UNL     1       3.892   5.850   0.154  0.00  0.00    +0.083 C 
ATOM     29  C   UNL     1       5.031   5.779  -0.890  0.00  0.00    +0.175 C 
ATOM     30  O   UNL     1       4.540   4.813  -1.834  0.00  0.00    -0.488 OA
ATOM     31  C   UNL     1       5.235   7.138  -1.563  0.00  0.00    +0.052 C 
ENDBRANCH  20  22
ENDBRANCH   2  20
BRANCH   6  32
ATOM     32  C   UNL     1       0.852  -3.275   0.034  0.00  0.00    +0.107 C 
BRANCH  32  33
ATOM     33  C   UNL     1       0.680  -4.085   1.321  0.00  0.00    +0.000 C 
BRANCH  33  34
ATOM     34  C   UNL     1       1.069  -5.542   1.062  0.00  0.00    -0.077 C 
BRANCH  34  35
ATOM     35  N   UNL     1       0.904  -6.319   2.298  0.00  0.00    +0.379 N 
ATOM     36  H   UNL     1       1.444  -5.797   3.101  0.00  0.00    -0.082 HD
BRANCH  35  37
ATOM     37  C   UNL     1      -0.511  -6.399   2.684  0.00  0.00    -0.082 C 
ATOM     38  C   UNL     1      -1.295  -7.141   1.599  0.00  0.00    -0.017 C 
ENDBRANCH  35  37
BRANCH  35  39
ATOM     39  C   UNL     1       1.488  -7.660   2.158  0.00  0.00    -0.082 C 
ATOM     40  C   UNL     1       1.581  -8.321   3.535  0.00  0.00    -0.017 C 
ENDBRANCH  35  39
ENDBRANCH  34  35
ENDBRANCH  33  34
ENDBRANCH  32  33
ENDBRANCH   6  32
TORSDOF 14
