REMARK  Name = ZINC38975798
REMARK  5 active torsions:
REMARK  status: ('A' for Active; 'I' for Inactive)
REMARK    1  A    between atoms: C_5  and  C_7
REMARK    2  A    between atoms: C_7  and  N_8
REMARK    3  A    between atoms: N_8  and  C_9
REMARK    4  A    between atoms: N_12  and  S_13
REMARK    5  A    between atoms: S_13  and  C_16
REMARK                            x       y       z     vdW  Elec       q    Type
REMARK                         _______ _______ _______ _____ _____    ______ ____
ROOT
ATOM      1  C   UNL     1       1.516  -4.149   1.367  0.00  0.00    +0.220 C 
ATOM      2  C   UNL     1       2.767  -4.572   2.104  0.00  0.00    +0.188 C 
ATOM      3  N   UNL     1       3.939  -4.193   1.688  0.00  0.00    -0.110 NA
ATOM      4  N   UNL     1       2.649  -5.346   3.195  0.00  0.00    -0.226 NA
ATOM      5  C   UNL     1       1.474  -5.742   3.637  0.00  0.00    +0.089 A 
ATOM      6  C   UNL     1       1.387  -6.559   4.793  0.00  0.00    +0.030 A 
ATOM      7  C   UNL     1       0.184  -6.969   5.250  0.00  0.00    +0.002 A 
ATOM      8  C   UNL     1      -1.026  -6.622   4.625  0.00  0.00    +0.002 A 
ATOM      9  C   UNL     1      -1.056  -5.849   3.518  0.00  0.00    +0.027 A 
ATOM     10  C   UNL     1       0.212  -5.360   2.956  0.00  0.00    +0.063 A 
ATOM     11  N   UNL     1       0.221  -4.611   1.890  0.00  0.00    -0.362 N 
ATOM     12  H   UNL     1      -0.608  -4.364   1.451  0.00  0.00    +0.162 HD
ENDROOT
BRANCH   3  13
ATOM     13  S   UNL     1       5.300  -4.664   2.505  0.00  0.00    +0.102 S 
ATOM     14  O   UNL     1       5.246  -4.038   3.779  0.00  0.00    -0.146 OA
ATOM     15  O   UNL     1       5.398  -6.073   2.352  0.00  0.00    -0.146 OA
BRANCH  13  16
ATOM     16  C   UNL     1       6.681  -3.969   1.660  0.00  0.00    +0.132 A 
ATOM     17  C   UNL     1       7.473  -3.026   2.288  0.00  0.00    +0.050 A 
ATOM     18  C   UNL     1       8.557  -2.480   1.625  0.00  0.00    +0.043 A 
ATOM     19  C   UNL     1       8.849  -2.877   0.333  0.00  0.00    +0.021 A 
ATOM     20  C   UNL     1       8.058  -3.820  -0.296  0.00  0.00    +0.023 A 
ATOM     21  C   UNL     1       6.977  -4.370   0.369  0.00  0.00    +0.068 A 
ATOM     22 CL   UNL     1       5.987  -5.560  -0.417  0.00  0.00    -0.082 Cl
ATOM     23 CL   UNL     1       9.551  -1.295   2.414  0.00  0.00    -0.083 Cl
ENDBRANCH  13  16
ENDBRANCH   3  13
BRANCH   1  24
ATOM     24  N   UNL     1       1.489  -2.680   1.337  0.00  0.00    -0.287 NA
ATOM     25  H   UNL     1       2.347  -2.295   1.703  0.00  0.00    +0.125 HD
BRANCH  24  26
ATOM     26  C   UNL     1       1.229  -2.186  -0.022  0.00  0.00    +0.120 C 
BRANCH  26  31
ATOM     27  C   UNL     1      -0.017   1.378   0.010  0.00  0.00    +0.000 A 
ATOM     28  C   UNL     1       1.171   2.086   0.002  0.00  0.00    +0.001 A 
ATOM     29  C   UNL     1       2.377   1.412  -0.013  0.00  0.00    +0.020 A 
ATOM     30  C   UNL     1       2.397   0.029  -0.021  0.00  0.00    +0.045 A 
ATOM     31  C   UNL     1       1.208  -0.679  -0.013  0.00  0.00    -0.015 A 
ATOM     32  C   UNL     1       0.002  -0.004   0.002  0.00  0.00    +0.006 A 
ATOM     33 CL   UNL     1       3.912  -0.818  -0.041  0.00  0.00    -0.083 Cl
ENDBRANCH  26  31
ENDBRANCH  24  26
ENDBRANCH   1  24
TORSDOF 5
