REMARK  Name = ZINC04631518
REMARK  6 active torsions:
REMARK  status: ('A' for Active; 'I' for Inactive)
REMARK    1  A    between atoms: C_1  and  C_2
REMARK    2  A    between atoms: C_10  and  C_22
REMARK    3  A    between atoms: C_12  and  C_18
REMARK    4  A    between atoms: C_12  and  C_20
REMARK    5  A    between atoms: C_13  and  N_17
REMARK    6  A    between atoms: C_14  and  C_15
REMARK                            x       y       z     vdW  Elec       q    Type
REMARK                         _______ _______ _______ _____ _____    ______ ____
ROOT
ATOM      1  C   UNL     1      -4.428   3.129  -3.032  0.00  0.00    +0.008 C 
ATOM      2  C   UNL     1      -5.540   3.230  -1.985  0.00  0.00    -0.010 C 
ATOM      3  C   UNL     1      -6.017   1.823  -1.601  0.00  0.00    +0.030 C 
ATOM      4  C   UNL     1      -4.823   1.060  -1.085  0.00  0.00    -0.021 C 
ATOM      5  C   UNL     1      -3.857   1.675  -0.432  0.00  0.00    -0.029 C 
ATOM      6  C   UNL     1      -3.874   3.138  -0.100  0.00  0.00    +0.031 C 
ATOM      7  C   UNL     1      -5.003   3.916  -0.730  0.00  0.00    +0.012 C 
ATOM      8  C   UNL     1      -2.505   3.725  -0.448  0.00  0.00    +0.066 C 
ATOM      9  C   UNL     1      -1.447   3.061   0.438  0.00  0.00    +0.188 C 
ATOM     10  C   UNL     1      -1.551   1.567   0.399  0.00  0.00    +0.054 C 
ATOM     11  C   UNL     1      -2.668   0.901   0.011  0.00  0.00    +0.074 C 
ENDROOT
BRANCH   8  12
ATOM     12  C   UNL     1      -2.514   5.211  -0.198  0.00  0.00    -0.038 A 
ATOM     13  C   UNL     1      -3.071   5.713   0.963  0.00  0.00    +0.007 A 
ATOM     14  C   UNL     1      -3.080   7.075   1.194  0.00  0.00    +0.041 A 
ATOM     15  C   UNL     1      -2.531   7.939   0.263  0.00  0.00    +0.158 A 
ATOM     16  C   UNL     1      -1.973   7.436  -0.902  0.00  0.00    +0.159 A 
ATOM     17  C   UNL     1      -1.960   6.070  -1.129  0.00  0.00    +0.045 A 
ATOM     18  F   UNL     1      -1.436   8.277  -1.813  0.00  0.00    -0.202 F 
ATOM     19  F   UNL     1      -2.540   9.271   0.488  0.00  0.00    -0.202 F 
ENDBRANCH   8  12
BRANCH  10  20
ATOM     20  N   UNL     1      -0.462   0.834   0.779  0.00  0.00    -0.358 N 
ATOM     21  H   UNL     1      -0.505  -0.266   0.761  0.00  0.00    +0.142 HD
ATOM     22  H   UNL     1       0.458   1.342   1.103  0.00  0.00    +0.142 HD
ENDBRANCH  10  20
BRANCH  11  23
ATOM     23  C   UNL     1      -2.701  -0.530   0.029  0.00  0.00    +0.101 C 
ATOM     24  N   UNL     1      -2.728  -1.666   0.043  0.00  0.00    -0.191 NA
ENDBRANCH  11  23
BRANCH   9  25
ATOM     25  C   UNL     1      -1.622   3.518   1.827  0.00  0.00    +0.091 C 
ATOM     26  N   UNL     1      -1.757   3.870   2.898  0.00  0.00    -0.194 NA
ENDBRANCH   9  25
BRANCH   9  27
ATOM     27  C   UNL     1      -0.111   3.462  -0.032  0.00  0.00    +0.091 C 
ATOM     28  N   UNL     1       0.921   3.771  -0.394  0.00  0.00    -0.194 NA
ENDBRANCH   9  27
TORSDOF 5
