REMARK  Name = ZINC12934129
REMARK  9 active torsions:
REMARK  status: ('A' for Active; 'I' for Inactive)
REMARK    1  A    between atoms: C_1  and  C_2
REMARK    2  A    between atoms: C_3  and  C_13
REMARK    3  A    between atoms: C_4  and  C_12
REMARK    4  A    between atoms: C_13  and  C_14
REMARK    5  A    between atoms: C_14  and  C_15
REMARK    6  A    between atoms: N_17  and  C_18
REMARK    7  A    between atoms: C_18  and  C_19
REMARK    8  A    between atoms: C_19  and  C_20
REMARK    9  A    between atoms: C_23  and  C_26
REMARK                            x       y       z     vdW  Elec       q    Type
REMARK                         _______ _______ _______ _____ _____    ______ ____
ROOT
ATOM      1  C   UNL     1      -0.013   1.086   0.008  0.00  0.00    +0.100 C 
ENDROOT
BRANCH   1   2
ATOM      2  C   UNL     1      -0.742   1.585  -1.213  0.00  0.00    +0.213 C 
ATOM      3  O   UNL     1      -1.736   2.268  -1.088  0.00  0.00    -0.276 OA
ATOM      4  N   UNL     1      -0.288   1.272  -2.443  0.00  0.00    -0.315 N 
ATOM      5  H   UNL     1       0.507   0.726  -2.543  0.00  0.00    +0.149 HD
BRANCH   4   6
ATOM      6  C   UNL     1      -0.997   1.758  -3.630  0.00  0.00    +0.109 C 
BRANCH   6   7
ATOM      7  C   UNL     1      -0.281   1.264  -4.889  0.00  0.00    +0.054 C 
BRANCH   7   8
ATOM      8  C   UNL     1      -1.010   1.763  -6.110  0.00  0.00    -0.046 A 
ATOM      9  C   UNL     1      -2.018   1.003  -6.672  0.00  0.00    +0.004 A 
ATOM     10  C   UNL     1      -2.690   1.463  -7.789  0.00  0.00    +0.012 A 
ATOM     11  C   UNL     1      -2.346   2.679  -8.350  0.00  0.00    +0.055 A 
ATOM     12  C   UNL     1      -1.335   3.437  -7.791  0.00  0.00    +0.012 A 
ATOM     13  C   UNL     1      -0.666   2.979  -6.671  0.00  0.00    +0.004 A 
BRANCH  11  14
ATOM     14  C   UNL     1      -3.075   3.178  -9.571  0.00  0.00    +0.417 C 
ATOM     15  F   UNL     1      -2.420   2.728 -10.722  0.00  0.00    -0.166 F 
ATOM     16  F   UNL     1      -4.387   2.693  -9.561  0.00  0.00    -0.166 F 
ATOM     17  F   UNL     1      -3.095   4.577  -9.563  0.00  0.00    -0.166 F 
ENDBRANCH  11  14
ENDBRANCH   7   8
ENDBRANCH   6   7
ENDBRANCH   4   6
ENDBRANCH   1   2
BRANCH   1  18
ATOM     18  C   UNL     1      -0.729   1.579   1.267  0.00  0.00    +0.048 C 
BRANCH  18  21
ATOM     19  C   UNL     1      -1.452  -0.975   2.465  0.00  0.00    +0.066 C 
ATOM     20  C   UNL     1      -0.345  -0.147   3.066  0.00  0.00    +0.047 A 
ATOM     21  C   UNL     1       0.000   1.080   2.488  0.00  0.00    -0.005 A 
ATOM     22  C   UNL     1       0.996   1.819   3.043  0.00  0.00    +0.048 A 
ATOM     23  N   UNL     1       1.635   1.342   4.144  0.00  0.00    -0.199 N 
ATOM     24  C   UNL     1       1.278   0.138   4.680  0.00  0.00    +0.255 A 
ATOM     25  N   UNL     1       0.296  -0.583   4.127  0.00  0.00    -0.216 NA
ATOM     26  N   UNL     1       2.059  -0.074   5.735  0.00  0.00    -0.176 NA
ATOM     27  C   UNL     1       2.895   0.950   5.886  0.00  0.00    +0.234 A 
ATOM     28  N   UNL     1       2.676   1.839   4.939  0.00  0.00    -0.128 NA
ATOM     29  N   UNL     1       3.854   1.063   6.889  0.00  0.00    -0.326 N 
ATOM     30  C   UNL     1       1.386   3.147   2.448  0.00  0.00    +0.066 C 
ATOM     31  H   UNL     1       4.426   1.846   6.927  0.00  0.00    +0.145 HD
ATOM     32  H   UNL     1       3.951   0.360   7.550  0.00  0.00    +0.145 HD
ENDBRANCH  18  21
ENDBRANCH   1  18
TORSDOF 7
