REMARK  Name = ZINC10980429
REMARK  10 active torsions:
REMARK  status: ('A' for Active; 'I' for Inactive)
REMARK    1  A    between atoms: C_1  and  C_2
REMARK    2  A    between atoms: C_5  and  C_9
REMARK    3  A    between atoms: C_7  and  O_8
REMARK    4  A    between atoms: C_9  and  O_11
REMARK    5  A    between atoms: O_11  and  C_12
REMARK    6  A    between atoms: C_12  and  C_14
REMARK    7  A    between atoms: C_12  and  C_15
REMARK    8  A    between atoms: N_17  and  C_18
REMARK    9  A    between atoms: C_20  and  S_25
REMARK   10  A    between atoms: S_25  and  N_28
REMARK                            x       y       z     vdW  Elec       q    Type
REMARK                         _______ _______ _______ _____ _____    ______ ____
ROOT
ATOM      1  C   UNL     1      -2.325  -0.157  -0.469  0.00  0.00    +0.258 C 
ATOM      2  O   UNL     1      -2.280   0.938  -0.990  0.00  0.00    -0.271 OA
ATOM      3  N   UNL     1      -1.200  -0.722   0.010  0.00  0.00    -0.281 N 
ATOM      4  H   UNL     1      -1.220  -1.629   0.353  0.00  0.00    +0.155 HD
ENDROOT
BRANCH   3   5
ATOM      5  C   UNL     1      -0.000  -0.000   0.012  0.00  0.00    +0.054 A 
ATOM      6  C   UNL     1      -0.024   1.388   0.027  0.00  0.00    +0.053 A 
ATOM      7  C   UNL     1       1.161   2.098   0.029  0.00  0.00    +0.107 A 
ATOM      8  C   UNL     1       2.371   1.427   0.017  0.00  0.00    +0.030 A 
ATOM      9  C   UNL     1       2.399   0.045   0.003  0.00  0.00    +0.024 A 
ATOM     10  C   UNL     1       1.216  -0.671  -0.000  0.00  0.00    +0.062 A 
ATOM     11 CL   UNL     1       1.252  -2.407  -0.018  0.00  0.00    -0.082 Cl
BRANCH   7  12
ATOM     12  S   UNL     1       1.132   3.859   0.048  0.00  0.00    +0.061 S 
ATOM     13  O   UNL     1       2.368   4.292  -0.504  0.00  0.00    -0.153 OA
ATOM     14  O   UNL     1      -0.122   4.250  -0.494  0.00  0.00    -0.153 OA
BRANCH  12  15
ATOM     15  N   UNL     1       1.130   4.333   1.635  0.00  0.00    -0.177 NA
ATOM     16  C   UNL     1      -0.135   4.531   2.355  0.00  0.00    +0.109 C 
ATOM     17  C   UNL     1      -0.102   3.691   3.641  0.00  0.00    +0.017 C 
ATOM     18  C   UNL     1       1.145   4.055   4.449  0.00  0.00    +0.003 C 
ATOM     19  C   UNL     1       2.398   3.733   3.631  0.00  0.00    +0.017 C 
ATOM     20  C   UNL     1       2.393   4.568   2.347  0.00  0.00    +0.109 C 
ENDBRANCH  12  15
ENDBRANCH   7  12
ENDBRANCH   3   5
BRANCH   1  21
ATOM     21  C   UNL     1      -3.640  -0.885  -0.358  0.00  0.00    +0.259 C 
ATOM     22  C   UNL     1      -4.017  -1.035   1.117  0.00  0.00    +0.062 C 
BRANCH  21  23
ATOM     23  O   UNL     1      -4.672  -0.129  -1.046  0.00  0.00    -0.449 OA
BRANCH  23  24
ATOM     24  C   UNL     1      -5.686  -0.831  -1.588  0.00  0.00    +0.340 C 
ATOM     25  O   UNL     1      -5.708  -2.042  -1.488  0.00  0.00    -0.245 OA
BRANCH  24  30
ATOM     26  C   UNL     1      -9.910   1.915  -4.373  0.00  0.00    +0.047 C 
ATOM     27  C   UNL     1      -8.805   1.195  -3.644  0.00  0.00    -0.009 A 
ATOM     28  C   UNL     1      -7.764   1.915  -3.087  0.00  0.00    +0.008 A 
ATOM     29  C   UNL     1      -6.751   1.263  -2.414  0.00  0.00    +0.015 A 
ATOM     30  C   UNL     1      -6.771  -0.129  -2.303  0.00  0.00    +0.062 A 
ATOM     31  C   UNL     1      -7.822  -0.854  -2.865  0.00  0.00    +0.060 A 
ATOM     32  C   UNL     1      -8.836  -0.189  -3.534  0.00  0.00    +0.121 A 
BRANCH  32  33
ATOM     33  O   UNL     1      -9.863  -0.891  -4.083  0.00  0.00    -0.506 OA
ATOM     34  H   UNL     1     -10.612  -1.024  -3.486  0.00  0.00    +0.292 HD
ENDBRANCH  32  33
ENDBRANCH  24  30
ENDBRANCH  23  24
ENDBRANCH  21  23
ENDBRANCH   1  21
TORSDOF 8
