REMARK  Name = ZINC62692361
REMARK  5 active torsions:
REMARK  status: ('A' for Active; 'I' for Inactive)
REMARK    1  A    between atoms: C_9  and  O_24
REMARK    2  A    between atoms: C_10  and  C_11
REMARK    3  A    between atoms: N_12  and  C_13
REMARK    4  A    between atoms: C_13  and  C_14
REMARK    5  A    between atoms: C_16  and  C_19
REMARK                            x       y       z     vdW  Elec       q    Type
REMARK                         _______ _______ _______ _____ _____    ______ ____
ROOT
ATOM      1  C   UNL     1       4.982   0.091  -0.046  0.00  0.00    +0.090 C 
ATOM      2  N   UNL     1       6.104  -0.552   0.038  0.00  0.00    -0.382 N 
ATOM      3  H   UNL     1       6.110  -1.522   0.033  0.00  0.00    +0.160 HD
ENDROOT
BRANCH   1  13
ATOM      4  C   UNL     1      -0.016   1.357   0.059  0.00  0.00    +0.001 A 
ATOM      5  C   UNL     1       1.168   2.091   0.052  0.00  0.00    +0.001 A 
ATOM      6  C   UNL     1       2.379   1.465   0.021  0.00  0.00    +0.009 A 
ATOM      7  C   UNL     1       2.434   0.066  -0.004  0.00  0.00    -0.006 A 
ATOM      8  C   UNL     1       1.233  -0.683   0.004  0.00  0.00    -0.017 A 
ATOM      9  C   UNL     1       0.003  -0.004   0.035  0.00  0.00    +0.008 A 
ATOM     10  C   UNL     1       1.290  -2.088  -0.020  0.00  0.00    +0.012 A 
ATOM     11  C   UNL     1       2.485  -2.734  -0.050  0.00  0.00    +0.046 A 
ATOM     12  C   UNL     1       3.696  -2.041  -0.058  0.00  0.00    +0.126 A 
ATOM     13  C   UNL     1       3.711  -0.646  -0.037  0.00  0.00    +0.040 A 
BRANCH  12  14
ATOM     14  O   UNL     1       4.865  -2.728  -0.088  0.00  0.00    -0.506 OA
ATOM     15  H   UNL     1       5.190  -2.913  -0.979  0.00  0.00    +0.292 HD
ENDBRANCH  12  14
ENDBRANCH   1  13
BRANCH   2  16
ATOM     16  C   UNL     1       7.366   0.187   0.139  0.00  0.00    +0.192 C 
BRANCH  16  17
ATOM     17  C   UNL     1       8.001  -0.085   1.478  0.00  0.00    +0.191 A 
ATOM     18  N   UNL     1       7.791   0.622   2.590  0.00  0.00    -0.187 NA
ATOM     19  C   UNL     1       8.499   0.119   3.582  0.00  0.00    +0.294 A 
ATOM     20  O   UNL     1       9.186  -0.937   3.107  0.00  0.00    -0.330 OA
ATOM     21  N   UNL     1       8.838  -1.050   1.735  0.00  0.00    -0.059 NA
BRANCH  19  22
ATOM     22  C   UNL     1       8.534   0.623   4.960  0.00  0.00    +0.192 A 
ATOM     23  C   UNL     1       9.272   0.105   5.985  0.00  0.00    +0.055 A 
ATOM     24  C   UNL     1       9.002   0.894   7.116  0.00  0.00    +0.042 A 
ATOM     25  C   UNL     1       8.123   1.846   6.736  0.00  0.00    +0.196 A 
ATOM     26  O   UNL     1       7.847   1.682   5.434  0.00  0.00    -0.458 OA
ENDBRANCH  19  22
ENDBRANCH  16  17
ENDBRANCH   2  16
TORSDOF 5
