REMARK  Name = ZINC10002059
REMARK  14 active torsions:
REMARK  status: ('A' for Active; 'I' for Inactive)
REMARK    1  A    between atoms: C_1  and  C_2
REMARK    2  A    between atoms: C_2  and  N_3
REMARK    3  A    between atoms: C_4  and  C_21
REMARK    4  A    between atoms: C_7  and  S_8
REMARK    5  A    between atoms: S_8  and  C_9
REMARK    6  A    between atoms: C_9  and  C_10
REMARK    7  A    between atoms: N_12  and  C_13
REMARK    8  A    between atoms: C_16  and  C_20
REMARK    9  A    between atoms: C_17  and  C_19
REMARK   10  A    between atoms: C_21  and  C_23
REMARK   11  A    between atoms: C_21  and  N_26
REMARK   12  A    between atoms: C_23  and  C_24
REMARK   13  A    between atoms: C_23  and  C_25
REMARK   14  A    between atoms: C_27  and  C_29
REMARK                            x       y       z     vdW  Elec       q    Type
REMARK                         _______ _______ _______ _____ _____    ______ ____
ROOT
ATOM      1  N   UNL     1      -0.261   0.419  -3.913  0.00  0.00    -0.305 N 
ATOM      2  C   UNL     1       0.911  -0.035  -4.451  0.00  0.00    +0.155 A 
ATOM      3  N   UNL     1       1.733  -0.252  -3.464  0.00  0.00    -0.132 NA
ATOM      4  N   UNL     1       1.167   0.037  -2.347  0.00  0.00    -0.122 NA
ATOM      5  C   UNL     1      -0.060   0.449  -2.563  0.00  0.00    +0.192 A 
ENDROOT
BRANCH   1   7
ATOM      6  C   UNL     1      -1.487   2.308  -4.869  0.00  0.00    +0.027 C 
ATOM      7  C   UNL     1      -1.479   0.795  -4.635  0.00  0.00    +0.122 C 
ENDBRANCH   1   7
BRANCH   5   8
ATOM      8  S   UNL     1      -1.226   0.953  -1.341  0.00  0.00    -0.077 S 
BRANCH   8   9
ATOM      9  C   UNL     1      -0.237   0.715   0.155  0.00  0.00    +0.173 C 
BRANCH   9  10
ATOM     10  C   UNL     1      -1.054   1.094   1.363  0.00  0.00    +0.227 C 
ATOM     11  O   UNL     1      -2.193   1.487   1.226  0.00  0.00    -0.275 OA
ATOM     12  N   UNL     1      -0.518   0.997   2.596  0.00  0.00    -0.285 N 
ATOM     13  H   UNL     1       0.413   0.747   2.703  0.00  0.00    +0.155 HD
BRANCH  12  14
ATOM     14  C   UNL     1      -1.306   1.256   3.724  0.00  0.00    +0.034 A 
ATOM     15  C   UNL     1      -2.277   2.249   3.681  0.00  0.00    +0.023 A 
ATOM     16  C   UNL     1      -3.057   2.498   4.793  0.00  0.00    +0.005 A 
ATOM     17  C   UNL     1      -2.864   1.769   5.952  0.00  0.00    -0.047 A 
ATOM     18  C   UNL     1      -1.894   0.785   6.000  0.00  0.00    -0.046 A 
ATOM     19  C   UNL     1      -1.115   0.526   4.889  0.00  0.00    +0.027 A 
ATOM     20  C   UNL     1      -1.687  -0.007   7.265  0.00  0.00    +0.044 C 
ATOM     21  C   UNL     1      -3.712   2.048   7.166  0.00  0.00    +0.044 C 
ENDBRANCH  12  14
ENDBRANCH   9  10
ENDBRANCH   8   9
ENDBRANCH   5   8
BRANCH   2  22
ATOM     22  C   UNL     1       1.199  -0.246  -5.916  0.00  0.00    +0.144 C 
BRANCH  22  23
ATOM     23  N   UNL     1       1.685  -1.612  -6.126  0.00  0.00    -0.301 N 
ATOM     24  C   UNL     1       1.535  -2.203  -7.328  0.00  0.00    +0.245 C 
ATOM     25  O   UNL     1       0.996  -1.602  -8.238  0.00  0.00    -0.270 OA
ATOM     26  H   UNL     1       2.114  -2.091  -5.400  0.00  0.00    +0.150 HD
BRANCH  24  27
ATOM     27  C   UNL     1       2.024  -3.579  -7.540  0.00  0.00    +0.040 A 
ATOM     28  C   UNL     1       2.648  -4.269  -6.498  0.00  0.00    +0.017 A 
ATOM     29  C   UNL     1       3.099  -5.556  -6.696  0.00  0.00    +0.050 A 
ATOM     30  C   UNL     1       2.946  -6.167  -7.933  0.00  0.00    +0.166 A 
ATOM     31  C   UNL     1       2.329  -5.481  -8.980  0.00  0.00    +0.167 A 
ATOM     32  C   UNL     1       1.869  -4.193  -8.786  0.00  0.00    +0.062 A 
ATOM     33  O   UNL     1       2.304  -6.294 -10.077  0.00  0.00    -0.453 OA
ATOM     34  C   UNL     1       3.273  -7.325  -9.813  0.00  0.00    +0.466 C 
ATOM     35  O   UNL     1       3.305  -7.405  -8.376  0.00  0.00    -0.453 OA
ENDBRANCH  24  27
ENDBRANCH  22  23
BRANCH  22  36
ATOM     36  C   UNL     1       2.265   0.751  -6.375  0.00  0.00    +0.011 C 
ATOM     37  C   UNL     1       2.486   0.604  -7.882  0.00  0.00    +0.009 C 
ATOM     38  C   UNL     1       1.800   2.175  -6.064  0.00  0.00    +0.009 C 
ENDBRANCH  22  36
ENDBRANCH   2  22
TORSDOF 9
