REMARK  Name = ZINC36500854
REMARK  13 active torsions:
REMARK  status: ('A' for Active; 'I' for Inactive)
REMARK    1  A    between atoms: C_1  and  C_2
REMARK    2  A    between atoms: C_3  and  C_4
REMARK    3  A    between atoms: C_4  and  C_6
REMARK    4  A    between atoms: C_4  and  N_20
REMARK    5  A    between atoms: N_8  and  C_9
REMARK    6  A    between atoms: C_9  and  S_10
REMARK    7  A    between atoms: S_10  and  C_13
REMARK    8  A    between atoms: C_16  and  C_19
REMARK    9  A    between atoms: N_20  and  C_21
REMARK   10  A    between atoms: C_21  and  C_22
REMARK   11  A    between atoms: C_27  and  C_29
REMARK   12  A    between atoms: C_33  and  O_36
REMARK   13  A    between atoms: C_34  and  O_35
REMARK                            x       y       z     vdW  Elec       q    Type
REMARK                         _______ _______ _______ _____ _____    ______ ____
ROOT
ATOM      1  C   UNL     1       1.775   0.507   1.302  0.00  0.00    +0.186 C 
ENDROOT
BRANCH   1   2
ATOM      2  C   UNL     1       0.856  -0.082   2.341  0.00  0.00    +0.239 C 
ATOM      3  O   UNL     1       0.148   0.644   3.006  0.00  0.00    -0.273 OA
ATOM      4  N   UNL     1       0.820  -1.416   2.531  0.00  0.00    -0.294 N 
ATOM      5  H   UNL     1       1.386  -1.997   1.999  0.00  0.00    +0.150 HD
BRANCH   4   6
ATOM      6  C   UNL     1      -0.073  -1.989   3.541  0.00  0.00    +0.278 C 
BRANCH   6   7
ATOM      7  S   UNL     1      -1.628  -2.495   2.756  0.00  0.00    +0.013 S 
ATOM      8  O   UNL     1      -2.481  -3.110   3.711  0.00  0.00    -0.168 OA
ATOM      9  O   UNL     1      -2.112  -1.457   1.914  0.00  0.00    -0.168 OA
BRANCH   7  10
ATOM     10  C   UNL     1      -1.177  -3.793   1.653  0.00  0.00    +0.090 A 
ATOM     11  C   UNL     1      -0.816  -3.501   0.352  0.00  0.00    +0.027 A 
ATOM     12  C   UNL     1      -0.462  -4.519  -0.513  0.00  0.00    +0.005 A 
ATOM     13  C   UNL     1      -0.469  -5.831  -0.076  0.00  0.00    -0.050 A 
ATOM     14  C   UNL     1      -0.829  -6.123   1.226  0.00  0.00    +0.005 A 
ATOM     15  C   UNL     1      -1.179  -5.104   2.092  0.00  0.00    +0.027 A 
ATOM     16  C   UNL     1      -0.084  -6.942  -1.019  0.00  0.00    +0.044 C 
ENDBRANCH   7  10
ENDBRANCH   6   7
ENDBRANCH   4   6
ENDBRANCH   1   2
BRANCH   1  19
ATOM     17  C   UNL     1       2.970  -0.693  -0.952  0.00  0.00    +0.035 C 
ATOM     18  C   UNL     1       1.655   0.029  -1.089  0.00  0.00    -0.032 C 
ATOM     19  C   UNL     1       1.073   0.536  -0.031  0.00  0.00    +0.000 C 
ENDBRANCH   1  19
BRANCH   1  20
ATOM     20  N   UNL     1       2.141   1.871   1.691  0.00  0.00    -0.275 N 
ATOM     21  C   UNL     1       2.963   2.075   2.740  0.00  0.00    +0.251 C 
ATOM     22  O   UNL     1       2.953   3.142   3.321  0.00  0.00    -0.270 OA
BRANCH  21  23
ATOM     23  C   UNL     1       3.873   1.002   3.183  0.00  0.00    +0.082 A 
ATOM     24  C   UNL     1       3.474  -0.336   3.105  0.00  0.00    +0.017 A 
ATOM     25  C   UNL     1       4.328  -1.335   3.519  0.00  0.00    +0.005 A 
ATOM     26  C   UNL     1       5.583  -1.022   4.015  0.00  0.00    +0.049 A 
ATOM     27  C   UNL     1       5.992   0.298   4.099  0.00  0.00    +0.159 A 
ATOM     28  C   UNL     1       5.144   1.318   3.679  0.00  0.00    +0.171 A 
BRANCH  28  29
ATOM     29  O   UNL     1       5.544   2.613   3.755  0.00  0.00    -0.503 OA
ATOM     30  H   UNL     1       5.327   3.043   4.594  0.00  0.00    +0.292 HD
ENDBRANCH  28  29
BRANCH  27  31
ATOM     31  O   UNL     1       7.226   0.597   4.588  0.00  0.00    -0.503 OA
ATOM     32  H   UNL     1       7.918   0.632   3.913  0.00  0.00    +0.292 HD
ENDBRANCH  27  31
ENDBRANCH  21  23
BRANCH  20  33
ATOM     33  C   UNL     1       1.615   3.013   0.940  0.00  0.00    +0.183 C 
BRANCH  33  34
ATOM     34  C   UNL     1       0.269   3.402   1.494  0.00  0.00    +0.122 A 
ATOM     35  C   UNL     1       0.044   4.350   2.422  0.00  0.00    +0.046 A 
ATOM     36  C   UNL     1      -1.351   4.381   2.646  0.00  0.00    +0.041 A 
ATOM     37  C   UNL     1      -1.896   3.451   1.841  0.00  0.00    +0.195 A 
ATOM     38  O   UNL     1      -0.910   2.865   1.142  0.00  0.00    -0.466 OA
ENDBRANCH  33  34
ENDBRANCH  20  33
ENDBRANCH   1  20
TORSDOF 11
