REMARK  Name = ZINC29355649
REMARK  5 active torsions:
REMARK  status: ('A' for Active; 'I' for Inactive)
REMARK    1  A    between atoms: C_5  and  N_7
REMARK    2  A    between atoms: C_8  and  C_10
REMARK    3  A    between atoms: C_10  and  S_11
REMARK    4  A    between atoms: S_11  and  C_12
REMARK    5  A    between atoms: N_17  and  C_18
REMARK                            x       y       z     vdW  Elec       q    Type
REMARK                         _______ _______ _______ _____ _____    ______ ____
ROOT
ATOM      1  S   UNL     1       1.265  -5.728   5.625  0.00  0.00    -0.088 S 
ENDROOT
BRANCH   1   2
ATOM      2  C   UNL     1       1.147  -4.395   4.480  0.00  0.00    +0.160 A 
ATOM      3  N   UNL     1       1.156  -3.095   4.706  0.00  0.00    -0.133 NA
ATOM      4  N   UNL     1       1.056  -2.217   3.652  0.00  0.00    -0.125 NA
ATOM      5  C   UNL     1       0.942  -2.677   2.422  0.00  0.00    +0.183 A 
ATOM      6  S   UNL     1       0.984  -4.441   2.701  0.00  0.00    -0.025 S 
ATOM      7  N   UNL     1       0.826  -1.978   1.226  0.00  0.00    -0.319 N 
ATOM      8  H   UNL     1       0.744  -2.524   0.275  0.00  0.00    +0.148 HD
BRANCH   7   9
ATOM      9  C   UNL     1       0.813  -0.513   1.233  0.00  0.00    +0.072 C 
ATOM     10  C   UNL     1       0.083  -0.003  -0.011  0.00  0.00    +0.022 C 
ATOM     11  C   UNL     1       0.069   1.526  -0.004  0.00  0.00    +0.002 C 
ATOM     12  C   UNL     1       1.507   2.049  -0.007  0.00  0.00    +0.000 C 
ATOM     13  C   UNL     1       2.238   1.540   1.237  0.00  0.00    +0.002 C 
ATOM     14  C   UNL     1       2.251   0.010   1.230  0.00  0.00    +0.022 C 
ENDBRANCH   7   9
ENDBRANCH   1   2
BRANCH   1  15
ATOM     15  C   UNL     1       1.406  -4.910   7.238  0.00  0.00    +0.172 C 
BRANCH  15  17
ATOM     16  N   UNL     1       1.630  -5.574   9.611  0.00  0.00    -0.284 N 
ATOM     17  C   UNL     1       1.515  -5.952   8.322  0.00  0.00    +0.227 C 
ATOM     18  O   UNL     1       1.500  -7.130   8.034  0.00  0.00    -0.275 OA
ATOM     19  H   UNL     1       1.719  -4.507   9.865  0.00  0.00    +0.155 HD
BRANCH  16  24
ATOM     20  C   UNL     1       2.237  -8.723  11.408  0.00  0.00    +0.002 A 
ATOM     21  C   UNL     1       1.650  -8.445  12.629  0.00  0.00    +0.001 A 
ATOM     22  C   UNL     1       1.056  -7.216  12.851  0.00  0.00    +0.016 A 
ATOM     23  C   UNL     1       1.048  -6.262  11.852  0.00  0.00    +0.035 A 
ATOM     24  C   UNL     1       1.637  -6.538  10.624  0.00  0.00    +0.047 A 
ATOM     25  C   UNL     1       2.228  -7.776  10.404  0.00  0.00    +0.024 A 
ATOM     26  I   UNL     1       0.148  -4.400  12.188  0.00  0.00    -0.042 I 
ENDBRANCH  16  24
ENDBRANCH  15  17
ENDBRANCH   1  15
TORSDOF 5
