REMARK  Name = ZINC06149442
REMARK  13 active torsions:
REMARK  status: ('A' for Active; 'I' for Inactive)
REMARK    1  A    between atoms: C_1  and  C_2
REMARK    2  A    between atoms: C_2  and  C_3
REMARK    3  A    between atoms: C_3  and  C_4
REMARK    4  A    between atoms: C_3  and  C_5
REMARK    5  A    between atoms: C_3  and  N_6
REMARK    6  A    between atoms: C_7  and  C_11
REMARK    7  A    between atoms: C_11  and  C_13
REMARK    8  A    between atoms: C_11  and  N_70
REMARK    9  A    between atoms: C_17  and  C_25
REMARK   10  A    between atoms: C_26  and  C_27
REMARK   11  A    between atoms: C_26  and  N_70
REMARK   12  A    between atoms: C_32  and  C_33
REMARK   13  A    between atoms: C_32  and  N_70
REMARK                            x       y       z     vdW  Elec       q    Type
REMARK                         _______ _______ _______ _____ _____    ______ ____
ROOT
ATOM      1  C   UNL     1       5.290  -2.662  -1.440  0.00  0.00    +0.039 C 
ENDROOT
BRANCH   1   2
ATOM      2  C   UNL     1       4.208  -1.831  -2.079  0.00  0.00    +0.011 A 
ATOM      3  C   UNL     1       3.032  -1.639  -1.431  0.00  0.00    +0.017 A 
ATOM      4  C   UNL     1       2.001  -0.826  -2.078  0.00  0.00    -0.001 A 
ATOM      5  C   UNL     1       0.768  -0.593  -1.459  0.00  0.00    +0.013 A 
ATOM      6  C   UNL     1      -0.173   0.170  -2.090  0.00  0.00    -0.050 A 
ATOM      7  C   UNL     1       0.083   0.717  -3.340  0.00  0.00    +0.005 A 
ATOM      8  C   UNL     1       1.290   0.501  -3.968  0.00  0.00    +0.026 A 
ATOM      9  C   UNL     1       2.264  -0.273  -3.346  0.00  0.00    +0.049 A 
ATOM     10  N   UNL     1       3.481  -0.505  -3.951  0.00  0.00    -0.322 N 
ATOM     11  H   UNL     1       3.666  -0.112  -4.851  0.00  0.00    +0.169 HD
ATOM     12  C   UNL     1       4.421  -1.253  -3.349  0.00  0.00    +0.251 A 
ATOM     13  O   UNL     1       5.485  -1.438  -3.914  0.00  0.00    -0.268 OA
ATOM     14  C   UNL     1      -1.501   0.420  -1.422  0.00  0.00    +0.044 C 
ENDBRANCH   1   2
BRANCH   1  16
ATOM     15  N   UNL     1       5.346  -2.575   1.108  0.00  0.00    -0.225 N 
ATOM     16  C   UNL     1       4.864  -3.061  -0.051  0.00  0.00    +0.143 A 
ATOM     17  N   UNL     1       3.955  -3.952   0.264  0.00  0.00    -0.115 NA
ATOM     18  N   UNL     1       3.880  -4.007   1.549  0.00  0.00    -0.023 NA
ATOM     19  N   UNL     1       4.716  -3.174   2.062  0.00  0.00    -0.043 NA
BRANCH  15  20
ATOM     20  C   UNL     1       6.387  -1.555   1.258  0.00  0.00    +0.061 C 
ATOM     21  C   UNL     1       7.697  -2.073   0.661  0.00  0.00    +0.036 C 
ATOM     22  C   UNL     1       5.961  -0.281   0.527  0.00  0.00    +0.036 C 
BRANCH  20  24
ATOM     23  C   UNL     1       7.677  -0.183   2.900  0.00  0.00    +0.006 C 
ATOM     24  C   UNL     1       6.589  -1.248   2.743  0.00  0.00    +0.026 C 
ENDBRANCH  20  24
ENDBRANCH  15  20
ENDBRANCH   1  16
BRANCH   1  25
ATOM     25  N   UNL     1       5.530  -3.860  -2.272  0.00  0.00    +0.396 N 
ATOM     26  H   UNL     1       5.859  -3.562  -3.198  0.00  0.00    -0.080 HD
BRANCH  25  27
ATOM     27  C   UNL     1       6.564  -4.711  -1.646  0.00  0.00    -0.002 C 
BRANCH  27  28
ATOM     28  C   UNL     1       7.063  -5.698  -2.670  0.00  0.00    +0.089 A 
ATOM     29  C   UNL     1       8.095  -5.504  -3.511  0.00  0.00    +0.042 A 
ATOM     30  C   UNL     1       8.214  -6.678  -4.291  0.00  0.00    +0.041 A 
ATOM     31  C   UNL     1       7.247  -7.518  -3.880  0.00  0.00    +0.195 A 
ATOM     32  O   UNL     1       6.557  -6.921  -2.895  0.00  0.00    -0.470 OA
ENDBRANCH  27  28
ENDBRANCH  25  27
BRANCH  25  33
ATOM     33  C   UNL     1       4.275  -4.624  -2.431  0.00  0.00    -0.045 C 
BRANCH  33  34
ATOM     34  C   UNL     1       3.488  -4.033  -3.603  0.00  0.00    +0.102 C 
ATOM     35  C   UNL     1       2.203  -4.851  -3.855  0.00  0.00    +0.032 C 
ATOM     36  C   UNL     1       2.058  -4.857  -5.394  0.00  0.00    +0.030 C 
ATOM     37  C   UNL     1       3.273  -4.042  -5.888  0.00  0.00    +0.160 C 
ATOM     38  O   UNL     1       4.246  -4.149  -4.827  0.00  0.00    -0.378 OA
ENDBRANCH  33  34
ENDBRANCH  25  33
ENDBRANCH   1  25
TORSDOF 9
