REMARK  Name = ZINC35818042
REMARK  14 active torsions:
REMARK  status: ('A' for Active; 'I' for Inactive)
REMARK    1  A    between atoms: C_1  and  C_2
REMARK    2  A    between atoms: C_6  and  N_8
REMARK    3  A    between atoms: C_9  and  O_24
REMARK    4  A    between atoms: C_10  and  C_14
REMARK    5  A    between atoms: C_11  and  C_13
REMARK    6  A    between atoms: C_14  and  C_15
REMARK    7  A    between atoms: C_15  and  C_16
REMARK    8  A    between atoms: N_18  and  C_19
REMARK    9  A    between atoms: C_19  and  C_20
REMARK   10  A    between atoms: C_20  and  N_21
REMARK   11  A    between atoms: N_21  and  C_22
REMARK   12  A    between atoms: N_21  and  C_23
REMARK   13  A    between atoms: O_24  and  C_25
REMARK   14  A    between atoms: C_30  and  C_31
REMARK                            x       y       z     vdW  Elec       q    Type
REMARK                         _______ _______ _______ _____ _____    ______ ____
ROOT
ATOM      1  N   UNL     1       0.174  -2.894   2.347  0.00  0.00    -0.200 N 
ATOM      2  C   UNL     1      -0.635  -3.941   2.660  0.00  0.00    +0.227 A 
ATOM      3  C   UNL     1      -0.469  -4.204   3.984  0.00  0.00    +0.038 A 
ATOM      4  C   UNL     1       0.465  -3.294   4.489  0.00  0.00    +0.067 A 
ATOM      5  N   UNL     1       0.854  -2.515   3.512  0.00  0.00    -0.168 NA
ATOM      6  C   UNL     1       0.946  -3.227   5.915  0.00  0.00    +0.068 C 
ENDROOT
BRANCH   1  12
ATOM      7  C   UNL     1       0.613   1.156  -0.408  0.00  0.00    +0.044 C 
ATOM      8  C   UNL     1       0.524  -0.343  -0.281  0.00  0.00    -0.048 A 
ATOM      9  C   UNL     1       0.576  -1.137  -1.411  0.00  0.00    +0.003 A 
ATOM     10  C   UNL     1       0.495  -2.513  -1.298  0.00  0.00    +0.002 A 
ATOM     11  C   UNL     1       0.361  -3.098  -0.054  0.00  0.00    +0.028 A 
ATOM     12  C   UNL     1       0.309  -2.303   1.083  0.00  0.00    +0.069 A 
ATOM     13  C   UNL     1       0.397  -0.922   0.967  0.00  0.00    +0.031 A 
ENDBRANCH   1  12
BRANCH   3  14
ATOM     14  C   UNL     1      -1.168  -5.285   4.768  0.00  0.00    +0.051 C 
BRANCH  14  15
ATOM     15  C   UNL     1      -0.339  -6.570   4.716  0.00  0.00    +0.100 C 
BRANCH  15  16
ATOM     16  C   UNL     1      -1.038  -7.651   5.500  0.00  0.00    +0.213 C 
ATOM     17  O   UNL     1      -2.095  -7.416   6.046  0.00  0.00    -0.276 OA
ATOM     18  N   UNL     1      -0.488  -8.877   5.595  0.00  0.00    -0.317 N 
ATOM     19  H   UNL     1       0.358  -9.065   5.159  0.00  0.00    +0.149 HD
BRANCH  18  20
ATOM     20  C   UNL     1      -1.167  -9.928   6.357  0.00  0.00    +0.085 C 
BRANCH  20  21
ATOM     21  C   UNL     1      -0.338 -11.213   6.306  0.00  0.00    -0.061 C 
BRANCH  21  22
ATOM     22  N   UNL     1      -1.020 -12.266   7.070  0.00  0.00    +0.377 N 
ATOM     23  C   UNL     1      -2.292 -12.599   6.417  0.00  0.00    -0.097 C 
ATOM     24  C   UNL     1      -0.168 -13.462   7.122  0.00  0.00    -0.097 C 
ATOM     25  H   UNL     1      -1.198 -11.939   8.008  0.00  0.00    -0.083 HD
ENDBRANCH  21  22
ENDBRANCH  20  21
ENDBRANCH  18  20
ENDBRANCH  15  16
ENDBRANCH  14  15
ENDBRANCH   3  14
BRANCH   2  26
ATOM     26  O   UNL     1      -1.458  -4.602   1.807  0.00  0.00    -0.437 OA
BRANCH  26  27
ATOM     27  C   UNL     1      -2.722  -4.131   1.646  0.00  0.00    +0.133 A 
ATOM     28  C   UNL     1      -3.105  -2.945   2.259  0.00  0.00    +0.046 A 
ATOM     29  C   UNL     1      -4.391  -2.468   2.094  0.00  0.00    +0.004 A 
ATOM     30  C   UNL     1      -5.296  -3.170   1.319  0.00  0.00    +0.000 A 
ATOM     31  C   UNL     1      -4.917  -4.351   0.708  0.00  0.00    +0.007 A 
ATOM     32  C   UNL     1      -3.631  -4.830   0.865  0.00  0.00    -0.008 A 
ATOM     33  C   UNL     1      -3.217  -6.114   0.194  0.00  0.00    +0.047 C 
ENDBRANCH  26  27
ENDBRANCH   2  26
TORSDOF 9
