REMARK  Name = ZINC46949426
REMARK  9 active torsions:
REMARK  status: ('A' for Active; 'I' for Inactive)
REMARK    1  A    between atoms: C_1  and  C_2
REMARK    2  A    between atoms: N_10  and  C_14
REMARK    3  A    between atoms: C_14  and  C_15
REMARK    4  A    between atoms: N_17  and  C_18
REMARK    5  A    between atoms: C_18  and  C_19
REMARK    6  A    between atoms: C_19  and  C_21
REMARK    7  A    between atoms: C_19  and  N_27
REMARK    8  A    between atoms: N_27  and  C_28
REMARK    9  A    between atoms: N_27  and  C_29
REMARK                            x       y       z     vdW  Elec       q    Type
REMARK                         _______ _______ _______ _____ _____    ______ ____
ROOT
ATOM      1  C   UNL     1       3.235  -6.402  -1.371  0.00  0.00    +0.231 C 
ATOM      2  O   UNL     1       3.060  -5.561  -2.228  0.00  0.00    -0.274 OA
ATOM      3  N   UNL     1       3.745  -7.604  -1.702  0.00  0.00    -0.316 N 
ATOM      4  H   UNL     1       3.886  -8.276  -1.016  0.00  0.00    +0.149 HD
ENDROOT
BRANCH   1   5
ATOM      5  C   UNL     1       2.882  -6.101   0.062  0.00  0.00    +0.213 C 
BRANCH   5  15
ATOM      6  C   UNL     1      -0.529   1.119   0.506  0.00  0.00    +0.007 C 
ATOM      7  C   UNL     1      -0.489  -0.401   0.330  0.00  0.00    -0.014 C 
ATOM      8  C   UNL     1       0.390  -0.751  -0.873  0.00  0.00    +0.006 C 
ATOM      9  C   UNL     1       0.420  -2.271  -1.055  0.00  0.00    +0.035 C 
ATOM     10  C   UNL     1       0.972  -2.925   0.207  0.00  0.00    +0.113 C 
ATOM     11  C   UNL     1       0.118  -2.566   1.418  0.00  0.00    +0.035 C 
ATOM     12  C   UNL     1       0.089  -1.045   1.591  0.00  0.00    +0.006 C 
ATOM     13  C   UNL     1       1.044  -4.425   0.037  0.00  0.00    +0.247 C 
ATOM     14  O   UNL     1       0.122  -5.185  -0.166  0.00  0.00    -0.273 OA
ATOM     15  N   UNL     1       2.350  -4.739   0.159  0.00  0.00    -0.215 N 
ATOM     16  C   UNL     1       3.100  -3.652   0.380  0.00  0.00    +0.310 C 
ATOM     17  O   UNL     1       4.307  -3.682   0.524  0.00  0.00    -0.252 OA
ATOM     18  N   UNL     1       2.368  -2.523   0.425  0.00  0.00    -0.285 N 
ATOM     19  H   UNL     1       2.697  -1.623   0.572  0.00  0.00    +0.151 HD
ENDBRANCH   5  15
ENDBRANCH   1   5
BRANCH   3  20
ATOM     20  C   UNL     1       4.089  -7.897  -3.095  0.00  0.00    +0.089 C 
BRANCH  20  21
ATOM     21  C   UNL     1       4.782  -9.258  -3.175  0.00  0.00    -0.049 C 
BRANCH  21  22
ATOM     22  C   UNL     1       6.169  -9.162  -2.537  0.00  0.00    -0.023 C 
ATOM     23  C   UNL     1       6.026  -8.798  -1.058  0.00  0.00    +0.002 C 
ATOM     24  C   UNL     1       7.413  -8.702  -0.419  0.00  0.00    +0.000 C 
ATOM     25  C   UNL     1       8.229  -7.623  -1.133  0.00  0.00    +0.000 C 
ATOM     26  C   UNL     1       8.373  -7.987  -2.612  0.00  0.00    +0.000 C 
ATOM     27  C   UNL     1       6.986  -8.084  -3.251  0.00  0.00    +0.002 C 
ENDBRANCH  21  22
BRANCH  21  28
ATOM     28  N   UNL     1       3.981 -10.259  -2.457  0.00  0.00    +0.379 N 
ATOM     29  C   UNL     1       2.616 -10.275  -3.001  0.00  0.00    -0.096 C 
ATOM     30  C   UNL     1       4.590 -11.585  -2.623  0.00  0.00    -0.096 C 
ATOM     31  H   UNL     1       3.949 -10.023  -1.476  0.00  0.00    -0.082 HD
ENDBRANCH  21  28
ENDBRANCH  20  21
ENDBRANCH   3  20
TORSDOF 6
