REMARK  Name = ZINC32842128
REMARK  4 active torsions:
REMARK  status: ('A' for Active; 'I' for Inactive)
REMARK    1  A    between atoms: C_1  and  N_2
REMARK    2  A    between atoms: N_2  and  C_3
REMARK    3  A    between atoms: C_8  and  C_10
REMARK    4  A    between atoms: N_15  and  C_17
REMARK                            x       y       z     vdW  Elec       q    Type
REMARK                         _______ _______ _______ _____ _____    ______ ____
ROOT
ATOM      1  C   UNL     1      -0.775   1.603   1.248  0.00  0.00    +0.101 C 
ATOM      2  C   UNL     1      -2.205   1.785   0.683  0.00  0.00    +0.110 C 
ATOM      3  C   UNL     1      -1.996   1.984  -0.801  0.00  0.00    +0.217 C 
ATOM      4  O   UNL     1      -2.823   2.435  -1.565  0.00  0.00    -0.276 OA
ATOM      5  N   UNL     1      -0.759   1.590  -1.151  0.00  0.00    -0.298 N 
ATOM      6  C   UNL     1      -0.013   1.086   0.008  0.00  0.00    +0.121 C 
ENDROOT
BRANCH   5   7
ATOM      7  C   UNL     1      -0.225   1.655  -2.514  0.00  0.00    +0.076 C 
ATOM      8  C   UNL     1      -0.292   3.103  -3.039  0.00  0.00    +0.022 C 
ATOM      9  C   UNL     1      -0.652   2.948  -4.537  0.00  0.00    +0.002 C 
ATOM     10  C   UNL     1      -1.652   1.764  -4.527  0.00  0.00    +0.002 C 
ATOM     11  C   UNL     1      -1.089   0.803  -3.460  0.00  0.00    +0.022 C 
ENDBRANCH   5   7
BRANCH   1  14
ATOM     12  C   UNL     1      -1.868   2.926   3.503  0.00  0.00    +0.132 C 
ATOM     13  N   UNL     1      -0.740   3.535   2.793  0.00  0.00    -0.301 N 
ATOM     14  C   UNL     1      -0.209   2.918   1.719  0.00  0.00    +0.221 C 
ATOM     15  O   UNL     1       0.725   3.422   1.131  0.00  0.00    -0.275 OA
BRANCH  13  16
ATOM     16  C   UNL     1      -0.190   4.813   3.251  0.00  0.00    +0.076 C 
ATOM     17  C   UNL     1       0.274   4.694   4.717  0.00  0.00    +0.022 C 
ATOM     18  C   UNL     1      -0.089   6.065   5.342  0.00  0.00    +0.002 C 
ATOM     19  C   UNL     1      -1.444   6.400   4.670  0.00  0.00    +0.002 C 
ATOM     20  C   UNL     1      -1.282   5.897   3.221  0.00  0.00    +0.022 C 
ENDBRANCH  13  16
ENDBRANCH   1  14
TORSDOF 3
