REMARK  Name = ZINC15957499
REMARK  5 active torsions:
REMARK  status: ('A' for Active; 'I' for Inactive)
REMARK    1  A    between atoms: C_1  and  C_2
REMARK    2  A    between atoms: C_7  and  C_8
REMARK    3  A    between atoms: C_17  and  C_20
REMARK    4  A    between atoms: C_20  and  C_21
REMARK    5  A    between atoms: N_29  and  C_32
REMARK                            x       y       z     vdW  Elec       q    Type
REMARK                         _______ _______ _______ _____ _____    ______ ____
ROOT
ATOM      1  C   UNL     1      -0.018   1.503   0.010  0.00  0.00    +0.044 C 
ATOM      2  C   UNL     1       0.002  -0.004   0.002  0.00  0.00    -0.046 A 
ATOM      3  C   UNL     1       0.006  -0.685  -1.202  0.00  0.00    +0.004 A 
ATOM      4  C   UNL     1       0.024  -2.069  -1.209  0.00  0.00    +0.008 A 
ATOM      5  C   UNL     1       0.039  -2.765  -0.021  0.00  0.00    +0.004 A 
ATOM      6  C   UNL     1       0.035  -2.090   1.196  0.00  0.00    +0.042 A 
ATOM      7  C   UNL     1       0.023  -0.697   1.195  0.00  0.00    -0.026 A 
ATOM      8  C   UNL     1       0.026   0.056   2.500  0.00  0.00    +0.046 C 
ATOM      9  N   UNL     1       0.051  -3.001   2.254  0.00  0.00    -0.283 N 
ATOM     10  C   UNL     1       0.063  -4.278   1.824  0.00  0.00    +0.243 C 
ATOM     11  O   UNL     1       0.076  -5.275   2.515  0.00  0.00    -0.273 OA
ATOM     12  C   UNL     1       0.058  -4.228   0.321  0.00  0.00    +0.136 C 
ATOM     13  C   UNL     1      -1.159  -4.956  -0.261  0.00  0.00    +0.122 C 
ATOM     14  C   UNL     1      -0.621  -6.359  -0.659  0.00  0.00    +0.107 C 
ATOM     15  C   UNL     1       0.866  -6.346  -0.245  0.00  0.00    +0.072 C 
ATOM     16  N   UNL     1       1.242  -4.900  -0.245  0.00  0.00    -0.295 NA
ATOM     17  C   UNL     1      -0.735  -6.363  -2.166  0.00  0.00    +0.227 C 
ATOM     18  O   UNL     1      -0.410  -7.279  -2.891  0.00  0.00    -0.275 OA
ATOM     19  N   UNL     1      -1.252  -5.199  -2.576  0.00  0.00    -0.238 N 
ATOM     20  C   UNL     1      -1.542  -4.327  -1.582  0.00  0.00    +0.228 C 
ATOM     21  O   UNL     1      -2.024  -3.223  -1.718  0.00  0.00    -0.275 OA
ATOM     22  H   UNL     1       0.053  -2.745   3.189  0.00  0.00    +0.155 HD
ATOM     23  H   UNL     1       1.436  -4.567  -1.177  0.00  0.00    +0.124 HD
ENDROOT
BRANCH  19  24
ATOM     24  C   UNL     1      -1.492  -4.892  -3.988  0.00  0.00    +0.084 C 
ATOM     25  C   UNL     1      -2.536  -5.882  -4.544  0.00  0.00    +0.023 C 
ATOM     26  C   UNL     1      -3.153  -5.283  -5.779  0.00  0.00    +0.002 C 
ATOM     27  C   UNL     1      -2.450  -5.743  -7.070  0.00  0.00    +0.000 C 
ATOM     28  C   UNL     1      -0.915  -5.774  -6.937  0.00  0.00    +0.000 C 
ATOM     29  C   UNL     1      -0.378  -4.581  -6.194  0.00  0.00    +0.002 C 
ATOM     30  C   UNL     1      -0.228  -4.957  -4.706  0.00  0.00    +0.023 C 
ENDBRANCH  19  24
BRANCH  15  31
ATOM     31  C   UNL     1       1.711  -7.102  -1.272  0.00  0.00    +0.054 C 
BRANCH  31  32
ATOM     32  C   UNL     1       3.136  -7.183  -0.788  0.00  0.00    -0.046 A 
ATOM     33  C   UNL     1       4.035  -6.186  -1.118  0.00  0.00    +0.004 A 
ATOM     34  C   UNL     1       5.342  -6.260  -0.674  0.00  0.00    +0.000 A 
ATOM     35  C   UNL     1       5.750  -7.330   0.099  0.00  0.00    +0.000 A 
ATOM     36  C   UNL     1       4.851  -8.326   0.430  0.00  0.00    +0.000 A 
ATOM     37  C   UNL     1       3.542  -8.250  -0.010  0.00  0.00    +0.004 A 
ENDBRANCH  31  32
ENDBRANCH  15  31
TORSDOF 3
