REMARK  Name = ZINC43224047
REMARK  16 active torsions:
REMARK  status: ('A' for Active; 'I' for Inactive)
REMARK    1  A    between atoms: C_1  and  C_2
REMARK    2  A    between atoms: C_2  and  C_3
REMARK    3  A    between atoms: C_3  and  C_4
REMARK    4  A    between atoms: C_4  and  N_5
REMARK    5  A    between atoms: C_6  and  C_28
REMARK    6  A    between atoms: C_7  and  C_25
REMARK    7  A    between atoms: C_9  and  C_10
REMARK    8  A    between atoms: C_12  and  C_21
REMARK    9  A    between atoms: C_13  and  O_20
REMARK   10  A    between atoms: C_14  and  C_16
REMARK   11  A    between atoms: C_16  and  C_17
REMARK   12  A    between atoms: C_16  and  C_18
REMARK   13  A    between atoms: C_16  and  C_19
REMARK   14  A    between atoms: C_21  and  C_22
REMARK   15  A    between atoms: C_21  and  C_23
REMARK   16  A    between atoms: C_21  and  C_24
REMARK                            x       y       z     vdW  Elec       q    Type
REMARK                         _______ _______ _______ _____ _____    ______ ____
ROOT
ATOM      1  C   UNL     1       4.221  -2.496  -1.177  0.00  0.00    -0.001 A 
ATOM      2  C   UNL     1       3.942  -2.034   0.110  0.00  0.00    +0.017 A 
ATOM      3  C   UNL     1       4.976  -1.718   0.967  0.00  0.00    +0.000 A 
ATOM      4  C   UNL     1       6.292  -1.860   0.550  0.00  0.00    +0.124 A 
ATOM      5  C   UNL     1       6.574  -2.319  -0.730  0.00  0.00    +0.000 A 
ATOM      6  C   UNL     1       5.546  -2.642  -1.590  0.00  0.00    +0.017 A 
ENDROOT
BRANCH   1  11
ATOM      7  N   UNL     1       3.193  -2.865  -3.469  0.00  0.00    -0.343 N 
ATOM      8  C   UNL     1       1.995  -3.220  -3.975  0.00  0.00    +0.028 A 
ATOM      9  C   UNL     1       1.124  -3.418  -2.926  0.00  0.00    +0.057 A 
ATOM     10  C   UNL     1       1.850  -3.165  -1.733  0.00  0.00    +0.041 A 
ATOM     11  C   UNL     1       3.115  -2.835  -2.099  0.00  0.00    +0.050 A 
ATOM     12  C   UNL     1       1.665  -3.375  -5.438  0.00  0.00    +0.064 C 
BRANCH   9  13
ATOM     13  C   UNL     1      -0.291  -3.816  -3.023  0.00  0.00    +0.243 C 
ATOM     14  O   UNL     1      -0.796  -4.003  -4.114  0.00  0.00    -0.270 OA
ATOM     15  N   UNL     1      -1.026  -3.973  -1.905  0.00  0.00    -0.325 N 
ATOM     16  H   UNL     1      -0.623  -3.824  -1.035  0.00  0.00    +0.145 HD
ATOM     17  H   UNL     1      -1.957  -4.235  -1.969  0.00  0.00    +0.145 HD
ENDBRANCH   9  13
BRANCH   7  18
ATOM     18  C   UNL     1       4.391  -2.565  -4.257  0.00  0.00    +0.122 C 
BRANCH  18  19
ATOM     19  C   UNL     1       5.112  -3.869  -4.605  0.00  0.00    +0.021 C 
BRANCH  19  21
ATOM     20  C   UNL     1       7.045  -4.864  -5.838  0.00  0.00    +0.004 C 
ATOM     21  C   UNL     1       6.286  -3.569  -5.540  0.00  0.00    -0.002 C 
ENDBRANCH  19  21
ENDBRANCH  18  19
ENDBRANCH   7  18
ENDBRANCH   1  11
BRANCH   5  22
ATOM     22  C   UNL     1       8.005  -2.471  -1.177  0.00  0.00    -0.009 C 
ATOM     23  C   UNL     1       8.037  -2.946  -2.631  0.00  0.00    +0.015 C 
ATOM     24  C   UNL     1       8.720  -1.123  -1.065  0.00  0.00    +0.015 C 
ATOM     25  C   UNL     1       8.711  -3.497  -0.289  0.00  0.00    +0.015 C 
ENDBRANCH   5  22
BRANCH   3  26
ATOM     26  C   UNL     1       4.676  -1.218   2.356  0.00  0.00    -0.009 C 
ATOM     27  C   UNL     1       3.162  -1.077   2.532  0.00  0.00    +0.015 C 
ATOM     28  C   UNL     1       5.218  -2.214   3.384  0.00  0.00    +0.015 C 
ATOM     29  C   UNL     1       5.342   0.143   2.564  0.00  0.00    +0.015 C 
ENDBRANCH   3  26
BRANCH   4  30
ATOM     30  O   UNL     1       7.308  -1.548   1.397  0.00  0.00    -0.506 OA
ATOM     31  H   UNL     1       7.608  -2.289   1.942  0.00  0.00    +0.292 HD
ENDBRANCH   4  30
TORSDOF 8
