REMARK  Name = ZINC05902355
REMARK  6 active torsions:
REMARK  status: ('A' for Active; 'I' for Inactive)
REMARK    1  A    between atoms: C_1  and  C_2
REMARK    2  A    between atoms: C_2  and  N_3
REMARK    3  A    between atoms: C_11  and  S_12
REMARK    4  A    between atoms: S_12  and  C_13
REMARK    5  A    between atoms: C_13  and  C_14
REMARK    6  A    between atoms: C_14  and  C_16
REMARK                            x       y       z     vdW  Elec       q    Type
REMARK                         _______ _______ _______ _____ _____    ______ ____
ROOT
ATOM      1  S   UNL     1       7.173   3.759  -0.047  0.00  0.00    -0.080 S 
ENDROOT
BRANCH   1  10
ATOM      2  N   UNL     1       9.002   5.854  -0.053  0.00  0.00    -0.319 N 
ATOM      3  C   UNL     1       8.992   7.239  -0.046  0.00  0.00    +0.069 A 
ATOM      4  C   UNL     1       9.985   8.208  -0.050  0.00  0.00    +0.028 A 
ATOM      5  C   UNL     1       9.640   9.544  -0.039  0.00  0.00    +0.002 A 
ATOM      6  C   UNL     1       8.307   9.926  -0.024  0.00  0.00    +0.002 A 
ATOM      7  C   UNL     1       7.309   8.978  -0.020  0.00  0.00    +0.030 A 
ATOM      8  C   UNL     1       7.641   7.620  -0.031  0.00  0.00    +0.090 A 
ATOM      9  N   UNL     1       6.903   6.479  -0.035  0.00  0.00    -0.222 NA
ATOM     10  C   UNL     1       7.700   5.440  -0.043  0.00  0.00    +0.170 A 
BRANCH   2  12
ATOM     11  C   UNL     1      10.586   4.702  -1.518  0.00  0.00    +0.027 C 
ATOM     12  C   UNL     1      10.188   4.994  -0.070  0.00  0.00    +0.121 C 
ENDBRANCH   2  12
ENDBRANCH   1  10
BRANCH   1  13
ATOM     13  C   UNL     1       5.378   3.992  -0.028  0.00  0.00    +0.160 C 
BRANCH  13  14
ATOM     14  C   UNL     1       4.696   2.648  -0.029  0.00  0.00    +0.208 C 
ATOM     15  O   UNL     1       5.359   1.632  -0.041  0.00  0.00    -0.288 OA
BRANCH  14  16
ATOM     16  C   UNL     1       3.281   2.572  -0.015  0.00  0.00    +0.172 A 
ATOM     17  C   UNL     1       2.555   1.419  -0.015  0.00  0.00    +0.061 A 
ATOM     18  C   UNL     1       1.188   1.794   0.000  0.00  0.00    +0.021 A 
ATOM     19  C   UNL     1      -0.013   1.076   0.008  0.00  0.00    +0.011 A 
ATOM     20  C   UNL     1      -1.203   1.745   0.017  0.00  0.00    +0.001 A 
ATOM     21  C   UNL     1      -1.231   3.133   0.031  0.00  0.00    +0.004 A 
ATOM     22  C   UNL     1      -0.060   3.860   0.024  0.00  0.00    +0.047 A 
ATOM     23  C   UNL     1       1.163   3.202   0.008  0.00  0.00    +0.136 A 
ATOM     24  O   UNL     1       2.441   3.631  -0.002  0.00  0.00    -0.452 OA
ENDBRANCH  14  16
ENDBRANCH  13  14
ENDBRANCH   1  13
TORSDOF 5
