REMARK  Name = ZINC09861039
REMARK  10 active torsions:
REMARK  status: ('A' for Active; 'I' for Inactive)
REMARK    1  A    between atoms: C_4  and  C_7
REMARK    2  A    between atoms: C_7  and  C_8
REMARK    3  A    between atoms: C_7  and  C_29
REMARK    4  A    between atoms: C_8  and  N_9
REMARK    5  A    between atoms: C_13  and  N_60
REMARK    6  A    between atoms: C_17  and  C_18
REMARK    7  A    between atoms: C_17  and  N_60
REMARK    8  A    between atoms: C_18  and  C_19
REMARK    9  A    between atoms: C_22  and  S_25
REMARK   10  A    between atoms: S_25  and  N_28
REMARK                            x       y       z     vdW  Elec       q    Type
REMARK                         _______ _______ _______ _____ _____    ______ ____
ROOT
ATOM      1  N   UNL     1       1.948   1.730  -1.305  0.00  0.00    -0.243 N 
ATOM      2  C   UNL     1       2.981   0.880  -1.275  0.00  0.00    +0.221 C 
ATOM      3  O   UNL     1       3.382   0.296  -0.292  0.00  0.00    -0.275 OA
ATOM      4  C   UNL     1       3.567   0.761  -2.665  0.00  0.00    +0.090 C 
ATOM      5  C   UNL     1       2.691   1.708  -3.510  0.00  0.00    +0.025 C 
ATOM      6  C   UNL     1       1.697   2.258  -2.509  0.00  0.00    +0.208 C 
ATOM      7  O   UNL     1       0.815   3.050  -2.759  0.00  0.00    -0.277 OA
ENDROOT
BRANCH   5   8
ATOM      8  N   UNL     1       1.996   0.956  -4.572  0.00  0.00    +0.387 N 
ATOM      9  H   UNL     1       1.170   0.493  -4.174  0.00  0.00    -0.085 HD
ATOM     10  H   UNL     1       2.632   0.248  -4.957  0.00  0.00    -0.085 HD
BRANCH   8  11
ATOM     11  C   UNL     1       1.571   1.867  -5.651  0.00  0.00    -0.077 C 
BRANCH  11  12
ATOM     12  C   UNL     1       0.855   1.060  -6.736  0.00  0.00    +0.016 C 
BRANCH  12  13
ATOM     13  C   UNL     1       0.418   1.984  -7.843  0.00  0.00    -0.049 A 
ATOM     14  C   UNL     1      -0.829   2.579  -7.795  0.00  0.00    +0.005 A 
ATOM     15  C   UNL     1      -1.229   3.430  -8.807  0.00  0.00    +0.029 A 
ATOM     16  C   UNL     1      -0.385   3.679  -9.874  0.00  0.00    +0.105 A 
ATOM     17  C   UNL     1       0.860   3.081  -9.925  0.00  0.00    +0.029 A 
ATOM     18  C   UNL     1       1.261   2.233  -8.909  0.00  0.00    +0.005 A 
BRANCH  16  19
ATOM     19  S   UNL     1      -0.897   4.759 -11.169  0.00  0.00    +0.056 S 
ATOM     20  O   UNL     1      -1.885   5.618 -10.615  0.00  0.00    -0.153 OA
ATOM     21  O   UNL     1       0.288   5.253 -11.778  0.00  0.00    -0.153 OA
BRANCH  19  22
ATOM     22  N   UNL     1      -1.662   3.830 -12.307  0.00  0.00    -0.204 NA
ATOM     23  H   UNL     1      -1.751   2.874 -12.173  0.00  0.00    +0.144 HD
ATOM     24  H   UNL     1      -2.022   4.243 -13.108  0.00  0.00    +0.144 HD
ENDBRANCH  19  22
ENDBRANCH  16  19
ENDBRANCH  12  13
ENDBRANCH  11  12
ENDBRANCH   8  11
ENDBRANCH   5   8
BRANCH   1  25
ATOM     25  C   UNL     1       1.159   2.062  -0.115  0.00  0.00    +0.129 C 
BRANCH  25  26
ATOM     26  C   UNL     1      -0.013   1.086   0.008  0.00  0.00    +0.067 C 
BRANCH  26  30
ATOM     27  C   UNL     1      -2.668   1.627  -3.294  0.00  0.00    +0.000 A 
ATOM     28  C   UNL     1      -2.352   2.697  -2.479  0.00  0.00    +0.000 A 
ATOM     29  C   UNL     1      -1.493   2.522  -1.410  0.00  0.00    +0.004 A 
ATOM     30  C   UNL     1      -0.950   1.277  -1.157  0.00  0.00    -0.038 A 
ATOM     31  C   UNL     1      -1.261   0.207  -1.975  0.00  0.00    +0.004 A 
ATOM     32  C   UNL     1      -2.124   0.381  -3.042  0.00  0.00    +0.000 A 
ENDBRANCH  26  30
BRANCH  26  33
ATOM     33  C   UNL     1      -0.752   1.348   1.295  0.00  0.00    -0.038 A 
ATOM     34  C   UNL     1      -1.154   2.632   1.612  0.00  0.00    +0.004 A 
ATOM     35  C   UNL     1      -1.835   2.872   2.791  0.00  0.00    +0.000 A 
ATOM     36  C   UNL     1      -2.107   1.829   3.656  0.00  0.00    +0.000 A 
ATOM     37  C   UNL     1      -1.699   0.545   3.342  0.00  0.00    +0.000 A 
ATOM     38  C   UNL     1      -1.022   0.305   2.162  0.00  0.00    +0.004 A 
ENDBRANCH  26  33
ENDBRANCH  25  26
ENDBRANCH   1  25
TORSDOF 10
