REMARK  Name = ZINC30976543
REMARK  10 active torsions:
REMARK  status: ('A' for Active; 'I' for Inactive)
REMARK    1  A    between atoms: C_1  and  C_2
REMARK    2  A    between atoms: C_5  and  C_8
REMARK    3  A    between atoms: C_10  and  C_13
REMARK    4  A    between atoms: C_13  and  N_14
REMARK    5  A    between atoms: C_17  and  C_20
REMARK    6  A    between atoms: N_22  and  C_23
REMARK    7  A    between atoms: C_23  and  C_25
REMARK    8  A    between atoms: C_23  and  C_26
REMARK    9  A    between atoms: C_29  and  N_32
REMARK   10  A    between atoms: C_36  and  C_39
REMARK                            x       y       z     vdW  Elec       q    Type
REMARK                         _______ _______ _______ _____ _____    ______ ____
ROOT
ATOM      1  N   UNL     1       0.003  -0.099 -12.096  0.00  0.00    +0.386 N 
ATOM      2  C   UNL     1       0.746   1.160 -11.952  0.00  0.00    -0.077 C 
ATOM      3  C   UNL     1       1.672   1.071 -10.737  0.00  0.00    -0.006 C 
ATOM      4  C   UNL     1       0.836   0.803  -9.482  0.00  0.00    +0.071 C 
ATOM      5  C   UNL     1       0.036  -0.488  -9.678  0.00  0.00    -0.006 C 
ATOM      6  C   UNL     1      -0.843  -0.353 -10.923  0.00  0.00    -0.077 C 
ATOM      7  H   UNL     1       0.737  -0.915 -12.163  0.00  0.00    -0.081 HD
ENDROOT
BRANCH   4   8
ATOM      8  C   UNL     1       1.748   0.654  -8.292  0.00  0.00    +0.216 C 
ATOM      9  O   UNL     1       2.949   0.753  -8.432  0.00  0.00    -0.276 OA
ATOM     10  N   UNL     1       1.230   0.412  -7.072  0.00  0.00    -0.309 N 
ATOM     11  H   UNL     1       0.141   0.323  -6.945  0.00  0.00    +0.149 HD
BRANCH  10  12
ATOM     12  C   UNL     1       2.116   0.268  -5.914  0.00  0.00    +0.100 C 
ATOM     13  C   UNL     1       2.613  -1.177  -5.829  0.00  0.00    +0.033 C 
BRANCH  12  14
ATOM     14  C   UNL     1       1.362   0.615  -4.657  0.00  0.00    -0.027 A 
ATOM     15  C   UNL     1       1.984   1.339  -3.656  0.00  0.00    +0.007 A 
ATOM     16  C   UNL     1       1.296   1.658  -2.503  0.00  0.00    +0.023 A 
ATOM     17  C   UNL     1      -0.023   1.251  -2.348  0.00  0.00    +0.030 A 
ATOM     18  C   UNL     1      -0.644   0.519  -3.353  0.00  0.00    +0.023 A 
ATOM     19  C   UNL     1       0.049   0.208  -4.506  0.00  0.00    +0.007 A 
BRANCH  17  20
ATOM     20  N   UNL     1      -0.723   1.572  -1.182  0.00  0.00    -0.330 N 
ATOM     21  C   UNL     1      -0.013   1.086   0.008  0.00  0.00    +0.105 C 
ATOM     22  C   UNL     1      -0.729   1.579   1.267  0.00  0.00    +0.019 C 
ATOM     23  C   UNL     1      -2.170   1.064   1.264  0.00  0.00    +0.006 C 
ATOM     24  C   UNL     1      -2.873   1.544  -0.009  0.00  0.00    +0.003 C 
ATOM     25  C   UNL     1      -2.095   1.052  -1.231  0.00  0.00    +0.108 C 
ATOM     26  C   UNL     1      -4.296   0.984  -0.049  0.00  0.00    +0.009 C 
ENDBRANCH  17  20
ENDBRANCH  12  14
ENDBRANCH  10  12
ENDBRANCH   4   8
BRANCH   1  27
ATOM     27  C   UNL     1      -0.793  -0.101 -13.330  0.00  0.00    +0.022 C 
BRANCH  27  30
ATOM     28  C   UNL     1      -2.554  -3.224 -13.595  0.00  0.00    +0.202 A 
ATOM     29  N   UNL     1      -2.487  -1.953 -13.140  0.00  0.00    -0.193 NA
ATOM     30  C   UNL     1      -1.342  -1.484 -13.571  0.00  0.00    +0.211 A 
ATOM     31  O   UNL     1      -0.755  -2.461 -14.269  0.00  0.00    -0.340 OA
ATOM     32  N   UNL     1      -1.456  -3.451 -14.269  0.00  0.00    -0.056 NA
BRANCH  28  37
ATOM     33  C   UNL     1      -6.861  -6.947 -12.724  0.00  0.00    +0.044 C 
ATOM     34  C   UNL     1      -5.734  -5.973 -12.952  0.00  0.00    -0.050 A 
ATOM     35  C   UNL     1      -4.631  -6.357 -13.692  0.00  0.00    +0.004 A 
ATOM     36  C   UNL     1      -3.596  -5.469 -13.904  0.00  0.00    +0.012 A 
ATOM     37  C   UNL     1      -3.664  -4.183 -13.371  0.00  0.00    +0.022 A 
ATOM     38  C   UNL     1      -4.776  -3.803 -12.622  0.00  0.00    +0.012 A 
ATOM     39  C   UNL     1      -5.807  -4.698 -12.420  0.00  0.00    +0.004 A 
ENDBRANCH  28  37
ENDBRANCH  27  30
ENDBRANCH   1  27
TORSDOF 7
