REMARK  Name = ZINC45529849
REMARK  8 active torsions:
REMARK  status: ('A' for Active; 'I' for Inactive)
REMARK    1  A    between atoms: C_4  and  C_7
REMARK    2  A    between atoms: C_7  and  N_8
REMARK    3  A    between atoms: C_10  and  C_19
REMARK    4  A    between atoms: C_11  and  C_13
REMARK    5  A    between atoms: C_20  and  C_21
REMARK    6  A    between atoms: N_23  and  N_24
REMARK    7  A    between atoms: C_25  and  C_27
REMARK    8  A    between atoms: C_30  and  N_33
REMARK                            x       y       z     vdW  Elec       q    Type
REMARK                         _______ _______ _______ _____ _____    ______ ____
ROOT
ATOM      1  C   UNL     1       5.254  -3.013   4.113  0.00  0.00    +0.017 C 
ATOM      2  C   UNL     1       5.313  -4.304   3.718  0.00  0.00    +0.069 C 
ENDROOT
BRANCH   1   5
ATOM      3  N   UNL     1       4.152  -0.952   1.338  0.00  0.00    -0.266 N 
ATOM      4  C   UNL     1       4.466  -2.155   1.846  0.00  0.00    +0.117 A 
ATOM      5  C   UNL     1       4.832  -1.974   3.167  0.00  0.00    +0.020 A 
ATOM      6  C   UNL     1       4.715  -0.536   3.434  0.00  0.00    +0.100 A 
ATOM      7  N   UNL     1       4.314   0.030   2.318  0.00  0.00    -0.170 NA
BRANCH   6   8
ATOM      8  C   UNL     1       5.002   0.149   4.717  0.00  0.00    +0.003 A 
ATOM      9  C   UNL     1       4.724  -0.486   5.926  0.00  0.00    +0.010 A 
ATOM     10  C   UNL     1       4.993   0.156   7.118  0.00  0.00    +0.001 A 
ATOM     11  C   UNL     1       5.538   1.428   7.114  0.00  0.00    +0.000 A 
ATOM     12  C   UNL     1       5.815   2.063   5.917  0.00  0.00    +0.001 A 
ATOM     13  C   UNL     1       5.555   1.429   4.719  0.00  0.00    +0.010 A 
ENDBRANCH   6   8
BRANCH   3  14
ATOM     14  C   UNL     1       3.711  -0.707  -0.038  0.00  0.00    +0.178 C 
BRANCH  14  18
ATOM     15  C   UNL     1      -0.017   1.378   0.010  0.00  0.00    +0.000 A 
ATOM     16  C   UNL     1       1.171   2.086   0.002  0.00  0.00    +0.000 A 
ATOM     17  C   UNL     1       2.377   1.411  -0.013  0.00  0.00    +0.005 A 
ATOM     18  C   UNL     1       2.396   0.029  -0.020  0.00  0.00    -0.026 A 
ATOM     19  C   UNL     1       1.208  -0.679  -0.012  0.00  0.00    +0.005 A 
ATOM     20  C   UNL     1       0.002  -0.004   0.002  0.00  0.00    +0.000 A 
ENDBRANCH  14  18
ENDBRANCH   3  14
ENDBRANCH   1   5
BRANCH   2  21
ATOM     21  C   UNL     1       5.720  -5.308   4.632  0.00  0.00    +0.253 C 
ATOM     22  O   UNL     1       6.017  -5.007   5.774  0.00  0.00    -0.269 OA
ATOM     23  N   UNL     1       5.779  -6.595   4.237  0.00  0.00    -0.231 N 
ATOM     24  H   UNL     1       5.543  -6.835   3.328  0.00  0.00    +0.173 HD
BRANCH  23  25
ATOM     25  N   UNL     1       6.182  -7.587   5.141  0.00  0.00    -0.230 N 
ATOM     26  C   UNL     1       6.240  -8.875   4.746  0.00  0.00    +0.260 C 
ATOM     27  O   UNL     1       5.944  -9.175   3.606  0.00  0.00    -0.269 OA
ATOM     28  H   UNL     1       6.418  -7.348   6.051  0.00  0.00    +0.173 HD
BRANCH  26  29
ATOM     29  C   UNL     1       6.665  -9.921   5.699  0.00  0.00    +0.038 A 
ATOM     30  C   UNL     1       7.000  -9.578   7.011  0.00  0.00    +0.015 A 
ATOM     31  C   UNL     1       7.394 -10.556   7.897  0.00  0.00    +0.028 A 
ATOM     32  C   UNL     1       7.460 -11.883   7.487  0.00  0.00    +0.069 A 
ATOM     33  C   UNL     1       7.128 -12.227   6.181  0.00  0.00    +0.028 A 
ATOM     34  C   UNL     1       6.726 -11.255   5.292  0.00  0.00    +0.015 A 
BRANCH  32  35
ATOM     35  N   UNL     1       7.862 -12.874   8.389  0.00  0.00    -0.200 N 
ATOM     36  C   UNL     1       7.984 -14.199   8.153  0.00  0.00    +0.250 A 
ATOM     37  N   UNL     1       8.385 -14.756   9.265  0.00  0.00    -0.116 NA
ATOM     38  N   UNL     1       8.524 -13.875  10.189  0.00  0.00    -0.023 NA
ATOM     39  N   UNL     1       8.232 -12.704   9.735  0.00  0.00    -0.039 NA
ENDBRANCH  32  35
ENDBRANCH  26  29
ENDBRANCH  23  25
ENDBRANCH   2  21
TORSDOF 8
