REMARK  Name = ZINC08416882
REMARK  10 active torsions:
REMARK  status: ('A' for Active; 'I' for Inactive)
REMARK    1  A    between atoms: C_1  and  C_2
REMARK    2  A    between atoms: C_2  and  C_3
REMARK    3  A    between atoms: C_3  and  C_4
REMARK    4  A    between atoms: C_3  and  C_5
REMARK    5  A    between atoms: C_3  and  C_6
REMARK    6  A    between atoms: C_14  and  N_35
REMARK    7  A    between atoms: C_15  and  C_19
REMARK    8  A    between atoms: N_21  and  C_22
REMARK    9  A    between atoms: C_23  and  C_33
REMARK   10  A    between atoms: C_28  and  C_32
REMARK                            x       y       z     vdW  Elec       q    Type
REMARK                         _______ _______ _______ _____ _____    ______ ____
ROOT
ATOM      1  C   UNL     1      -0.113  -4.967   0.401  0.00  0.00    -0.001 C 
ATOM      2  C   UNL     1      -1.343  -4.577  -0.427  0.00  0.00    +0.010 C 
ATOM      3  C   UNL     1      -1.800  -3.188   0.014  0.00  0.00    +0.056 C 
ATOM      4  C   UNL     1      -0.645  -2.221  -0.001  0.00  0.00    +0.046 A 
ATOM      5  C   UNL     1       0.673  -2.637  -0.020  0.00  0.00    -0.025 A 
ATOM      6  C   UNL     1       1.692  -1.704  -0.025  0.00  0.00    +0.017 A 
ATOM      7  C   UNL     1       1.378  -0.326  -0.013  0.00  0.00    +0.029 A 
ATOM      8  C   UNL     1       2.280   0.816  -0.016  0.00  0.00    +0.053 A 
ATOM      9  C   UNL     1       1.733   2.081  -0.003  0.00  0.00    +0.097 A 
ATOM     10  S   UNL     1      -0.022   1.771   0.012  0.00  0.00    -0.062 S 
ATOM     11  C   UNL     1       0.002  -0.004   0.002  0.00  0.00    +0.111 A 
ATOM     12  N   UNL     1      -0.932  -0.926   0.006  0.00  0.00    -0.244 NA
ATOM     13  C   UNL     1       1.060  -4.094  -0.039  0.00  0.00    +0.041 C 
ENDROOT
BRANCH   9  14
ATOM     14  C   UNL     1       2.405   3.328  -0.003  0.00  0.00    +0.257 C 
ATOM     15  O   UNL     1       3.622   3.364  -0.015  0.00  0.00    -0.269 OA
ATOM     16  N   UNL     1       1.696   4.475   0.010  0.00  0.00    -0.274 N 
ATOM     17  H   UNL     1       0.727   4.446   0.019  0.00  0.00    +0.156 HD
BRANCH  16  18
ATOM     18  C   UNL     1       2.354   5.696   0.010  0.00  0.00    +0.090 A 
ATOM     19  C   UNL     1       1.806   6.970   0.022  0.00  0.00    +0.084 A 
ATOM     20  C   UNL     1       2.723   8.096   0.019  0.00  0.00    -0.018 A 
ATOM     21  C   UNL     1       4.034   7.770   0.004  0.00  0.00    -0.004 A 
ATOM     22  S   UNL     1       4.060   6.000   0.002  0.00  0.00    -0.077 S 
ATOM     23  C   UNL     1       5.199   8.711  -0.004  0.00  0.00    +0.046 C 
ATOM     24  C   UNL     1       4.687  10.112  -0.370  0.00  0.00    -0.009 C 
ATOM     25  C   UNL     1       3.452  10.424   0.481  0.00  0.00    +0.008 C 
ATOM     26  C   UNL     1       2.277   9.553   0.032  0.00  0.00    +0.037 C 
ATOM     27  C   UNL     1       5.778  11.147  -0.089  0.00  0.00    +0.008 C 
BRANCH  19  28
ATOM     28  C   UNL     1       0.387   7.168   0.038  0.00  0.00    +0.102 C 
ATOM     29  N   UNL     1      -0.738   7.325   0.050  0.00  0.00    -0.191 NA
ENDBRANCH  19  28
ENDBRANCH  16  18
ENDBRANCH   9  14
BRANCH   1  30
ATOM     30  C   UNL     1       0.223  -6.440   0.161  0.00  0.00    -0.032 C 
ATOM     31  C   UNL     1      -0.955  -7.311   0.603  0.00  0.00    +0.011 C 
ATOM     32  C   UNL     1       0.494  -6.666  -1.328  0.00  0.00    +0.011 C 
BRANCH  30  34
ATOM     33  C   UNL     1       1.804  -8.291   0.729  0.00  0.00    +0.004 C 
ATOM     34  C   UNL     1       1.467  -6.817   0.969  0.00  0.00    +0.003 C 
ENDBRANCH  30  34
ENDBRANCH   1  30
BRANCH   8  35
ATOM     35  N   UNL     1       3.656   0.636  -0.030  0.00  0.00    -0.356 N 
ATOM     36  H   UNL     1       4.028  -0.259  -0.039  0.00  0.00    +0.142 HD
ATOM     37  H   UNL     1       4.246   1.407  -0.031  0.00  0.00    +0.142 HD
ENDBRANCH   8  35
TORSDOF 6
