REMARK  Name = ZINC66363287
REMARK  9 active torsions:
REMARK  status: ('A' for Active; 'I' for Inactive)
REMARK    1  A    between atoms: C_1  and  C_2
REMARK    2  A    between atoms: C_10  and  C_12
REMARK    3  A    between atoms: C_12  and  N_13
REMARK    4  A    between atoms: N_13  and  C_14
REMARK    5  A    between atoms: C_15  and  C_17
REMARK    6  A    between atoms: C_17  and  C_18
REMARK    7  A    between atoms: C_18  and  C_20
REMARK    8  A    between atoms: C_18  and  N_21
REMARK    9  A    between atoms: C_22  and  C_24
REMARK                            x       y       z     vdW  Elec       q    Type
REMARK                         _______ _______ _______ _____ _____    ______ ____
ROOT
ATOM      1  N   UNL     1       1.437  -2.931   2.895  0.00  0.00    -0.297 N 
ATOM      2  C   UNL     1       2.117  -1.917   3.704  0.00  0.00    +0.132 C 
ATOM      3  C   UNL     1       2.086  -4.058   2.541  0.00  0.00    +0.217 C 
ATOM      4  O   UNL     1       1.522  -4.897   1.870  0.00  0.00    -0.276 OA
ENDROOT
BRANCH   1   5
ATOM      5  C   UNL     1       0.050  -2.720   2.470  0.00  0.00    +0.183 C 
BRANCH   5  15
ATOM      6  C   UNL     1      -0.018   1.503   0.010  0.00  0.00    +0.066 C 
ATOM      7  C   UNL     1       0.002  -0.004   0.002  0.00  0.00    +0.049 A 
ATOM      8  C   UNL     1       0.006  -0.718  -1.210  0.00  0.00    +0.021 A 
ATOM      9  C   UNL     1      -0.008  -0.074  -2.456  0.00  0.00    +0.012 A 
ATOM     10  C   UNL     1      -0.003  -0.820  -3.596  0.00  0.00    +0.001 A 
ATOM     11  C   UNL     1       0.016  -2.212  -3.542  0.00  0.00    +0.002 A 
ATOM     12  C   UNL     1       0.030  -2.869  -2.349  0.00  0.00    +0.028 A 
ATOM     13  C   UNL     1       0.026  -2.136  -1.154  0.00  0.00    +0.075 A 
ATOM     14  N   UNL     1       0.039  -2.731   0.045  0.00  0.00    -0.230 NA
ATOM     15  C   UNL     1       0.035  -2.010   1.141  0.00  0.00    +0.147 A 
ATOM     16  N   UNL     1       0.022  -0.685   1.130  0.00  0.00    -0.235 NA
ENDBRANCH   5  15
ENDBRANCH   1   5
BRANCH   3  17
ATOM     17  C   UNL     1       3.511  -4.275   2.977  0.00  0.00    +0.118 C 
BRANCH  17  18
ATOM     18  C   UNL     1       4.008  -5.621   2.446  0.00  0.00    +0.079 C 
ATOM     19  C   UNL     1       5.492  -5.786   2.782  0.00  0.00    +0.028 C 
BRANCH  18  20
ATOM     20  N   UNL     1       3.243  -6.704   3.068  0.00  0.00    -0.312 N 
ATOM     21  C   UNL     1       3.121  -7.890   2.440  0.00  0.00    +0.216 C 
ATOM     22  O   UNL     1       3.644  -8.061   1.359  0.00  0.00    -0.276 OA
ATOM     23  H   UNL     1       2.824  -6.568   3.932  0.00  0.00    +0.149 HD
BRANCH  21  24
ATOM     24  C   UNL     1       2.333  -9.005   3.080  0.00  0.00    +0.075 C 
ATOM     25  C   UNL     1       2.962  -9.364   4.428  0.00  0.00    +0.013 C 
ATOM     26  C   UNL     1       2.163 -10.495   5.078  0.00  0.00    +0.001 C 
ATOM     27  C   UNL     1       2.180 -11.722   4.164  0.00  0.00    +0.000 C 
ATOM     28  C   UNL     1       1.552 -11.363   2.816  0.00  0.00    +0.001 C 
ATOM     29  C   UNL     1       2.351 -10.232   2.166  0.00  0.00    +0.013 C 
ENDBRANCH  21  24
ENDBRANCH  18  20
ENDBRANCH  17  18
ENDBRANCH   3  17
TORSDOF 6
