REMARK  Name = ZINC61120873
REMARK  4 active torsions:
REMARK  status: ('A' for Active; 'I' for Inactive)
REMARK    1  A    between atoms: C_6  and  N_7
REMARK    2  A    between atoms: N_7  and  S_8
REMARK    3  A    between atoms: S_8  and  C_11
REMARK    4  A    between atoms: N_17  and  N_18
REMARK                            x       y       z     vdW  Elec       q    Type
REMARK                         _______ _______ _______ _____ _____    ______ ____
ROOT
ATOM      1  S   UNL     1      -1.175  -2.377   0.001  0.00  0.00    +0.095 S 
ATOM      2  O   UNL     1      -0.630  -2.768  -1.252  0.00  0.00    -0.148 OA
ATOM      3  O   UNL     1      -0.606  -2.781   1.239  0.00  0.00    -0.148 OA
ENDROOT
BRANCH   1   4
ATOM      4  C   UNL     1      -2.850  -2.922   0.015  0.00  0.00    +0.146 A 
ATOM      5  C   UNL     1      -3.513  -3.142   1.212  0.00  0.00    +0.144 A 
ATOM      6  N   UNL     1      -4.771  -3.551   1.187  0.00  0.00    -0.220 NA
ATOM      7  C   UNL     1      -5.396  -3.751   0.035  0.00  0.00    +0.229 A 
ATOM      8  N   UNL     1      -4.790  -3.550  -1.126  0.00  0.00    -0.220 NA
ATOM      9  C   UNL     1      -3.535  -3.135  -1.171  0.00  0.00    +0.144 A 
ATOM     10  N   UNL     1      -6.712  -4.179   0.046  0.00  0.00    -0.252 N 
ATOM     11  H   UNL     1      -7.165  -4.330   0.890  0.00  0.00    +0.169 HD
BRANCH  10  12
ATOM     12  N   UNL     1      -7.371  -4.390  -1.131  0.00  0.00    -0.254 NA
ATOM     13  H   UNL     1      -8.317  -4.698  -0.966  0.00  0.00    +0.140 HD
ATOM     14  H   UNL     1      -7.356  -3.561  -1.707  0.00  0.00    +0.140 HD
ENDBRANCH  10  12
ENDBRANCH   1   4
BRANCH   1  15
ATOM     15  N   UNL     1      -1.199  -0.721   0.010  0.00  0.00    -0.095 NA
BRANCH  15  21
ATOM     16  C   UNL     1      -0.017   1.384   0.010  0.00  0.00    +0.068 A 
ATOM     17  C   UNL     1       1.173   2.091   0.002  0.00  0.00    +0.128 A 
ATOM     18  C   UNL     1       2.381   1.417  -0.013  0.00  0.00    +0.079 A 
ATOM     19  C   UNL     1       2.404   0.032  -0.022  0.00  0.00    +0.163 A 
ATOM     20  C   UNL     1       1.217  -0.680  -0.014  0.00  0.00    +0.183 A 
ATOM     21  C   UNL     1       0.002  -0.004   0.002  0.00  0.00    +0.115 A 
ATOM     22  F   UNL     1       1.239  -2.031  -0.023  0.00  0.00    -0.200 F 
ATOM     23  F   UNL     1       3.585  -0.624  -0.037  0.00  0.00    -0.202 F 
ATOM     24  F   UNL     1       1.154   3.442   0.009  0.00  0.00    -0.205 F 
ENDBRANCH  15  21
ENDBRANCH   1  15
TORSDOF 4
