REMARK  Name = ZINC09833405
REMARK  8 active torsions:
REMARK  status: ('A' for Active; 'I' for Inactive)
REMARK    1  A    between atoms: C_1  and  C_2
REMARK    2  A    between atoms: C_2  and  C_3
REMARK    3  A    between atoms: C_10  and  C_12
REMARK    4  A    between atoms: C_15  and  S_18
REMARK    5  A    between atoms: N_16  and  C_17
REMARK    6  A    between atoms: S_18  and  C_19
REMARK    7  A    between atoms: C_19  and  C_20
REMARK    8  A    between atoms: N_22  and  C_23
REMARK                            x       y       z     vdW  Elec       q    Type
REMARK                         _______ _______ _______ _____ _____    ______ ____
ROOT
ATOM      1  S   UNL     1      -2.801   1.751   0.025  0.00  0.00    -0.077 S 
ENDROOT
BRANCH   1   5
ATOM      2  C   UNL     1       1.068   2.309   0.029  0.00  0.00    +0.171 A 
ATOM      3  N   UNL     1       0.598   3.537   0.044  0.00  0.00    -0.128 NA
ATOM      4  N   UNL     1      -0.687   3.514   0.049  0.00  0.00    -0.122 NA
ATOM      5  C   UNL     1      -1.118   2.273   0.032  0.00  0.00    +0.192 A 
ATOM      6  N   UNL     1      -0.017   1.461   0.024  0.00  0.00    -0.305 N 
ATOM      7  C   UNL     1       0.003  -0.003   0.007  0.00  0.00    +0.153 C 
BRANCH   2  14
ATOM      8  C   UNL     1       7.322   2.103   0.087  0.00  0.00    -0.007 C 
ATOM      9  C   UNL     1       7.306   0.659  -0.421  0.00  0.00    +0.009 C 
ATOM     10  C   UNL     1       6.130  -0.082   0.235  0.00  0.00    +0.043 C 
ATOM     11  C   UNL     1       4.911   0.775   0.117  0.00  0.00    -0.006 A 
ATOM     12  C   UNL     1       4.855   2.099  -0.205  0.00  0.00    -0.036 A 
ATOM     13  C   UNL     1       3.592   2.676  -0.253  0.00  0.00    +0.023 A 
ATOM     14  C   UNL     1       2.486   1.915   0.018  0.00  0.00    +0.057 A 
ATOM     15  S   UNL     1       3.215   0.321   0.364  0.00  0.00    -0.090 S 
ATOM     16  C   UNL     1       6.136   2.876  -0.493  0.00  0.00    +0.039 C 
BRANCH   8  18
ATOM     17  C   UNL     1       8.699   4.180   0.268  0.00  0.00    +0.004 C 
ATOM     18  C   UNL     1       8.625   2.779  -0.343  0.00  0.00    +0.000 C 
ENDBRANCH   8  18
ENDBRANCH   2  14
ENDBRANCH   1   5
BRANCH   1  19
ATOM     19  C   UNL     1      -3.629   3.361   0.042  0.00  0.00    +0.173 C 
BRANCH  19  20
ATOM     20  C   UNL     1      -5.122   3.157   0.038  0.00  0.00    +0.227 C 
ATOM     21  O   UNL     1      -5.581   2.035   0.025  0.00  0.00    -0.275 OA
ATOM     22  N   UNL     1      -5.947   4.223   0.049  0.00  0.00    -0.285 N 
ATOM     23  H   UNL     1      -5.582   5.118   0.127  0.00  0.00    +0.155 HD
BRANCH  22  24
ATOM     24  C   UNL     1      -7.332   4.037  -0.051  0.00  0.00    +0.035 A 
ATOM     25  C   UNL     1      -8.108   4.965  -0.736  0.00  0.00    +0.025 A 
ATOM     26  C   UNL     1      -9.473   4.785  -0.844  0.00  0.00    +0.029 A 
ATOM     27  C   UNL     1     -10.073   3.681  -0.258  0.00  0.00    +0.067 A 
ATOM     28  C   UNL     1      -9.297   2.750   0.435  0.00  0.00    +0.069 A 
ATOM     29  C   UNL     1      -7.927   2.931   0.537  0.00  0.00    +0.051 A 
ATOM     30  N   UNL     1     -10.168   1.769   0.904  0.00  0.00    -0.306 N 
ATOM     31  H   UNL     1      -9.917   0.989   1.423  0.00  0.00    +0.170 HD
ATOM     32  C   UNL     1     -11.416   2.087   0.513  0.00  0.00    +0.325 A 
ATOM     33  O   UNL     1     -12.415   1.436   0.758  0.00  0.00    -0.247 OA
ATOM     34  N   UNL     1     -11.393   3.236  -0.189  0.00  0.00    -0.306 N 
ATOM     35  H   UNL     1     -12.163   3.678  -0.580  0.00  0.00    +0.170 HD
ENDBRANCH  22  24
ENDBRANCH  19  20
ENDBRANCH   1  19
TORSDOF 6
