REMARK  Name = ZINC59891759
REMARK  4 active torsions:
REMARK  status: ('A' for Active; 'I' for Inactive)
REMARK    1  A    between atoms: C_4  and  S_11
REMARK    2  A    between atoms: S_11  and  N_14
REMARK    3  A    between atoms: C_20  and  C_22
REMARK    4  A    between atoms: C_25  and  C_28
REMARK                            x       y       z     vdW  Elec       q    Type
REMARK                         _______ _______ _______ _____ _____    ______ ____
ROOT
ATOM      1  N   UNL     1       4.059   5.037  -1.423  0.00  0.00    -0.174 NA
ATOM      2  C   UNL     1       4.938   4.925  -2.596  0.00  0.00    +0.128 C 
ATOM      3  C   UNL     1       4.278   3.986  -3.614  0.00  0.00    +0.125 C 
ATOM      4  N   UNL     1       2.885   4.410  -3.811  0.00  0.00    -0.295 N 
ATOM      5  C   UNL     1       2.007   4.521  -2.637  0.00  0.00    +0.125 C 
ATOM      6  C   UNL     1       2.664   5.455  -1.620  0.00  0.00    +0.128 C 
ATOM      7  C   UNL     1       2.421   4.691  -5.044  0.00  0.00    +0.247 C 
ATOM      8  O   UNL     1       1.249   4.974  -5.203  0.00  0.00    -0.270 OA
ENDROOT
BRANCH   7   9
ATOM      9  C   UNL     1       3.337   4.657  -6.204  0.00  0.00    +0.037 A 
ATOM     10  C   UNL     1       4.138   3.537  -6.432  0.00  0.00    +0.013 A 
ATOM     11  C   UNL     1       4.990   3.510  -7.516  0.00  0.00    +0.004 A 
ATOM     12  C   UNL     1       5.052   4.591  -8.377  0.00  0.00    -0.044 A 
ATOM     13  C   UNL     1       4.261   5.705  -8.157  0.00  0.00    +0.004 A 
ATOM     14  C   UNL     1       3.400   5.742  -7.080  0.00  0.00    +0.013 A 
BRANCH  12  15
ATOM     15  C   UNL     1       5.985   4.556  -9.560  0.00  0.00    +0.019 C 
ATOM     16  C   UNL     1       6.986   5.708  -9.454  0.00  0.00    +0.008 C 
ATOM     17  C   UNL     1       7.934   5.672 -10.655  0.00  0.00    +0.001 C 
ATOM     18  C   UNL     1       7.127   5.815 -11.946  0.00  0.00    +0.000 C 
ATOM     19  C   UNL     1       6.125   4.663 -12.052  0.00  0.00    +0.001 C 
ATOM     20  C   UNL     1       5.178   4.699 -10.852  0.00  0.00    +0.008 C 
ENDBRANCH  12  15
ENDBRANCH   7   9
BRANCH   1  21
ATOM     21  S   UNL     1       4.630   4.691   0.092  0.00  0.00    +0.063 S 
ATOM     22  O   UNL     1       3.798   5.390   1.009  0.00  0.00    -0.153 OA
ATOM     23  O   UNL     1       6.038   4.874   0.048  0.00  0.00    -0.153 OA
BRANCH  21  27
ATOM     24  C   UNL     1       0.732   1.782   0.534  0.00  0.00    +0.020 A 
ATOM     25  C   UNL     1       1.729   2.728   0.388  0.00  0.00    +0.015 A 
ATOM     26  C   UNL     1       3.057   2.302   0.471  0.00  0.00    +0.045 A 
ATOM     27  C   UNL     1       4.354   2.973   0.373  0.00  0.00    +0.132 A 
ATOM     28  C   UNL     1       5.294   2.029   0.537  0.00  0.00    +0.113 A 
ATOM     29  N   UNL     1       4.701   0.810   0.732  0.00  0.00    -0.344 N 
ATOM     30  H   UNL     1       5.177  -0.024   0.874  0.00  0.00    +0.167 HD
ATOM     31  C   UNL     1       3.334   0.940   0.698  0.00  0.00    +0.140 A 
ATOM     32  N   UNL     1       2.336   0.077   0.831  0.00  0.00    -0.237 NA
ATOM     33  C   UNL     1       1.078   0.458   0.755  0.00  0.00    +0.113 A 
ENDBRANCH  21  27
ENDBRANCH   1  21
TORSDOF 4
