REMARK  Name = ZINC41005593
REMARK  7 active torsions:
REMARK  status: ('A' for Active; 'I' for Inactive)
REMARK    1  A    between atoms: C_1  and  C_2
REMARK    2  A    between atoms: C_5  and  C_8
REMARK    3  A    between atoms: C_8  and  C_10
REMARK    4  A    between atoms: C_8  and  N_26
REMARK    5  A    between atoms: C_10  and  N_11
REMARK    6  A    between atoms: C_12  and  C_14
REMARK    7  A    between atoms: C_14  and  C_15
REMARK                            x       y       z     vdW  Elec       q    Type
REMARK                         _______ _______ _______ _____ _____    ______ ____
ROOT
ATOM      1  C   UNL     1       1.517  -4.574   0.310  0.00  0.00    +0.093 C 
ENDROOT
BRANCH   1   2
ATOM      2  N   UNL     1       1.872  -3.923   1.573  0.00  0.00    -0.316 N 
ATOM      3  C   UNL     1       3.143  -3.964   2.019  0.00  0.00    +0.217 C 
ATOM      4  O   UNL     1       3.993  -4.539   1.374  0.00  0.00    -0.275 OA
ATOM      5  H   UNL     1       1.191  -3.462   2.090  0.00  0.00    +0.149 HD
BRANCH   3   6
ATOM      6  C   UNL     1       3.508  -3.294   3.319  0.00  0.00    +0.131 C 
BRANCH   6   7
ATOM      7  C   UNL     1       4.978  -3.485   3.587  0.00  0.00    -0.035 A 
ATOM      8  C   UNL     1       5.412  -4.591   4.295  0.00  0.00    +0.008 A 
ATOM      9  C   UNL     1       6.760  -4.773   4.545  0.00  0.00    +0.050 A 
ATOM     10  C   UNL     1       7.676  -3.843   4.082  0.00  0.00    +0.162 A 
ATOM     11  C   UNL     1       7.241  -2.733   3.371  0.00  0.00    +0.162 A 
ATOM     12  C   UNL     1       5.891  -2.557   3.119  0.00  0.00    +0.053 A 
ATOM     13  O   UNL     1       8.151  -1.823   2.918  0.00  0.00    -0.488 OA
ATOM     14  C   UNL     1       8.815  -1.052   3.922  0.00  0.00    +0.232 C 
ATOM     15  C   UNL     1      10.012  -1.806   4.478  0.00  0.00    +0.082 C 
ATOM     16  C   UNL     1       9.607  -3.072   5.216  0.00  0.00    +0.232 C 
ATOM     17  O   UNL     1       9.009  -4.011   4.320  0.00  0.00    -0.488 OA
ENDBRANCH   6   7
ENDBRANCH   3   6
ENDBRANCH   1   2
BRANCH   1  18
ATOM     18  C   UNL     1       0.056  -4.269  -0.028  0.00  0.00    -0.020 C 
BRANCH  18  19
ATOM     19  N   UNL     1      -0.798  -4.650   1.104  0.00  0.00    +0.385 N 
ATOM     20  C   UNL     1      -0.637  -6.096   1.353  0.00  0.00    -0.078 C 
ATOM     21  C   UNL     1      -0.988  -6.371   2.794  0.00  0.00    -0.019 C 
ATOM     22  C   UNL     1      -2.450  -6.833   2.939  0.00  0.00    -0.002 C 
ATOM     23  C   UNL     1      -3.397  -6.032   2.024  0.00  0.00    -0.002 C 
ATOM     24  C   UNL     1      -3.065  -4.562   1.998  0.00  0.00    -0.019 C 
ATOM     25  C   UNL     1      -2.114  -4.282   0.816  0.00  0.00    -0.078 C 
ATOM     26  H   UNL     1      -0.493  -4.147   1.923  0.00  0.00    -0.081 HD
ENDBRANCH  18  19
BRANCH  18  31
ATOM     27  C   UNL     1      -0.544   1.383  -1.074  0.00  0.00    +0.044 C 
ATOM     28  C   UNL     1      -0.387  -0.091  -0.801  0.00  0.00    -0.050 A 
ATOM     29  C   UNL     1      -0.292  -0.983  -1.854  0.00  0.00    +0.003 A 
ATOM     30  C   UNL     1      -0.148  -2.335  -1.604  0.00  0.00    +0.002 A 
ATOM     31  C   UNL     1      -0.099  -2.795  -0.301  0.00  0.00    -0.059 A 
ATOM     32  C   UNL     1      -0.194  -1.904   0.751  0.00  0.00    +0.002 A 
ATOM     33  C   UNL     1      -0.333  -0.551   0.501  0.00  0.00    +0.003 A 
ENDBRANCH  18  31
ENDBRANCH   1  18
TORSDOF 6
