REMARK  Name = ZINC62534758
REMARK  3 active torsions:
REMARK  status: ('A' for Active; 'I' for Inactive)
REMARK    1  A    between atoms: C_1  and  N_2
REMARK    2  A    between atoms: C_5  and  C_14
REMARK    3  A    between atoms: C_7  and  N_13
REMARK                            x       y       z     vdW  Elec       q    Type
REMARK                         _______ _______ _______ _____ _____    ______ ____
ROOT
ATOM      1  C   UNL     1      -0.018   1.461   0.010  0.00  0.00    +0.138 C 
ATOM      2  N   UNL     1       0.002  -0.004   0.002  0.00  0.00    -0.269 N 
ATOM      3  C   UNL     1      -1.196  -0.732   0.004  0.00  0.00    +0.080 A 
ATOM      4  C   UNL     1      -2.399  -0.116  -0.307  0.00  0.00    +0.039 A 
ATOM      5  C   UNL     1      -3.572  -0.848  -0.299  0.00  0.00    +0.059 A 
ATOM      6  C   UNL     1      -3.551  -2.194   0.016  0.00  0.00    +0.039 A 
ATOM      7  C   UNL     1      -2.351  -2.819   0.327  0.00  0.00    +0.069 A 
ATOM      8  C   UNL     1      -1.170  -2.087   0.321  0.00  0.00    +0.163 A 
ATOM      9  O   UNL     1       0.017  -2.681   0.620  0.00  0.00    -0.479 OA
ATOM     10  C   UNL     1       1.175  -2.181  -0.053  0.00  0.00    +0.325 C 
ATOM     11  C   UNL     1       1.175  -0.674  -0.013  0.00  0.00    +0.257 C 
ATOM     12  O   UNL     1       2.224  -0.065   0.011  0.00  0.00    -0.272 OA
ENDROOT
BRANCH   5  13
ATOM     13  C   UNL     1      -4.878  -0.176  -0.637  0.00  0.00    +0.418 C 
ATOM     14  F   UNL     1      -5.106  -0.264  -2.014  0.00  0.00    -0.166 F 
ATOM     15  F   UNL     1      -5.920  -0.810   0.049  0.00  0.00    -0.166 F 
ATOM     16  F   UNL     1      -4.822   1.170  -0.259  0.00  0.00    -0.166 F 
ENDBRANCH   5  13
BRANCH   7  17
ATOM     17  N   UNL     1      -2.331  -4.182   0.647  0.00  0.00    -0.355 N 
ATOM     18  H   UNL     1      -3.156  -4.691   0.651  0.00  0.00    +0.142 HD
ATOM     19  H   UNL     1      -1.491  -4.617   0.864  0.00  0.00    +0.142 HD
ENDBRANCH   7  17
TORSDOF 2
