REMARK  Name = ZINC43526568
REMARK  14 active torsions:
REMARK  status: ('A' for Active; 'I' for Inactive)
REMARK    1  A    between atoms: C_1  and  N_2
REMARK    2  A    between atoms: N_2  and  C_3
REMARK    3  A    between atoms: N_2  and  C_6
REMARK    4  A    between atoms: C_3  and  C_4
REMARK    5  A    between atoms: C_6  and  C_7
REMARK    6  A    between atoms: C_16  and  C_18
REMARK    7  A    between atoms: C_18  and  N_19
REMARK    8  A    between atoms: N_19  and  C_20
REMARK    9  A    between atoms: C_20  and  N_22
REMARK   10  A    between atoms: N_22  and  C_23
REMARK   11  A    between atoms: C_25  and  O_31
REMARK   12  A    between atoms: C_27  and  O_29
REMARK   13  A    between atoms: O_29  and  C_30
REMARK   14  A    between atoms: O_31  and  C_32
REMARK                            x       y       z     vdW  Elec       q    Type
REMARK                         _______ _______ _______ _____ _____    ______ ____
ROOT
ATOM      1  C   UNL     1       6.704  -1.067  -1.428  0.00  0.00    +0.088 C 
ENDROOT
BRANCH   1   9
ATOM      2  C   UNL     1       2.795   0.697  -1.420  0.00  0.00    -0.041 C 
ATOM      3  C   UNL     1       3.186  -0.320  -0.345  0.00  0.00    -0.076 C 
ATOM      4  N   UNL     1       4.345  -1.097  -0.789  0.00  0.00    +0.383 N 
ATOM      5  C   UNL     1       4.029  -1.847  -2.007  0.00  0.00    -0.078 C 
ATOM      6  C   UNL     1       3.666  -0.880  -3.137  0.00  0.00    -0.015 C 
ATOM      7  C   UNL     1       3.756   0.560  -2.608  0.00  0.00    -0.015 C 
ATOM      8  C   UNL     1       5.185   0.800  -2.104  0.00  0.00    -0.010 C 
ATOM      9  C   UNL     1       5.500  -0.223  -1.006  0.00  0.00    -0.051 C 
ATOM     10  H   UNL     1       4.580  -1.762  -0.066  0.00  0.00    -0.081 HD
BRANCH   2  11
ATOM     11  C   UNL     1       1.363   0.426  -1.886  0.00  0.00    -0.077 C 
BRANCH  11  13
ATOM     12  C   UNL     1       0.461   2.091  -0.413  0.00  0.00    -0.096 C 
ATOM     13  N   UNL     1       0.432   0.668  -0.775  0.00  0.00    +0.380 N 
ATOM     14  H   UNL     1       0.708   0.113   0.021  0.00  0.00    -0.082 HD
BRANCH  13  15
ATOM     15  C   UNL     1      -0.928   0.293  -1.185  0.00  0.00    -0.052 C 
BRANCH  15  16
ATOM     16  C   UNL     1      -1.861   0.425  -0.009  0.00  0.00    -0.053 C 
ATOM     17  C   UNL     1      -2.935   1.169  -0.105  0.00  0.00    +0.002 C 
ENDBRANCH  15  16
ENDBRANCH  13  15
ENDBRANCH  11  13
ENDBRANCH   2  11
ENDBRANCH   1   9
BRANCH   1  18
ATOM     18  N   UNL     1       6.941  -2.112  -0.429  0.00  0.00    -0.328 N 
ATOM     19  H   UNL     1       6.367  -2.179   0.350  0.00  0.00    +0.148 HD
BRANCH  18  20
ATOM     20  C   UNL     1       7.958  -2.982  -0.592  0.00  0.00    +0.134 C 
ATOM     21  S   UNL     1       8.973  -2.865  -1.966  0.00  0.00    -0.019 S 
BRANCH  20  22
ATOM     22  N   UNL     1       8.177  -3.943   0.327  0.00  0.00    -0.297 N 
ATOM     23  H   UNL     1       7.641  -3.972   1.135  0.00  0.00    +0.154 HD
BRANCH  22  24
ATOM     24  C   UNL     1       9.175  -4.900   0.114  0.00  0.00    +0.040 A 
ATOM     25  C   UNL     1      10.430  -4.507  -0.331  0.00  0.00    +0.069 A 
ATOM     26  C   UNL     1      11.419  -5.455  -0.542  0.00  0.00    +0.125 A 
ATOM     27  C   UNL     1      11.155  -6.797  -0.307  0.00  0.00    +0.091 A 
ATOM     28  C   UNL     1       9.901  -7.190   0.138  0.00  0.00    +0.125 A 
ATOM     29  C   UNL     1       8.913  -6.242   0.355  0.00  0.00    +0.069 A 
BRANCH  28  30
ATOM     30  O   UNL     1       9.643  -8.504   0.367  0.00  0.00    -0.495 OA
ATOM     31  C   UNL     1      10.709  -9.426   0.128  0.00  0.00    +0.277 C 
ENDBRANCH  28  30
BRANCH  26  32
ATOM     32  O   UNL     1      12.647  -5.071  -0.978  0.00  0.00    -0.495 OA
ATOM     33  C   UNL     1      13.618  -6.101  -1.173  0.00  0.00    +0.277 C 
ENDBRANCH  26  32
ENDBRANCH  22  24
ENDBRANCH  20  22
ENDBRANCH  18  20
ENDBRANCH   1  18
TORSDOF 11
