REMARK  Name = ZINC32757919
REMARK  4 active torsions:
REMARK  status: ('A' for Active; 'I' for Inactive)
REMARK    1  A    between atoms: C_1  and  C_2
REMARK    2  A    between atoms: C_2  and  C_20
REMARK    3  A    between atoms: N_5  and  C_9
REMARK    4  A    between atoms: C_9  and  C_10
REMARK                            x       y       z     vdW  Elec       q    Type
REMARK                         _______ _______ _______ _____ _____    ______ ____
ROOT
ATOM      1  C   UNL     1      -0.019   1.526   0.010  0.00  0.00    +0.047 C 
ATOM      2  C   UNL     1       0.002  -0.004   0.002  0.00  0.00    +0.135 C 
ATOM      3  C   UNL     1      -1.403  -0.557   0.139  0.00  0.00    +0.251 C 
ATOM      4  O   UNL     1      -2.332  -0.392  -0.621  0.00  0.00    -0.272 OA
ATOM      5  N   UNL     1      -1.403  -1.272   1.282  0.00  0.00    -0.219 N 
ATOM      6  C   UNL     1      -0.206  -1.247   1.879  0.00  0.00    +0.310 C 
ATOM      7  O   UNL     1       0.040  -1.819   2.924  0.00  0.00    -0.252 OA
ATOM      8  N   UNL     1       0.695  -0.520   1.195  0.00  0.00    -0.281 N 
ATOM      9  H   UNL     1       1.621  -0.365   1.440  0.00  0.00    +0.152 HD
ENDROOT
BRANCH   2  10
ATOM     10  C   UNL     1       0.657  -0.517  -1.255  0.00  0.00    -0.016 A 
ATOM     11  C   UNL     1      -0.107  -0.772  -2.378  0.00  0.00    +0.006 A 
ATOM     12  C   UNL     1       0.493  -1.242  -3.530  0.00  0.00    +0.000 A 
ATOM     13  C   UNL     1       1.859  -1.457  -3.560  0.00  0.00    +0.000 A 
ATOM     14  C   UNL     1       2.623  -1.202  -2.437  0.00  0.00    +0.000 A 
ATOM     15  C   UNL     1       2.023  -0.727  -1.286  0.00  0.00    +0.006 A 
ENDBRANCH   2  10
BRANCH   5  16
ATOM     16  C   UNL     1      -2.569  -1.986   1.805  0.00  0.00    +0.161 C 
BRANCH  16  17
ATOM     17  C   UNL     1      -2.585  -3.391   1.260  0.00  0.00    +0.027 A 
ATOM     18  C   UNL     1      -2.028  -4.492   1.786  0.00  0.00    +0.060 A 
ATOM     19  C   UNL     1      -2.164  -5.763   1.088  0.00  0.00    +0.008 A 
ATOM     20  C   UNL     1      -1.664  -7.034   1.457  0.00  0.00    +0.010 A 
ATOM     21  C   UNL     1      -1.890  -8.123   0.675  0.00  0.00    +0.001 A 
ATOM     22  C   UNL     1      -2.614  -8.031  -0.506  0.00  0.00    +0.001 A 
ATOM     23  C   UNL     1      -3.119  -6.809  -0.901  0.00  0.00    +0.016 A 
ATOM     24  C   UNL     1      -2.898  -5.697  -0.116  0.00  0.00    +0.021 A 
ATOM     25  S   UNL     1      -3.353  -3.986  -0.234  0.00  0.00    -0.090 S 
ATOM     26 CL   UNL     1      -1.154  -4.403   3.283  0.00  0.00    -0.082 Cl
ENDBRANCH  16  17
ENDBRANCH   5  16
TORSDOF 3
