REMARK  Name = ZINC27516478
REMARK  12 active torsions:
REMARK  status: ('A' for Active; 'I' for Inactive)
REMARK    1  A    between atoms: C_1  and  C_2
REMARK    2  A    between atoms: N_4  and  C_5
REMARK    3  A    between atoms: C_7  and  O_39
REMARK    4  A    between atoms: C_15  and  C_17
REMARK    5  A    between atoms: C_15  and  C_18
REMARK    6  A    between atoms: C_20  and  O_22
REMARK    7  A    between atoms: O_22  and  C_23
REMARK    8  A    between atoms: C_26  and  C_29
REMARK    9  A    between atoms: C_29  and  C_31
REMARK   10  A    between atoms: C_32  and  C_33
REMARK   11  A    between atoms: O_39  and  C_40
REMARK   12  A    between atoms: C_40  and  C_41
REMARK                            x       y       z     vdW  Elec       q    Type
REMARK                         _______ _______ _______ _____ _____    ______ ____
ROOT
ATOM      1  C   UNL     1      -0.735   1.919   1.269  0.00  0.00    +0.173 C 
ATOM      2  C   UNL     1      -2.184   1.424   1.243  0.00  0.00    +0.176 C 
ATOM      3  C   UNL     1      -2.861   1.909  -0.039  0.00  0.00    +0.183 C 
ATOM      4  C   UNL     1      -2.058   1.437  -1.256  0.00  0.00    +0.179 C 
ATOM      5  C   UNL     1      -2.688   2.035  -2.520  0.00  0.00    +0.197 C 
ATOM      6  O   UNL     1      -2.757   3.456  -2.372  0.00  0.00    -0.347 OA
ATOM      7  C   UNL     1      -3.503   3.884  -1.230  0.00  0.00    +0.165 C 
ATOM      8  O   UNL     1      -2.919   3.337  -0.045  0.00  0.00    -0.341 OA
ATOM      9  C   UNL     1      -4.949   3.401  -1.356  0.00  0.00    +0.074 C 
ATOM     10  C   UNL     1      -3.481   5.412  -1.151  0.00  0.00    +0.074 C 
ATOM     11  O   UNL     1      -0.709   1.899  -1.146  0.00  0.00    -0.332 OA
ATOM     12  C   UNL     1      -0.017   1.425   0.010  0.00  0.00    +0.331 C 
ENDROOT
BRANCH   1  16
ATOM     13  C   UNL     1       1.703   1.504   4.190  0.00  0.00    +0.109 C 
ATOM     14  C   UNL     1       1.007   2.044   2.968  0.00  0.00    +0.210 C 
ATOM     15  O   UNL     1       1.405   3.062   2.443  0.00  0.00    -0.276 OA
ATOM     16  N   UNL     1      -0.059   1.395   2.457  0.00  0.00    -0.304 N 
ATOM     17  H   UNL     1      -0.420   0.471   2.933  0.00  0.00    +0.149 HD
ENDBRANCH   1  16
BRANCH  12  18
ATOM     18  O   UNL     1       0.002  -0.004   0.002  0.00  0.00    -0.462 OA
BRANCH  18  19
ATOM     19  C   UNL     1       0.779  -0.605  -0.935  0.00  0.00    +0.124 A 
ATOM     20  C   UNL     1       1.504   0.169  -1.834  0.00  0.00    +0.046 A 
ATOM     21  C   UNL     1       2.297  -0.436  -2.783  0.00  0.00    +0.015 A 
ATOM     22  C   UNL     1       2.364  -1.831  -2.848  0.00  0.00    +0.022 A 
ATOM     23  C   UNL     1       1.629  -2.605  -1.946  0.00  0.00    +0.015 A 
ATOM     24  C   UNL     1       0.842  -1.992  -0.997  0.00  0.00    +0.046 A 
BRANCH  22  25
ATOM     25  C   UNL     1       3.210  -2.484  -3.868  0.00  0.00    +0.186 C 
ATOM     26  O   UNL     1       3.267  -3.699  -3.923  0.00  0.00    -0.287 OA
BRANCH  25  27
ATOM     27  C   UNL     1       3.978  -1.672  -4.811  0.00  0.00    +0.052 C 
ATOM     28  C   UNL     1       4.751  -2.269  -5.743  0.00  0.00    +0.011 C 
BRANCH  28  29
ATOM     29  C   UNL     1       5.524  -1.452  -6.691  0.00  0.00    -0.025 A 
ATOM     30  C   UNL     1       5.456  -0.056  -6.635  0.00  0.00    +0.008 A 
ATOM     31  C   UNL     1       6.188   0.703  -7.523  0.00  0.00    +0.001 A 
ATOM     32  C   UNL     1       6.979   0.086  -8.477  0.00  0.00    +0.000 A 
ATOM     33  C   UNL     1       7.047  -1.294  -8.544  0.00  0.00    +0.001 A 
ATOM     34  C   UNL     1       6.326  -2.067  -7.658  0.00  0.00    +0.008 A 
ENDBRANCH  28  29
ENDBRANCH  25  27
ENDBRANCH  22  25
ENDBRANCH  18  19
ENDBRANCH  12  18
BRANCH   2  35
ATOM     35  O   UNL     1      -2.885   1.939   2.377  0.00  0.00    -0.361 OA
BRANCH  35  36
ATOM     36  C   UNL     1      -2.822   1.097   3.530  0.00  0.00    +0.285 C 
BRANCH  36  37
ATOM     37  C   UNL     1      -3.590   1.734   4.660  0.00  0.00    +0.381 C 
ATOM     38  O   UNL     1      -4.135   2.800   4.494  0.00  0.00    -0.244 OA
ATOM     39  O   UNL     1      -3.669   1.118   5.850  0.00  0.00    -0.244 OA
ENDBRANCH  36  37
ENDBRANCH  35  36
ENDBRANCH   2  35
TORSDOF 9
