REMARK  Name = ZINC05455542
REMARK  7 active torsions:
REMARK  status: ('A' for Active; 'I' for Inactive)
REMARK    1  A    between atoms: C_1  and  C_2
REMARK    2  A    between atoms: C_2  and  C_3
REMARK    3  A    between atoms: C_4  and  C_31
REMARK    4  A    between atoms: C_5  and  C_29
REMARK    5  A    between atoms: C_15  and  N_16
REMARK    6  A    between atoms: N_16  and  N_17
REMARK    7  A    between atoms: C_18  and  C_19
REMARK                            x       y       z     vdW  Elec       q    Type
REMARK                         _______ _______ _______ _____ _____    ______ ____
ROOT
ATOM      1  C   UNL     1       4.514   0.088  -0.158  0.00  0.00    -0.003 A 
ATOM      2  C   UNL     1       5.322   1.217  -0.167  0.00  0.00    -0.023 A 
ATOM      3  C   UNL     1       4.739   2.478  -0.047  0.00  0.00    +0.098 A 
ATOM      4  C   UNL     1       3.280   2.571   0.086  0.00  0.00    +0.158 A 
ATOM      5  N   UNL     1       2.478   3.611   0.214  0.00  0.00    -0.226 NA
ATOM      6  C   UNL     1       1.195   3.188   0.304  0.00  0.00    +0.090 A 
ATOM      7  C   UNL     1      -0.027   3.856   0.448  0.00  0.00    +0.030 A 
ATOM      8  C   UNL     1      -1.189   3.142   0.512  0.00  0.00    +0.002 A 
ATOM      9  C   UNL     1      -1.174   1.756   0.429  0.00  0.00    +0.002 A 
ATOM     10  C   UNL     1       0.018   1.077   0.292  0.00  0.00    +0.028 A 
ATOM     11  C   UNL     1       1.210   1.784   0.226  0.00  0.00    +0.075 A 
ATOM     12  N   UNL     1       2.537   1.416   0.088  0.00  0.00    -0.278 N 
ATOM     13  C   UNL     1       3.147   0.198  -0.032  0.00  0.00    +0.128 A 
ATOM     14  C   UNL     1       6.816   1.081  -0.305  0.00  0.00    +0.045 C 
ENDROOT
BRANCH   1  16
ATOM     15  C   UNL     1       5.480  -1.816   1.103  0.00  0.00    +0.009 C 
ATOM     16  C   UNL     1       5.141  -1.276  -0.288  0.00  0.00    +0.035 C 
ENDBRANCH   1  16
BRANCH  13  17
ATOM     17  N   UNL     1       2.379  -0.942  -0.026  0.00  0.00    -0.222 N 
ATOM     18  H   UNL     1       2.462  -1.579   0.700  0.00  0.00    +0.176 HD
BRANCH  17  19
ATOM     19  N   UNL     1       1.476  -1.183  -1.070  0.00  0.00    -0.189 NA
ATOM     20  C   UNL     1       0.681  -2.211  -1.017  0.00  0.00    +0.139 C 
BRANCH  20  21
ATOM     21  C   UNL     1      -0.188  -2.527  -2.159  0.00  0.00    +0.005 A 
ATOM     22  C   UNL     1      -0.970  -3.683  -2.181  0.00  0.00    +0.030 A 
ATOM     23  C   UNL     1      -1.780  -3.938  -3.277  0.00  0.00    +0.112 A 
ATOM     24  N   UNL     1      -1.838  -3.139  -4.315  0.00  0.00    -0.255 NA
ATOM     25  C   UNL     1      -1.124  -2.012  -4.392  0.00  0.00    +0.072 A 
ATOM     26  C   UNL     1      -0.266  -1.646  -3.327  0.00  0.00    +0.009 A 
ATOM     27  C   UNL     1       0.482  -0.467  -3.407  0.00  0.00    +0.010 A 
ATOM     28  C   UNL     1       0.378   0.322  -4.514  0.00  0.00    +0.001 A 
ATOM     29  C   UNL     1      -0.465  -0.033  -5.565  0.00  0.00    +0.002 A 
ATOM     30  C   UNL     1      -1.206  -1.173  -5.518  0.00  0.00    +0.028 A 
ENDBRANCH  20  21
ENDBRANCH  17  19
ENDBRANCH  13  17
BRANCH   3  31
ATOM     31  C   UNL     1       5.548   3.660  -0.053  0.00  0.00    +0.103 C 
ATOM     32  N   UNL     1       6.189   4.597  -0.058  0.00  0.00    -0.191 NA
ENDBRANCH   3  31
TORSDOF 5
