REMARK  Name = ZINC08790631
REMARK  6 active torsions:
REMARK  status: ('A' for Active; 'I' for Inactive)
REMARK    1  A    between atoms: C_1  and  C_2
REMARK    2  A    between atoms: C_2  and  C_3
REMARK    3  A    between atoms: C_14  and  C_16
REMARK    4  A    between atoms: C_16  and  C_17
REMARK    5  A    between atoms: N_22  and  C_25
REMARK    6  A    between atoms: C_25  and  C_26
REMARK                            x       y       z     vdW  Elec       q    Type
REMARK                         _______ _______ _______ _____ _____    ______ ____
ROOT
ATOM      1  C   UNL     1       2.682   0.092   1.745  0.00  0.00    -0.047 A 
ATOM      2  C   UNL     1       1.553  -0.589   2.162  0.00  0.00    +0.005 A 
ATOM      3  C   UNL     1       0.319   0.027   2.134  0.00  0.00    +0.024 A 
ATOM      4  C   UNL     1       0.201   1.340   1.685  0.00  0.00    +0.036 A 
ATOM      5  C   UNL     1       1.344   2.015   1.268  0.00  0.00    -0.027 A 
ATOM      6  C   UNL     1       2.574   1.397   1.298  0.00  0.00    +0.008 A 
ATOM      7  C   UNL     1       0.884   3.383   0.852  0.00  0.00    +0.050 C 
ATOM      8  C   UNL     1       1.220   3.668  -0.618  0.00  0.00    +0.088 C 
ATOM      9  C   UNL     1       1.567   5.183  -0.653  0.00  0.00    +0.073 C 
ATOM     10  C   UNL     1       1.391   5.664   0.803  0.00  0.00    -0.049 C 
ATOM     11  C   UNL     1       3.035   5.197  -1.012  0.00  0.00    +0.224 C 
ATOM     12  O   UNL     1       3.716   6.191  -1.135  0.00  0.00    -0.275 OA
ATOM     13  N   UNL     1       3.466   3.940  -1.171  0.00  0.00    -0.237 N 
ATOM     14  C   UNL     1       2.530   3.003  -0.977  0.00  0.00    +0.225 C 
ATOM     15  O   UNL     1       2.705   1.808  -1.073  0.00  0.00    -0.275 OA
ATOM     16  C   UNL     1      -0.602   3.385   1.085  0.00  0.00    +0.211 C 
ATOM     17  O   UNL     1      -1.366   4.304   0.880  0.00  0.00    -0.277 OA
ATOM     18  N   UNL     1      -0.918   2.168   1.570  0.00  0.00    -0.286 N 
ATOM     19  H   UNL     1      -1.818   1.898   1.810  0.00  0.00    +0.155 HD
ATOM     20  N   UNL     1       1.537   4.444   1.599  0.00  0.00    +0.394 N 
ATOM     21  H   UNL     1       2.531   4.224   1.733  0.00  0.00    -0.083 HD
ATOM     22  H   UNL     1       1.087   4.562   2.515  0.00  0.00    -0.083 HD
ENDROOT
BRANCH   1  24
ATOM     23  C   UNL     1       4.276  -1.294   0.446  0.00  0.00    +0.009 C 
ATOM     24  C   UNL     1       4.028  -0.586   1.779  0.00  0.00    +0.032 C 
ENDBRANCH   1  24
BRANCH  10  25
ATOM     25  C   UNL     1      -0.002   6.263   1.001  0.00  0.00    +0.080 C 
BRANCH  25  26
ATOM     26  C   UNL     1       0.046   7.746   0.737  0.00  0.00    +0.209 C 
ATOM     27  O   UNL     1       1.092   8.272   0.421  0.00  0.00    -0.276 OA
ATOM     28  N   UNL     1      -1.074   8.487   0.852  0.00  0.00    -0.329 N 
ATOM     29  H   UNL     1      -1.910   8.067   1.104  0.00  0.00    +0.145 HD
ATOM     30  H   UNL     1      -1.043   9.442   0.682  0.00  0.00    +0.145 HD
ENDBRANCH  25  26
ENDBRANCH  10  25
BRANCH  13  31
ATOM     31  C   UNL     1       4.849   3.615  -1.529  0.00  0.00    +0.151 C 
BRANCH  31  32
ATOM     32  C   UNL     1       5.666   3.448  -0.274  0.00  0.00    -0.026 A 
ATOM     33  C   UNL     1       6.313   4.537   0.279  0.00  0.00    +0.009 A 
ATOM     34  C   UNL     1       7.059   4.390   1.433  0.00  0.00    +0.050 A 
ATOM     35  C   UNL     1       7.169   3.146   2.033  0.00  0.00    +0.166 A 
ATOM     36  C   UNL     1       6.522   2.047   1.474  0.00  0.00    +0.167 A 
ATOM     37  C   UNL     1       5.771   2.204   0.319  0.00  0.00    +0.054 A 
ATOM     38  O   UNL     1       6.782   0.949   2.242  0.00  0.00    -0.453 OA
ATOM     39  C   UNL     1       7.925   1.303   3.043  0.00  0.00    +0.466 C 
ATOM     40  O   UNL     1       7.835   2.736   3.152  0.00  0.00    -0.453 OA
ENDBRANCH  31  32
ENDBRANCH  13  31
TORSDOF 5
