REMARK  Name = ZINC37152001
REMARK  6 active torsions:
REMARK  status: ('A' for Active; 'I' for Inactive)
REMARK    1  A    between atoms: C_1  and  C_2
REMARK    2  A    between atoms: C_5  and  C_7
REMARK    3  A    between atoms: C_7  and  C_9
REMARK    4  A    between atoms: C_7  and  N_10
REMARK    5  A    between atoms: N_10  and  C_11
REMARK    6  A    between atoms: C_21  and  C_22
REMARK                            x       y       z     vdW  Elec       q    Type
REMARK                         _______ _______ _______ _____ _____    ______ ____
ROOT
ATOM      1  C   UNL     1       3.533  -4.027   1.434  0.00  0.00    +0.046 A 
ATOM      2  C   UNL     1       4.611  -3.775   2.281  0.00  0.00    +0.028 A 
ATOM      3  C   UNL     1       5.287  -4.853   2.824  0.00  0.00    +0.048 A 
ATOM      4  C   UNL     1       4.873  -6.141   2.510  0.00  0.00    +0.139 A 
ATOM      5  N   UNL     1       3.845  -6.344   1.703  0.00  0.00    -0.236 NA
ATOM      6  C   UNL     1       3.173  -5.341   1.170  0.00  0.00    +0.136 A 
ATOM      7  N   UNL     1       5.551  -7.238   3.055  0.00  0.00    -0.288 N 
ATOM      8  C   UNL     1       6.624  -7.191   3.908  0.00  0.00    +0.114 A 
ATOM      9  C   UNL     1       6.960  -8.466   4.182  0.00  0.00    +0.131 A 
ATOM     10  N   UNL     1       6.119  -9.273   3.518  0.00  0.00    -0.241 NA
ATOM     11  C   UNL     1       5.267  -8.550   2.845  0.00  0.00    +0.112 A 
ATOM     12  C   UNL     1       4.156  -9.080   1.975  0.00  0.00    +0.086 C 
ENDROOT
BRANCH   1  13
ATOM     13  N   UNL     1       2.819  -2.969   0.861  0.00  0.00    -0.333 N 
ATOM     14  H   UNL     1       3.076  -2.053   1.050  0.00  0.00    +0.147 HD
BRANCH  13  15
ATOM     15  C   UNL     1       1.684  -3.245  -0.023  0.00  0.00    +0.133 C 
ATOM     16  C   UNL     1       2.192  -3.480  -1.447  0.00  0.00    +0.036 C 
BRANCH  15  21
ATOM     17  C   UNL     1      -0.018   1.503   0.010  0.00  0.00    +0.086 C 
ATOM     18  C   UNL     1       0.002  -0.004   0.002  0.00  0.00    +0.102 A 
ATOM     19  C   UNL     1      -1.078  -0.805   0.003  0.00  0.00    +0.045 A 
ATOM     20  C   UNL     1      -0.601  -2.136  -0.007  0.00  0.00    +0.047 A 
ATOM     21  C   UNL     1       0.742  -2.069  -0.013  0.00  0.00    +0.125 A 
ATOM     22  O   UNL     1       1.102  -0.775  -0.013  0.00  0.00    -0.463 OA
ENDBRANCH  15  21
ENDBRANCH  13  15
ENDBRANCH   1  13
TORSDOF 3
