REMARK  Name = ZINC06443694
REMARK  12 active torsions:
REMARK  status: ('A' for Active; 'I' for Inactive)
REMARK    1  A    between atoms: C_1  and  C_2
REMARK    2  A    between atoms: C_12  and  C_14
REMARK    3  A    between atoms: C_14  and  C_16
REMARK    4  A    between atoms: C_14  and  N_64
REMARK    5  A    between atoms: N_20  and  C_21
REMARK    6  A    between atoms: C_21  and  C_22
REMARK    7  A    between atoms: C_22  and  O_23
REMARK    8  A    between atoms: O_23  and  C_24
REMARK    9  A    between atoms: C_25  and  C_26
REMARK   10  A    between atoms: C_25  and  N_64
REMARK   11  A    between atoms: C_33  and  C_34
REMARK   12  A    between atoms: C_33  and  N_64
REMARK                            x       y       z     vdW  Elec       q    Type
REMARK                         _______ _______ _______ _____ _____    ______ ____
ROOT
ATOM      1  C   UNL     1       0.238  -2.648   4.944  0.00  0.00    +0.040 C 
ENDROOT
BRANCH   1  13
ATOM      2  C   UNL     1       1.151   1.465  -0.101  0.00  0.00    +0.046 C 
ATOM      3  C   UNL     1       1.346  -0.025   0.017  0.00  0.00    -0.026 A 
ATOM      4  C   UNL     1       1.786  -0.753  -1.068  0.00  0.00    +0.005 A 
ATOM      5  C   UNL     1       1.975  -2.124  -0.971  0.00  0.00    +0.001 A 
ATOM      6  C   UNL     1       1.717  -2.781   0.199  0.00  0.00    +0.010 A 
ATOM      7  C   UNL     1       1.264  -2.064   1.311  0.00  0.00    -0.001 A 
ATOM      8  C   UNL     1       1.077  -0.671   1.218  0.00  0.00    +0.052 A 
ATOM      9  N   UNL     1       0.631   0.031   2.318  0.00  0.00    -0.322 N 
ATOM     10  H   UNL     1       0.503   0.990   2.252  0.00  0.00    +0.169 HD
ATOM     11  C   UNL     1       0.371  -0.595   3.479  0.00  0.00    +0.251 A 
ATOM     12  O   UNL     1      -0.022   0.058   4.430  0.00  0.00    -0.268 OA
ATOM     13  C   UNL     1       0.542  -1.988   3.624  0.00  0.00    +0.011 A 
ATOM     14  C   UNL     1       0.978  -2.735   2.580  0.00  0.00    +0.017 A 
ENDBRANCH   1  13
BRANCH   1  15
ATOM     15  C   UNL     1       1.201  -2.147   5.990  0.00  0.00    +0.143 A 
ATOM     16  N   UNL     1       1.096  -1.042   6.686  0.00  0.00    -0.115 NA
ATOM     17  N   UNL     1       2.114  -0.968   7.473  0.00  0.00    -0.023 NA
ATOM     18  N   UNL     1       2.865  -1.998   7.296  0.00  0.00    -0.044 NA
ATOM     19  N   UNL     1       2.334  -2.752   6.394  0.00  0.00    -0.228 N 
BRANCH  19  20
ATOM     20  C   UNL     1       2.866  -4.024   5.899  0.00  0.00    +0.175 C 
BRANCH  20  21
ATOM     21  C   UNL     1       3.873  -3.755   4.779  0.00  0.00    +0.183 C 
BRANCH  21  22
ATOM     22  O   UNL     1       4.391  -4.997   4.297  0.00  0.00    -0.381 OA
ATOM     23  C   UNL     1       5.346  -4.857   3.242  0.00  0.00    +0.194 C 
ENDBRANCH  21  22
ENDBRANCH  20  21
ENDBRANCH  19  20
ENDBRANCH   1  15
BRANCH   1  24
ATOM     24  N   UNL     1      -1.138  -2.295   5.353  0.00  0.00    +0.397 N 
ATOM     25  H   UNL     1      -1.196  -1.278   5.484  0.00  0.00    -0.079 HD
BRANCH  24  26
ATOM     26  C   UNL     1      -1.473  -2.964   6.628  0.00  0.00    -0.041 C 
BRANCH  26  27
ATOM     27  C   UNL     1      -1.382  -4.461   6.479  0.00  0.00    -0.064 A 
ATOM     28  C   UNL     1      -2.499  -5.188   6.111  0.00  0.00    +0.003 A 
ATOM     29  C   UNL     1      -2.414  -6.560   5.969  0.00  0.00    +0.020 A 
ATOM     30  C   UNL     1      -1.214  -7.207   6.207  0.00  0.00    +0.041 A 
ATOM     31  C   UNL     1      -0.099  -6.480   6.580  0.00  0.00    +0.020 A 
ATOM     32  C   UNL     1      -0.183  -5.107   6.717  0.00  0.00    +0.003 A 
ATOM     33 CL   UNL     1      -1.109  -8.932   6.035  0.00  0.00    -0.084 Cl
ENDBRANCH  26  27
ENDBRANCH  24  26
BRANCH  24  34
ATOM     34  C   UNL     1      -2.096  -2.699   4.303  0.00  0.00    -0.001 C 
BRANCH  34  35
ATOM     35  C   UNL     1      -3.413  -2.014   4.560  0.00  0.00    +0.089 A 
ATOM     36  C   UNL     1      -3.798  -0.831   4.049  0.00  0.00    +0.042 A 
ATOM     37  C   UNL     1      -5.094  -0.571   4.549  0.00  0.00    +0.041 A 
ATOM     38  C   UNL     1      -5.425  -1.610   5.336  0.00  0.00    +0.195 A 
ATOM     39  O   UNL     1      -4.405  -2.484   5.334  0.00  0.00    -0.470 OA
ENDBRANCH  34  35
ENDBRANCH  24  34
ENDBRANCH   1  24
TORSDOF 10
