REMARK  Name = ZINC09610999
REMARK  7 active torsions:
REMARK  status: ('A' for Active; 'I' for Inactive)
REMARK    1  A    between atoms: C_5  and  C_7
REMARK    2  A    between atoms: N_9  and  C_10
REMARK    3  A    between atoms: C_10  and  C_11
REMARK    4  A    between atoms: C_14  and  S_23
REMARK    5  A    between atoms: N_15  and  C_16
REMARK    6  A    between atoms: S_23  and  C_24
REMARK    7  A    between atoms: C_24  and  C_25
REMARK                            x       y       z     vdW  Elec       q    Type
REMARK                         _______ _______ _______ _____ _____    ______ ____
ROOT
ATOM      1  C   UNL     1      -2.335   5.670   0.044  0.00  0.00    +0.156 A 
ATOM      2  N   UNL     1      -2.203   6.426   1.097  0.00  0.00    -0.132 NA
ATOM      3  N   UNL     1      -1.987   7.643   0.744  0.00  0.00    -0.122 NA
ATOM      4  C   UNL     1      -1.979   7.733  -0.566  0.00  0.00    +0.197 A 
ATOM      5  N   UNL     1      -2.200   6.476  -1.055  0.00  0.00    -0.273 N 
ENDROOT
BRANCH   5   6
ATOM      6  C   UNL     1      -2.274   6.091  -2.403  0.00  0.00    +0.050 A 
ATOM      7  C   UNL     1      -1.318   5.237  -2.935  0.00  0.00    +0.029 A 
ATOM      8  C   UNL     1      -1.395   4.856  -4.260  0.00  0.00    +0.040 A 
ATOM      9  C   UNL     1      -2.420   5.332  -5.060  0.00  0.00    +0.124 A 
ATOM     10  C   UNL     1      -3.372   6.188  -4.532  0.00  0.00    +0.040 A 
ATOM     11  C   UNL     1      -3.301   6.567  -3.206  0.00  0.00    +0.029 A 
ATOM     12  F   UNL     1      -2.491   4.961  -6.357  0.00  0.00    -0.205 F 
ENDBRANCH   5   6
BRANCH   1  13
ATOM     13  C   UNL     1      -2.595   4.185   0.037  0.00  0.00    +0.181 C 
BRANCH  13  16
ATOM     14  C   UNL     1      -1.304   2.119   0.020  0.00  0.00    +0.247 C 
ATOM     15  O   UNL     1      -2.350   1.500   0.021  0.00  0.00    -0.270 OA
ATOM     16  N   UNL     1      -1.318   3.466   0.027  0.00  0.00    -0.304 N 
ATOM     17  H   UNL     1      -0.483   3.960   0.026  0.00  0.00    +0.149 HD
BRANCH  14  22
ATOM     18  C   UNL     1       2.385   1.419  -0.014  0.00  0.00    +0.001 A 
ATOM     19  C   UNL     1       2.398   0.035  -0.021  0.00  0.00    +0.003 A 
ATOM     20  C   UNL     1       1.212  -0.675  -0.013  0.00  0.00    +0.039 A 
ATOM     21  C   UNL     1       0.002  -0.004   0.002  0.00  0.00    +0.135 A 
ATOM     22  C   UNL     1      -0.017   1.394   0.010  0.00  0.00    +0.072 A 
ATOM     23  C   UNL     1       1.187   2.102   0.002  0.00  0.00    +0.016 A 
ATOM     24  F   UNL     1      -1.157  -0.698   0.009  0.00  0.00    -0.205 F 
ENDBRANCH  14  22
ENDBRANCH  13  16
ENDBRANCH   1  13
BRANCH   4  25
ATOM     25  S   UNL     1      -1.729   9.198  -1.514  0.00  0.00    -0.076 S 
BRANCH  25  26
ATOM     26  C   UNL     1      -1.512  10.402  -0.180  0.00  0.00    +0.173 C 
BRANCH  26  27
ATOM     27  C   UNL     1      -1.277  11.768  -0.770  0.00  0.00    +0.229 C 
ATOM     28  O   UNL     1      -1.259  11.914  -1.974  0.00  0.00    -0.275 OA
ATOM     29  N   UNL     1      -1.088  12.829   0.040  0.00  0.00    -0.264 N 
ATOM     30  C   UNL     1      -0.872  14.089  -0.505  0.00  0.00    +0.164 A 
ATOM     31  N   UNL     1      -0.811  14.445  -1.774  0.00  0.00    -0.233 NA
ATOM     32  C   UNL     1      -0.601  15.699  -2.123  0.00  0.00    +0.120 A 
ATOM     33  C   UNL     1      -0.435  16.622  -1.145  0.00  0.00    +0.068 A 
ATOM     34  S   UNL     1      -0.604  15.599   0.310  0.00  0.00    -0.061 S 
ATOM     35  H   UNL     1      -1.103  12.713   1.002  0.00  0.00    +0.157 HD
ENDBRANCH  26  27
ENDBRANCH  25  26
ENDBRANCH   4  25
TORSDOF 7
