REMARK  Name = ZINC63737759
REMARK  4 active torsions:
REMARK  status: ('A' for Active; 'I' for Inactive)
REMARK    1  A    between atoms: C_6  and  C_11
REMARK    2  A    between atoms: C_16  and  C_19
REMARK    3  A    between atoms: C_19  and  C_20
REMARK    4  A    between atoms: N_22  and  C_23
REMARK                            x       y       z     vdW  Elec       q    Type
REMARK                         _______ _______ _______ _____ _____    ______ ____
ROOT
ATOM      1  C   UNL     1       3.656  -2.764   1.185  0.00  0.00    +0.242 C 
ATOM      2  O   UNL     1       4.332  -2.165   1.995  0.00  0.00    -0.273 OA
ATOM      3  N   UNL     1       3.363  -4.065   1.381  0.00  0.00    -0.300 N 
ATOM      4  C   UNL     1       2.551  -4.805   0.406  0.00  0.00    +0.108 C 
ATOM      5  C   UNL     1       1.375  -5.457   1.139  0.00  0.00    +0.023 C 
ATOM      6  C   UNL     1       1.907  -6.313   2.291  0.00  0.00    +0.001 C 
ATOM      7  C   UNL     1       2.660  -5.423   3.283  0.00  0.00    +0.023 C 
ATOM      8  C   UNL     1       3.856  -4.771   2.571  0.00  0.00    +0.108 C 
ENDROOT
BRANCH   1  14
ATOM      9  C   UNL     1      -0.016   1.348   0.009  0.00  0.00    +0.001 A 
ATOM     10  C   UNL     1       1.166   2.101   0.002  0.00  0.00    +0.002 A 
ATOM     11  C   UNL     1       2.391   1.535  -0.013  0.00  0.00    +0.026 A 
ATOM     12  C   UNL     1       2.529   0.120  -0.022  0.00  0.00    +0.043 A 
ATOM     13  N   UNL     1       3.587  -0.654  -0.037  0.00  0.00    -0.370 N 
ATOM     14  C   UNL     1       3.143  -2.053  -0.041  0.00  0.00    +0.190 C 
ATOM     15  C   UNL     1       1.631  -2.008  -0.025  0.00  0.00    +0.016 C 
ATOM     16  C   UNL     1       1.295  -0.698  -0.014  0.00  0.00    -0.004 A 
ATOM     17  C   UNL     1       0.002  -0.004   0.002  0.00  0.00    +0.010 A 
ATOM     18  H   UNL     1       4.509  -0.353  -0.045  0.00  0.00    +0.161 HD
ENDBRANCH   1  14
BRANCH   6  19
ATOM     19  C   UNL     1       0.737  -6.994   3.003  0.00  0.00    +0.099 C 
BRANCH  19  20
ATOM     20  C   UNL     1       1.268  -7.930   4.058  0.00  0.00    +0.214 C 
ATOM     21  O   UNL     1       2.464  -8.042   4.223  0.00  0.00    -0.276 OA
ATOM     22  N   UNL     1       0.413  -8.644   4.817  0.00  0.00    -0.312 N 
ATOM     23  H   UNL     1      -0.544  -8.555   4.685  0.00  0.00    +0.149 HD
BRANCH  22  24
ATOM     24  C   UNL     1       0.929  -9.555   5.842  0.00  0.00    +0.073 C 
ATOM     25  C   UNL     1       1.326 -10.886   5.173  0.00  0.00    +0.022 C 
ATOM     26  C   UNL     1       2.295 -11.603   6.074  0.00  0.00    +0.002 C 
ATOM     27  C   UNL     1       1.597 -12.610   7.008  0.00  0.00    +0.000 C 
ATOM     28  C   UNL     1       0.284 -12.065   7.601  0.00  0.00    +0.000 C 
ATOM     29  C   UNL     1       0.399 -10.627   8.028  0.00  0.00    +0.002 C 
ATOM     30  C   UNL     1      -0.086  -9.731   6.870  0.00  0.00    +0.022 C 
ENDBRANCH  22  24
ENDBRANCH  19  20
ENDBRANCH   6  19
TORSDOF 4
