REMARK  Name = ZINC21461863
REMARK  13 active torsions:
REMARK  status: ('A' for Active; 'I' for Inactive)
REMARK    1  A    between atoms: C_1  and  C_2
REMARK    2  A    between atoms: C_2  and  C_3
REMARK    3  A    between atoms: C_2  and  C_4
REMARK    4  A    between atoms: C_2  and  C_5
REMARK    5  A    between atoms: C_8  and  O_11
REMARK    6  A    between atoms: O_11  and  C_12
REMARK    7  A    between atoms: C_12  and  C_13
REMARK    8  A    between atoms: C_16  and  S_19
REMARK    9  A    between atoms: N_17  and  N_18
REMARK   10  A    between atoms: S_19  and  C_20
REMARK   11  A    between atoms: C_20  and  C_21
REMARK   12  A    between atoms: N_23  and  C_24
REMARK   13  A    between atoms: C_27  and  N_31
REMARK                            x       y       z     vdW  Elec       q    Type
REMARK                         _______ _______ _______ _____ _____    ______ ____
ROOT
ATOM      1  C   UNL     1      -0.666   3.838  -0.026  0.00  0.00    +0.189 A 
ATOM      2  N   UNL     1       0.636   3.778  -0.036  0.00  0.00    -0.128 NA
ATOM      3  N   UNL     1       1.021   2.552  -0.036  0.00  0.00    -0.121 NA
ATOM      4  C   UNL     1      -0.024   1.756  -0.026  0.00  0.00    +0.209 A 
ATOM      5  N   UNL     1      -1.133   2.553  -0.026  0.00  0.00    -0.225 N 
ENDROOT
BRANCH   5   6
ATOM      6  N   UNL     1      -2.438   2.150  -0.024  0.00  0.00    -0.295 N 
ATOM      7  H   UNL     1      -2.682   1.077  -0.024  0.00  0.00    +0.163 HD
ATOM      8  H   UNL     1      -3.245   2.897  -0.021  0.00  0.00    +0.163 HD
ENDBRANCH   5   6
BRANCH   1   9
ATOM      9  C   UNL     1      -1.502   5.092  -0.023  0.00  0.00    +0.306 C 
BRANCH   9  10
ATOM     10  O   UNL     1      -1.775   5.486  -1.369  0.00  0.00    -0.484 OA
BRANCH  10  14
ATOM     11  C   UNL     1      -4.047   8.888  -1.901  0.00  0.00    -0.042 A 
ATOM     12  C   UNL     1      -3.588   8.186  -3.001  0.00  0.00    +0.008 A 
ATOM     13  C   UNL     1      -2.827   7.046  -2.825  0.00  0.00    +0.046 A 
ATOM     14  C   UNL     1      -2.524   6.606  -1.545  0.00  0.00    +0.121 A 
ATOM     15  C   UNL     1      -2.990   7.309  -0.444  0.00  0.00    +0.046 A 
ATOM     16  C   UNL     1      -3.746   8.452  -0.624  0.00  0.00    +0.008 A 
BRANCH  11  18
ATOM     17  C   UNL     1      -6.150   9.778  -2.868  0.00  0.00    +0.015 C 
ATOM     18  C   UNL     1      -4.878  10.130  -2.096  0.00  0.00    -0.013 C 
ATOM     19  C   UNL     1      -5.253  10.711  -0.731  0.00  0.00    +0.015 C 
ATOM     20  C   UNL     1      -4.071  11.164  -2.885  0.00  0.00    +0.015 C 
ENDBRANCH  11  18
ENDBRANCH  10  14
ENDBRANCH   9  10
ENDBRANCH   1   9
BRANCH   4  21
ATOM     21  S   UNL     1       0.001  -0.005  -0.023  0.00  0.00    -0.075 S 
BRANCH  21  22
ATOM     22  C   UNL     1       1.788  -0.295  -0.034  0.00  0.00    +0.173 C 
BRANCH  22  23
ATOM     23  C   UNL     1       2.057  -1.778  -0.033  0.00  0.00    +0.228 C 
ATOM     24  O   UNL     1       1.131  -2.562  -0.025  0.00  0.00    -0.275 OA
ATOM     25  N   UNL     1       3.325  -2.232  -0.040  0.00  0.00    -0.284 N 
ATOM     26  H   UNL     1       4.163  -1.524  -0.122  0.00  0.00    +0.155 HD
BRANCH  25  27
ATOM     27  C   UNL     1       3.577  -3.606   0.056  0.00  0.00    +0.052 A 
ATOM     28  C   UNL     1       2.708  -4.515  -0.532  0.00  0.00    +0.027 A 
ATOM     29  C   UNL     1       2.958  -5.870  -0.436  0.00  0.00    +0.034 A 
ATOM     30  C   UNL     1       4.074  -6.322   0.245  0.00  0.00    +0.128 A 
ATOM     31  C   UNL     1       4.942  -5.420   0.833  0.00  0.00    +0.054 A 
ATOM     32  C   UNL     1       4.700  -4.062   0.735  0.00  0.00    +0.064 A 
ATOM     33 CL   UNL     1       5.793  -2.930   1.466  0.00  0.00    -0.082 Cl
BRANCH  30  34
ATOM     34  N   UNL     1       4.339  -7.775   0.346  0.00  0.00    +0.056 N 
ATOM     35  O   UNL     1       3.576  -8.571  -0.171  0.00  0.00    -0.126 OA
ATOM     36  O   UNL     1       5.321  -8.174   0.946  0.00  0.00    -0.126 OA
ENDBRANCH  30  34
ENDBRANCH  25  27
ENDBRANCH  22  23
ENDBRANCH  21  22
ENDBRANCH   4  21
TORSDOF 10
