REMARK  Name = ZINC22461337
REMARK  10 active torsions:
REMARK  status: ('A' for Active; 'I' for Inactive)
REMARK    1  A    between atoms: C_1  and  C_2
REMARK    2  A    between atoms: C_2  and  O_3
REMARK    3  A    between atoms: O_3  and  C_4
REMARK    4  A    between atoms: C_4  and  C_6
REMARK    5  A    between atoms: C_7  and  C_35
REMARK    6  A    between atoms: C_11  and  C_20
REMARK    7  A    between atoms: C_12  and  O_19
REMARK    8  A    between atoms: C_20  and  C_22
REMARK    9  A    between atoms: C_20  and  N_28
REMARK   10  A    between atoms: N_31  and  C_34
REMARK                            x       y       z     vdW  Elec       q    Type
REMARK                         _______ _______ _______ _____ _____    ______ ____
ROOT
ATOM      1  C   UNL     1      -1.165   5.199  -5.173  0.00  0.00    +0.108 A 
ATOM      2  C   UNL     1      -0.843   6.279  -5.939  0.00  0.00    +0.117 A 
ATOM      3  O   UNL     1      -0.775   7.370  -5.169  0.00  0.00    -0.458 OA
ATOM      4  C   UNL     1      -1.027   7.075  -3.878  0.00  0.00    +0.144 A 
ATOM      5  C   UNL     1      -1.288   5.710  -3.793  0.00  0.00    +0.044 A 
ATOM      6  C   UNL     1      -1.594   5.109  -2.563  0.00  0.00    +0.029 A 
ATOM      7  C   UNL     1      -1.631   5.848  -1.420  0.00  0.00    +0.130 A 
ATOM      8  C   UNL     1      -1.367   7.235  -1.465  0.00  0.00    +0.027 A 
ATOM      9  C   UNL     1      -1.062   7.854  -2.701  0.00  0.00    +0.029 A 
ATOM     10  C   UNL     1      -0.800   9.233  -2.736  0.00  0.00    +0.012 A 
ATOM     11  C   UNL     1      -0.843   9.957  -1.583  0.00  0.00    +0.001 A 
ATOM     12  C   UNL     1      -1.142   9.349  -0.367  0.00  0.00    +0.001 A 
ATOM     13  C   UNL     1      -1.401   8.013  -0.297  0.00  0.00    +0.012 A 
ATOM     14  C   UNL     1      -0.614   6.251  -7.428  0.00  0.00    +0.087 C 
ENDROOT
BRANCH   1  15
ATOM     15  C   UNL     1      -1.351   3.813  -5.627  0.00  0.00    +0.343 C 
ATOM     16  O   UNL     1      -2.451   3.431  -5.976  0.00  0.00    -0.245 OA
BRANCH  15  17
ATOM     17  O   UNL     1      -0.303   2.967  -5.655  0.00  0.00    -0.461 OA
BRANCH  17  19
ATOM     18  C   UNL     1       0.739   0.806  -6.078  0.00  0.00    +0.048 C 
ATOM     19  C   UNL     1      -0.560   1.613  -6.115  0.00  0.00    +0.229 C 
ENDBRANCH  17  19
ENDBRANCH  15  17
ENDBRANCH   1  15
BRANCH   7  20
ATOM     20  O   UNL     1      -1.923   5.250  -0.235  0.00  0.00    -0.506 OA
ATOM     21  H   UNL     1      -1.954   5.847   0.689  0.00  0.00    +0.292 HD
ENDBRANCH   7  20
BRANCH   6  22
ATOM     22  C   UNL     1      -1.878   3.630  -2.505  0.00  0.00    +0.140 C 
BRANCH  22  23
ATOM     23  N   UNL     1      -1.107   3.026  -1.411  0.00  0.00    -0.294 NA
ATOM     24  C   UNL     1       0.327   3.318  -1.553  0.00  0.00    +0.067 C 
ATOM     25  C   UNL     1       1.083   2.741  -0.354  0.00  0.00    -0.064 C 
ATOM     26  N   UNL     1       0.849   1.292  -0.281  0.00  0.00    +0.379 N 
ATOM     27  C   UNL     1      -0.585   1.000  -0.139  0.00  0.00    -0.064 C 
ATOM     28  C   UNL     1      -1.341   1.577  -1.338  0.00  0.00    +0.067 C 
ATOM     29  C   UNL     1       1.620   0.688   0.814  0.00  0.00    -0.096 C 
ATOM     30  H   UNL     1       1.195   0.843  -1.224  0.00  0.00    -0.082 HD
ENDBRANCH  22  23
BRANCH  22  31
ATOM     31  C   UNL     1      -3.349   3.410  -2.264  0.00  0.00    +0.063 A 
ATOM     32  C   UNL     1      -4.223   3.401  -3.335  0.00  0.00    +0.025 A 
ATOM     33  C   UNL     1      -5.574   3.198  -3.103  0.00  0.00    +0.003 A 
ATOM     34  C   UNL     1      -5.998   3.010  -1.796  0.00  0.00    +0.020 A 
ATOM     35  C   UNL     1      -5.066   3.032  -0.776  0.00  0.00    +0.111 A 
ATOM     36  N   UNL     1      -3.787   3.223  -1.035  0.00  0.00    -0.258 NA
ENDBRANCH  22  31
ENDBRANCH   6  22
TORSDOF 7
