REMARK  Name = ZINC04860316
REMARK  10 active torsions:
REMARK  status: ('A' for Active; 'I' for Inactive)
REMARK    1  A    between atoms: C_1  and  C_2
REMARK    2  A    between atoms: C_2  and  O_3
REMARK    3  A    between atoms: O_3  and  C_4
REMARK    4  A    between atoms: C_4  and  C_6
REMARK    5  A    between atoms: C_7  and  N_17
REMARK    6  A    between atoms: C_18  and  C_20
REMARK    7  A    between atoms: C_20  and  C_22
REMARK    8  A    between atoms: C_20  and  N_56
REMARK    9  A    between atoms: C_24  and  C_31
REMARK   10  A    between atoms: C_27  and  C_30
REMARK                            x       y       z     vdW  Elec       q    Type
REMARK                         _______ _______ _______ _____ _____    ______ ____
ROOT
ATOM      1  C   UNL     1       1.160   0.502   0.831  0.00  0.00    +0.147 A 
ATOM      2  C   UNL     1       2.090   0.912  -0.101  0.00  0.00    +0.073 A 
ATOM      3  C   UNL     1       1.350   1.205  -1.331  0.00  0.00    +0.024 A 
ATOM      4  C   UNL     1       1.733   1.651  -2.600  0.00  0.00    +0.050 A 
ATOM      5  C   UNL     1       0.777   1.836  -3.574  0.00  0.00    +0.124 A 
ATOM      6  C   UNL     1      -0.563   1.581  -3.301  0.00  0.00    +0.040 A 
ATOM      7  C   UNL     1      -0.954   1.141  -2.057  0.00  0.00    +0.029 A 
ATOM      8  C   UNL     1      -0.005   0.947  -1.056  0.00  0.00    +0.049 A 
ATOM      9  N   UNL     1      -0.100   0.525   0.251  0.00  0.00    -0.348 N 
ATOM     10  H   UNL     1      -0.925   0.284   0.700  0.00  0.00    +0.166 HD
ATOM     11  F   UNL     1       1.143   2.268  -4.801  0.00  0.00    -0.205 F 
ENDROOT
BRANCH   2  12
ATOM     12  N   UNL     1       3.463   1.026   0.090  0.00  0.00    -0.284 N 
ATOM     13  C   UNL     1       4.177   1.897  -0.650  0.00  0.00    +0.203 C 
ATOM     14  O   UNL     1       3.612   2.633  -1.432  0.00  0.00    -0.277 OA
ATOM     15  H   UNL     1       3.908   0.478   0.756  0.00  0.00    +0.155 HD
BRANCH  13  16
ATOM     16  C   UNL     1       5.676   1.958  -0.507  0.00  0.00    +0.016 C 
ATOM     17  C   UNL     1       6.320   0.952  -1.464  0.00  0.00    -0.004 C 
BRANCH  16  25
ATOM     18  C   UNL     1       5.474   4.315   0.006  0.00  0.00    -0.075 C 
ATOM     19  C   UNL     1       5.876   5.718  -0.456  0.00  0.00    -0.031 C 
ATOM     20  C   UNL     1       7.396   5.869  -0.348  0.00  0.00    +0.003 C 
ATOM     21  C   UNL     1       8.070   4.782  -1.190  0.00  0.00    -0.031 C 
ATOM     22  C   UNL     1       7.605   3.407  -0.707  0.00  0.00    -0.075 C 
ATOM     23  C   UNL     1       9.589   4.888  -1.040  0.00  0.00    +0.005 C 
ATOM     24  C   UNL     1       5.194   6.762   0.430  0.00  0.00    +0.005 C 
ATOM     25  N   UNL     1       6.137   3.316  -0.860  0.00  0.00    +0.387 N 
ATOM     26  H   UNL     1       5.891   3.508  -1.838  0.00  0.00    -0.081 HD
ENDBRANCH  16  25
ENDBRANCH  13  16
ENDBRANCH   2  12
BRANCH   1  27
ATOM     27  C   UNL     1       1.445   0.119   2.167  0.00  0.00    +0.358 C 
ATOM     28  O   UNL     1       2.576   0.227   2.602  0.00  0.00    -0.243 OA
BRANCH  27  29
ATOM     29  O   UNL     1       0.462  -0.365   2.954  0.00  0.00    -0.460 OA
BRANCH  29  31
ATOM     30  C   UNL     1      -0.416  -1.254   5.023  0.00  0.00    +0.048 C 
ATOM     31  C   UNL     1       0.820  -0.731   4.288  0.00  0.00    +0.229 C 
ENDBRANCH  29  31
ENDBRANCH  27  29
ENDBRANCH   1  27
TORSDOF 6
