REMARK  Name = ZINC35919655
REMARK  8 active torsions:
REMARK  status: ('A' for Active; 'I' for Inactive)
REMARK    1  A    between atoms: C_1  and  C_2
REMARK    2  A    between atoms: C_2  and  C_3
REMARK    3  A    between atoms: C_3  and  C_5
REMARK    4  A    between atoms: C_3  and  C_11
REMARK    5  A    between atoms: C_18  and  N_35
REMARK    6  A    between atoms: N_25  and  C_28
REMARK    7  A    between atoms: N_35  and  C_36
REMARK    8  A    between atoms: N_35  and  C_37
REMARK                            x       y       z     vdW  Elec       q    Type
REMARK                         _______ _______ _______ _____ _____    ______ ____
ROOT
ATOM      1  C   UNL     1      -1.526  -1.962   0.184  0.00  0.00    +0.223 C 
ATOM      2  O   UNL     1      -2.023  -2.586  -0.729  0.00  0.00    -0.275 OA
ATOM      3  N   UNL     1      -1.074  -2.610   1.276  0.00  0.00    -0.296 N 
ATOM      4  C   UNL     1      -0.572  -1.876   2.449  0.00  0.00    +0.114 C 
ATOM      5  C   UNL     1      -1.497  -2.178   3.628  0.00  0.00    +0.072 C 
ATOM      6  C   UNL     1      -1.763  -3.655   3.733  0.00  0.00    +0.028 A 
ATOM      7  C   UNL     1      -1.578  -4.523   2.685  0.00  0.00    +0.029 A 
ATOM      8  C   UNL     1      -1.868  -5.879   2.876  0.00  0.00    +0.131 A 
ATOM      9  N   UNL     1      -2.303  -6.288   4.063  0.00  0.00    -0.201 NA
ATOM     10  C   UNL     1      -2.459  -5.423   5.053  0.00  0.00    +0.198 A 
ATOM     11  N   UNL     1      -2.197  -4.135   4.896  0.00  0.00    -0.331 N 
ATOM     12  N   UNL     1      -2.908  -5.876   6.281  0.00  0.00    -0.298 N 
ATOM     13  C   UNL     1      -3.219  -4.928   7.360  0.00  0.00    +0.127 C 
ATOM     14  C   UNL     1      -4.659  -5.172   7.828  0.00  0.00    +0.124 C 
ATOM     15  N   UNL     1      -4.834  -6.610   8.076  0.00  0.00    -0.325 N 
ATOM     16  C   UNL     1      -4.524  -7.558   6.997  0.00  0.00    +0.124 C 
ATOM     17  C   UNL     1      -3.089  -7.313   6.527  0.00  0.00    +0.127 C 
ATOM     18  C   UNL     1      -1.069  -4.077   1.345  0.00  0.00    +0.148 C 
ATOM     19  H   UNL     1      -2.325  -3.530   5.643  0.00  0.00    +0.168 HD
ENDROOT
BRANCH  15  20
ATOM     20  C   UNL     1      -5.288  -7.068   9.317  0.00  0.00    +0.065 A 
ATOM     21  C   UNL     1      -6.648  -7.230   9.544  0.00  0.00    +0.026 A 
ATOM     22  C   UNL     1      -7.093  -7.683  10.771  0.00  0.00    +0.002 A 
ATOM     23  C   UNL     1      -6.186  -7.975  11.774  0.00  0.00    +0.003 A 
ATOM     24  C   UNL     1      -4.831  -7.815  11.553  0.00  0.00    +0.040 A 
ATOM     25  C   UNL     1      -4.377  -7.368  10.325  0.00  0.00    +0.144 A 
ATOM     26  F   UNL     1      -3.053  -7.217  10.107  0.00  0.00    -0.204 F 
ENDBRANCH  15  20
BRANCH   8  27
ATOM     27  N   UNL     1      -1.704  -6.784   1.840  0.00  0.00    -0.321 N 
ATOM     28  C   UNL     1      -0.391  -7.386   1.594  0.00  0.00    +0.130 C 
ATOM     29  C   UNL     1      -2.843  -7.138   0.990  0.00  0.00    +0.130 C 
ENDBRANCH   8  27
BRANCH   1  30
ATOM     30  C   UNL     1      -1.413  -0.462   0.099  0.00  0.00    +0.105 C 
BRANCH  30  31
ATOM     31  C   UNL     1      -2.599   0.172   0.779  0.00  0.00    -0.036 A 
ATOM     32  C   UNL     1      -3.878  -0.098   0.330  0.00  0.00    +0.004 A 
ATOM     33  C   UNL     1      -4.966   0.483   0.954  0.00  0.00    +0.000 A 
ATOM     34  C   UNL     1      -4.775   1.332   2.027  0.00  0.00    +0.000 A 
ATOM     35  C   UNL     1      -3.496   1.601   2.477  0.00  0.00    +0.000 A 
ATOM     36  C   UNL     1      -2.408   1.017   1.856  0.00  0.00    +0.004 A 
ENDBRANCH  30  31
BRANCH  30  38
ATOM     37  C   UNL     1      -1.125   1.470  -1.460  0.00  0.00    +0.005 C 
ATOM     38  C   UNL     1      -1.380  -0.036  -1.371  0.00  0.00    +0.014 C 
ENDBRANCH  30  38
ENDBRANCH   1  30
TORSDOF 5
