REMARK  Name = ZINC27564096
REMARK  4 active torsions:
REMARK  status: ('A' for Active; 'I' for Inactive)
REMARK    1  A    between atoms: C_6  and  C_11
REMARK    2  A    between atoms: C_12  and  C_21
REMARK    3  A    between atoms: N_31  and  C_32
REMARK    4  A    between atoms: C_32  and  C_33
REMARK                            x       y       z     vdW  Elec       q    Type
REMARK                         _______ _______ _______ _____ _____    ______ ____
ROOT
ATOM      1  C   UNL     1       1.297  -0.438   0.059  0.00  0.00    +0.053 A 
ATOM      2  C   UNL     1       2.146   0.617  -0.015  0.00  0.00    +0.010 A 
ATOM      3  C   UNL     1       1.322   1.823  -0.077  0.00  0.00    +0.006 A 
ATOM      4  C   UNL     1       1.609   3.189  -0.162  0.00  0.00    +0.010 A 
ATOM      5  C   UNL     1       0.589   4.095  -0.204  0.00  0.00    +0.001 A 
ATOM      6  C   UNL     1      -0.733   3.672  -0.163  0.00  0.00    +0.002 A 
ATOM      7  C   UNL     1      -1.040   2.332  -0.074  0.00  0.00    +0.026 A 
ATOM      8  C   UNL     1      -0.017   1.389  -0.035  0.00  0.00    +0.047 A 
ATOM      9  N   UNL     1      -0.003   0.014   0.048  0.00  0.00    -0.354 N 
ATOM     10  H   UNL     1      -0.835  -0.703   0.101  0.00  0.00    +0.166 HD
ENDROOT
BRANCH   1  16
ATOM     11  C   UNL     1       2.267  -6.792  -0.380  0.00  0.00    +0.001 A 
ATOM     12  C   UNL     1       1.242  -6.428  -1.251  0.00  0.00    +0.001 A 
ATOM     13  C   UNL     1       0.837  -5.132  -1.352  0.00  0.00    +0.008 A 
ATOM     14  C   UNL     1       1.460  -4.145  -0.568  0.00  0.00    -0.017 A 
ATOM     15  C   UNL     1       1.067  -2.800  -0.648  0.00  0.00    +0.018 A 
ATOM     16  C   UNL     1       1.705  -1.857   0.139  0.00  0.00    -0.001 A 
ATOM     17  C   UNL     1       2.742  -2.236   1.010  0.00  0.00    +0.010 A 
ATOM     18  C   UNL     1       3.131  -3.533   1.104  0.00  0.00    +0.009 A 
ATOM     19  C   UNL     1       2.503  -4.516   0.318  0.00  0.00    -0.018 A 
ATOM     20  C   UNL     1       2.893  -5.864   0.394  0.00  0.00    +0.008 A 
ENDBRANCH   1  16
BRANCH   2  21
ATOM     21  C   UNL     1       3.651   0.558  -0.029  0.00  0.00    +0.141 C 
ATOM     22  C   UNL     1       4.202   1.050   1.287  0.00  0.00    -0.010 A 
ATOM     23  C   UNL     1       4.061   0.621   2.586  0.00  0.00    +0.006 A 
ATOM     24  C   UNL     1       4.707   1.294   3.610  0.00  0.00    +0.000 A 
ATOM     25  C   UNL     1       5.493   2.398   3.330  0.00  0.00    +0.001 A 
ATOM     26  C   UNL     1       5.641   2.836   2.030  0.00  0.00    +0.013 A 
ATOM     27  C   UNL     1       4.993   2.163   0.993  0.00  0.00    +0.042 A 
ATOM     28  C   UNL     1       4.956   2.384  -0.466  0.00  0.00    +0.248 C 
ATOM     29  O   UNL     1       5.542   3.276  -1.048  0.00  0.00    -0.270 OA
ATOM     30  N   UNL     1       4.182   1.459  -1.058  0.00  0.00    -0.278 N 
BRANCH  30  31
ATOM     31  C   UNL     1       3.912   1.365  -2.495  0.00  0.00    +0.204 C 
BRANCH  31  32
ATOM     32  C   UNL     1       4.879   0.396  -3.126  0.00  0.00    +0.228 C 
ATOM     33  O   UNL     1       5.650  -0.230  -2.430  0.00  0.00    -0.274 OA
ATOM     34  N   UNL     1       4.886   0.225  -4.462  0.00  0.00    -0.328 N 
ATOM     35  H   UNL     1       5.591  -0.483  -4.922  0.00  0.00    +0.145 HD
ATOM     36  H   UNL     1       4.186   0.792  -5.093  0.00  0.00    +0.145 HD
ENDBRANCH  31  32
ENDBRANCH  30  31
ENDBRANCH   2  21
TORSDOF 4
