REMARK  Name = ZINC35427433
REMARK  5 active torsions:
REMARK  status: ('A' for Active; 'I' for Inactive)
REMARK    1  A    between atoms: C_1  and  C_2
REMARK    2  A    between atoms: C_2  and  N_3
REMARK    3  A    between atoms: C_17  and  C_31
REMARK    4  A    between atoms: N_23  and  C_24
REMARK    5  A    between atoms: C_29  and  C_30
REMARK                            x       y       z     vdW  Elec       q    Type
REMARK                         _______ _______ _______ _____ _____    ______ ____
ROOT
ATOM      1  N   UNL     1       1.984   0.465   1.026  0.00  0.00    +0.383 N 
ATOM      2  C   UNL     1       2.179  -0.954   0.698  0.00  0.00    -0.074 C 
ATOM      3  C   UNL     1       2.925  -1.665   1.830  0.00  0.00    +0.018 C 
ATOM      4  C   UNL     1       2.183  -1.382   3.134  0.00  0.00    -0.034 A 
ATOM      5  C   UNL     1       2.367  -2.146   4.302  0.00  0.00    +0.004 A 
ATOM      6  C   UNL     1       1.646  -1.774   5.395  0.00  0.00    +0.090 A 
ATOM      7  S   UNL     1       0.686  -0.395   4.847  0.00  0.00    -0.077 S 
ATOM      8  C   UNL     1       1.299  -0.349   3.183  0.00  0.00    -0.021 A 
ATOM      9  C   UNL     1       0.953   0.588   2.074  0.00  0.00    -0.035 C 
ATOM     10  N   UNL     1       1.732  -2.398   6.634  0.00  0.00    -0.312 N 
ATOM     11  C   UNL     1       0.774  -2.805   7.499  0.00  0.00    +0.092 A 
ATOM     12  C   UNL     1       1.384  -3.422   8.537  0.00  0.00    +0.020 A 
ATOM     13  C   UNL     1       2.775  -3.373   8.303  0.00  0.00    +0.025 A 
ATOM     14  C   UNL     1       2.966  -2.721   7.147  0.00  0.00    +0.049 A 
ATOM     15  C   UNL     1       4.248  -2.326   6.476  0.00  0.00    +0.155 C 
ATOM     16  N   UNL     1       4.475  -3.090   5.226  0.00  0.00    -0.268 N 
ATOM     17  C   UNL     1       3.297  -3.336   4.375  0.00  0.00    +0.148 C 
ATOM     18  C   UNL     1       5.699  -3.537   4.884  0.00  0.00    +0.308 C 
ATOM     19  O   UNL     1       6.651  -3.317   5.608  0.00  0.00    -0.252 OA
ATOM     20  N   UNL     1       5.869  -4.229   3.740  0.00  0.00    -0.269 N 
ATOM     21  H   UNL     1       5.124  -4.347   3.130  0.00  0.00    +0.156 HD
ATOM     22  H   UNL     1       2.852   0.855   1.361  0.00  0.00    -0.081 HD
ENDROOT
BRANCH  20  23
ATOM     23  C   UNL     1       7.119  -4.776   3.431  0.00  0.00    +0.038 A 
ATOM     24  C   UNL     1       8.277  -4.182   3.917  0.00  0.00    +0.023 A 
ATOM     25  C   UNL     1       9.510  -4.724   3.611  0.00  0.00    +0.002 A 
ATOM     26  C   UNL     1       9.592  -5.857   2.822  0.00  0.00    +0.000 A 
ATOM     27  C   UNL     1       8.441  -6.450   2.337  0.00  0.00    +0.005 A 
ATOM     28  C   UNL     1       7.205  -5.916   2.645  0.00  0.00    -0.029 A 
ATOM     29  C   UNL     1       5.951  -6.567   2.121  0.00  0.00    +0.045 C 
ENDBRANCH  20  23
BRANCH  15  30
ATOM     30  C   UNL     1       4.197  -0.856   6.149  0.00  0.00    -0.021 A 
ATOM     31  C   UNL     1       3.534   0.018   6.991  0.00  0.00    +0.006 A 
ATOM     32  C   UNL     1       3.487   1.366   6.691  0.00  0.00    +0.000 A 
ATOM     33  C   UNL     1       4.104   1.842   5.549  0.00  0.00    +0.000 A 
ATOM     34  C   UNL     1       4.767   0.969   4.707  0.00  0.00    +0.000 A 
ATOM     35  C   UNL     1       4.818  -0.379   5.009  0.00  0.00    +0.006 A 
ENDBRANCH  15  30
BRANCH   1  37
ATOM     36  C   UNL     1       1.467   2.687   0.136  0.00  0.00    -0.017 C 
ATOM     37  C   UNL     1       1.551   1.191  -0.175  0.00  0.00    -0.082 C 
ENDBRANCH   1  37
TORSDOF 3
