REMARK  Name = ZINC45425522
REMARK  7 active torsions:
REMARK  status: ('A' for Active; 'I' for Inactive)
REMARK    1  A    between atoms: C_1  and  C_2
REMARK    2  A    between atoms: C_2  and  N_3
REMARK    3  A    between atoms: N_3  and  C_4
REMARK    4  A    between atoms: C_4  and  C_5
REMARK    5  A    between atoms: N_13  and  C_14
REMARK    6  A    between atoms: C_14  and  C_15
REMARK    7  A    between atoms: C_15  and  C_16
REMARK                            x       y       z     vdW  Elec       q    Type
REMARK                         _______ _______ _______ _____ _____    ______ ____
ROOT
ATOM      1  N   UNL     1       0.713  -0.504  -1.384  0.00  0.00    -0.286 N 
ATOM      2  C   UNL     1       0.108  -0.617  -2.583  0.00  0.00    +0.302 C 
ATOM      3  O   UNL     1       0.743  -0.983  -3.553  0.00  0.00    -0.253 OA
ATOM      4  N   UNL     1      -1.202  -0.324  -2.707  0.00  0.00    -0.299 N 
ATOM      5  H   UNL     1      -1.709  -0.032  -1.933  0.00  0.00    +0.150 HD
ENDROOT
BRANCH   1   7
ATOM      6  C   UNL     1      -0.111   1.361  -0.033  0.00  0.00    +0.024 C 
ATOM      7  C   UNL     1      -0.073  -0.160  -0.196  0.00  0.00    +0.106 C 
ENDBRANCH   1   7
BRANCH   1   8
ATOM      8  C   UNL     1       2.156  -0.725  -1.268  0.00  0.00    +0.115 C 
BRANCH   8   9
ATOM      9  C   UNL     1       2.417  -2.161  -0.808  0.00  0.00    +0.034 C 
ATOM     10  C   UNL     1       3.937  -2.415  -0.661  0.00  0.00    +0.035 C 
ATOM     11  C   UNL     1       4.085  -3.846  -1.238  0.00  0.00    +0.160 C 
ATOM     12  O   UNL     1       3.143  -3.866  -2.332  0.00  0.00    -0.379 OA
ATOM     13  C   UNL     1       1.966  -3.164  -1.888  0.00  0.00    +0.165 C 
ENDBRANCH   8   9
ENDBRANCH   1   8
BRANCH   4  14
ATOM     14  C   UNL     1      -1.860  -0.447  -4.010  0.00  0.00    +0.112 C 
BRANCH  14  15
ATOM     15  C   UNL     1      -3.334  -0.058  -3.876  0.00  0.00    +0.076 C 
BRANCH  15  16
ATOM     16  C   UNL     1      -4.010  -0.184  -5.217  0.00  0.00    +0.062 A 
ATOM     17  C   UNL     1      -5.119  -0.912  -5.474  0.00  0.00    +0.116 A 
ATOM     18  N   UNL     1      -5.404  -0.758  -6.804  0.00  0.00    -0.306 N 
ATOM     19  C   UNL     1      -6.394  -1.256  -7.600  0.00  0.00    +0.092 A 
ATOM     20  C   UNL     1      -6.447  -0.939  -8.911  0.00  0.00    +0.018 A 
ATOM     21  C   UNL     1      -5.479  -0.092  -9.475  0.00  0.00    +0.005 A 
ATOM     22  C   UNL     1      -4.486   0.411  -8.693  0.00  0.00    +0.047 A 
ATOM     23  C   UNL     1      -4.445   0.072  -7.325  0.00  0.00    +0.138 A 
ATOM     24  N   UNL     1      -3.618   0.409  -6.346  0.00  0.00    -0.233 NA
ENDBRANCH  15  16
ENDBRANCH  14  15
ENDBRANCH   4  14
TORSDOF 6
