REMARK  Name = ZINC50323665
REMARK  5 active torsions:
REMARK  status: ('A' for Active; 'I' for Inactive)
REMARK    1  A    between atoms: C_1  and  N_2
REMARK    2  A    between atoms: N_2  and  C_3
REMARK    3  A    between atoms: C_8  and  C_10
REMARK    4  A    between atoms: C_11  and  N_19
REMARK    5  A    between atoms: C_12  and  C_16
REMARK                            x       y       z     vdW  Elec       q    Type
REMARK                         _______ _______ _______ _____ _____    ______ ____
ROOT
ATOM      1  C   UNL     1      -0.124   0.062  -2.430  0.00  0.00    +0.141 A 
ATOM      2  C   UNL     1       0.971   0.576  -3.120  0.00  0.00    +0.078 A 
ATOM      3  C   UNL     1       0.431   1.185  -4.264  0.00  0.00    +0.087 A 
ATOM      4  N   UNL     1      -0.866   1.030  -4.228  0.00  0.00    -0.176 NA
ATOM      5  N   UNL     1      -1.228   0.379  -3.182  0.00  0.00    -0.271 N 
ATOM      6  H   UNL     1      -2.143   0.148  -2.957  0.00  0.00    +0.189 HD
ENDROOT
BRANCH   1   9
ATOM      7  C   UNL     1       0.159   1.451   0.002  0.00  0.00    +0.132 C 
ATOM      8  N   UNL     1       0.087  -0.012  -0.004  0.00  0.00    -0.296 N 
ATOM      9  C   UNL     1      -0.102  -0.673  -1.163  0.00  0.00    +0.266 C 
ATOM     10  O   UNL     1      -0.254  -1.881  -1.158  0.00  0.00    -0.268 OA
BRANCH   8  11
ATOM     11  C   UNL     1       0.221  -0.757   1.250  0.00  0.00    +0.076 C 
ATOM     12  C   UNL     1      -0.850  -0.291   2.258  0.00  0.00    +0.022 C 
ATOM     13  C   UNL     1      -0.125  -0.326   3.626  0.00  0.00    +0.002 C 
ATOM     14  C   UNL     1       1.299   0.170   3.271  0.00  0.00    +0.002 C 
ATOM     15  C   UNL     1       1.587  -0.464   1.894  0.00  0.00    +0.022 C 
ENDBRANCH   8  11
ENDBRANCH   1   9
BRANCH   3  16
ATOM     16  C   UNL     1       1.209   1.894  -5.342  0.00  0.00    +0.041 C 
ATOM     17  C   UNL     1       0.414   2.662  -6.399  0.00  0.00    +0.010 C 
ATOM     18  C   UNL     1       1.101   1.346  -6.767  0.00  0.00    +0.010 C 
ENDBRANCH   3  16
BRANCH   2  19
ATOM     19  N   UNL     1       2.313   0.502  -2.753  0.00  0.00    -0.355 N 
ATOM     20  H   UNL     1       2.568   0.051  -1.933  0.00  0.00    +0.142 HD
ATOM     21  H   UNL     1       2.993   0.901  -3.319  0.00  0.00    +0.142 HD
ENDBRANCH   2  19
TORSDOF 4
