REMARK  Name = ZINC60343457
REMARK  9 active torsions:
REMARK  status: ('A' for Active; 'I' for Inactive)
REMARK    1  A    between atoms: C_1  and  C_2
REMARK    2  A    between atoms: C_5  and  C_10
REMARK    3  A    between atoms: C_6  and  O_9
REMARK    4  A    between atoms: C_7  and  O_8
REMARK    5  A    between atoms: C_10  and  O_12
REMARK    6  A    between atoms: O_12  and  C_13
REMARK    7  A    between atoms: C_13  and  C_15
REMARK    8  A    between atoms: C_13  and  C_16
REMARK    9  A    between atoms: C_27  and  C_29
REMARK                            x       y       z     vdW  Elec       q    Type
REMARK                         _______ _______ _______ _____ _____    ______ ____
ROOT
ATOM      1  C   UNL     1       0.795  -6.884  -2.369  0.00  0.00    +0.261 C 
ATOM      2  O   UNL     1       1.242  -6.123  -3.202  0.00  0.00    -0.271 OA
ATOM      3  N   UNL     1       0.935  -8.215  -2.529  0.00  0.00    -0.258 N 
ATOM      4  C   UNL     1       0.398  -9.159  -1.538  0.00  0.00    +0.209 C 
ATOM      5  C   UNL     1       1.405 -10.257  -1.308  0.00  0.00    +0.235 C 
ATOM      6  O   UNL     1       1.448 -10.815  -0.232  0.00  0.00    -0.274 OA
ATOM      7  N   UNL     1       2.257 -10.626  -2.283  0.00  0.00    -0.283 N 
ATOM      8  C   UNL     1       2.262  -9.967  -3.517  0.00  0.00    +0.056 A 
ATOM      9  C   UNL     1       1.594  -8.745  -3.650  0.00  0.00    +0.058 A 
ATOM     10  C   UNL     1       1.590  -8.079  -4.862  0.00  0.00    +0.026 A 
ATOM     11  C   UNL     1       2.246  -8.629  -5.949  0.00  0.00    +0.014 A 
ATOM     12  C   UNL     1       2.902  -9.839  -5.826  0.00  0.00    +0.057 A 
ATOM     13  C   UNL     1       2.918 -10.511  -4.609  0.00  0.00    +0.037 A 
ATOM     14  H   UNL     1       2.875 -11.358  -2.128  0.00  0.00    +0.155 HD
ENDROOT
BRANCH  12  15
ATOM     15  C   UNL     1       3.610 -10.432  -7.017  0.00  0.00    +0.417 C 
ATOM     16  F   UNL     1       3.464  -9.581  -8.118  0.00  0.00    -0.166 F 
ATOM     17  F   UNL     1       4.970 -10.584  -6.723  0.00  0.00    -0.166 F 
ATOM     18  F   UNL     1       3.056 -11.681  -7.316  0.00  0.00    -0.166 F 
ENDBRANCH  12  15
BRANCH   1  19
ATOM     19  C   UNL     1       0.083  -6.342  -1.157  0.00  0.00    +0.259 C 
ATOM     20  C   UNL     1      -1.352  -6.871  -1.129  0.00  0.00    +0.062 C 
BRANCH  19  21
ATOM     21  O   UNL     1       0.064  -4.914  -1.215  0.00  0.00    -0.449 OA
BRANCH  21  22
ATOM     22  C   UNL     1       0.061  -4.254  -0.040  0.00  0.00    +0.344 C 
ATOM     23  O   UNL     1       0.074  -4.874   1.005  0.00  0.00    -0.245 OA
BRANCH  22  28
ATOM     24  C   UNL     1      -0.018   1.503   0.010  0.00  0.00    +0.047 C 
ATOM     25  C   UNL     1       0.002  -0.004   0.002  0.00  0.00    -0.005 A 
ATOM     26  C   UNL     1       0.006  -0.687  -1.204  0.00  0.00    +0.008 A 
ATOM     27  C   UNL     1       0.025  -2.063  -1.224  0.00  0.00    +0.019 A 
ATOM     28  C   UNL     1       0.041  -2.780  -0.023  0.00  0.00    +0.104 A 
ATOM     29  C   UNL     1       0.037  -2.091   1.196  0.00  0.00    +0.173 A 
ATOM     30  C   UNL     1       0.023  -0.699   1.199  0.00  0.00    +0.162 A 
BRANCH  30  31
ATOM     31  O   UNL     1       0.025  -0.022   2.378  0.00  0.00    -0.503 OA
ATOM     32  H   UNL     1      -0.858   0.162   2.728  0.00  0.00    +0.292 HD
ENDBRANCH  30  31
BRANCH  29  33
ATOM     33  O   UNL     1       0.052  -2.776   2.367  0.00  0.00    -0.503 OA
ATOM     34  H   UNL     1       0.940  -2.962   2.702  0.00  0.00    +0.292 HD
ENDBRANCH  29  33
ENDBRANCH  22  28
ENDBRANCH  21  22
ENDBRANCH  19  21
ENDBRANCH   1  19
TORSDOF 7
