REMARK  Name = ZINC12697465
REMARK  4 active torsions:
REMARK  status: ('A' for Active; 'I' for Inactive)
REMARK    1  A    between atoms: C_1  and  C_2
REMARK    2  A    between atoms: C_5  and  C_7
REMARK    3  A    between atoms: N_9  and  N_10
REMARK    4  A    between atoms: C_11  and  C_13
REMARK                            x       y       z     vdW  Elec       q    Type
REMARK                         _______ _______ _______ _____ _____    ______ ____
ROOT
ATOM      1  N   UNL     1       1.608   6.801   0.024  0.00  0.00    -0.230 N 
ATOM      2  C   UNL     1       1.007   8.007   0.036  0.00  0.00    +0.267 C 
ATOM      3  O   UNL     1      -0.208   8.082   0.048  0.00  0.00    -0.268 OA
ATOM      4  H   UNL     1       2.576   6.742   0.015  0.00  0.00    +0.173 HD
ENDROOT
BRANCH   2   5
ATOM      5  C   UNL     1       1.816   9.229   0.035  0.00  0.00    +0.076 A 
ATOM      6  C   UNL     1       1.407  10.545   0.041  0.00  0.00    +0.024 A 
ATOM      7  C   UNL     1       2.384  11.543   0.057  0.00  0.00    -0.036 A 
ATOM      8  C   UNL     1       3.670  11.142  -0.004  0.00  0.00    -0.006 A 
ATOM      9  S   UNL     1       3.588   9.407   0.020  0.00  0.00    -0.088 S 
ATOM     10  C   UNL     1       4.969  11.891  -0.146  0.00  0.00    +0.043 C 
ATOM     11  C   UNL     1       4.759  13.402  -0.255  0.00  0.00    +0.005 C 
ATOM     12  C   UNL     1       4.521  14.014   1.116  0.00  0.00    +0.000 C 
ATOM     13  C   UNL     1       3.683  13.128   2.016  0.00  0.00    +0.000 C 
ATOM     14  C   UNL     1       2.215  13.409   1.681  0.00  0.00    +0.005 C 
ATOM     15  C   UNL     1       1.949  12.991   0.235  0.00  0.00    +0.036 C 
ENDBRANCH   2   5
BRANCH   1  18
ATOM     16  C   UNL     1       1.436   4.427   0.013  0.00  0.00    +0.295 C 
ATOM     17  O   UNL     1       2.651   4.352   0.001  0.00  0.00    -0.265 OA
ATOM     18  N   UNL     1       0.835   5.633   0.025  0.00  0.00    -0.228 N 
ATOM     19  H   UNL     1      -0.133   5.692   0.034  0.00  0.00    +0.173 HD
BRANCH  16  24
ATOM     20  C   UNL     1      -2.538   1.380   0.020  0.00  0.00    +0.086 C 
ATOM     21  C   UNL     1      -1.110   1.864   0.017  0.00  0.00    +0.103 A 
ATOM     22  C   UNL     1      -0.013   1.076   0.008  0.00  0.00    +0.045 A 
ATOM     23  C   UNL     1       1.105   1.925   0.002  0.00  0.00    +0.055 A 
ATOM     24  C   UNL     1       0.627   3.204   0.013  0.00  0.00    +0.191 A 
ATOM     25  O   UNL     1      -0.721   3.145   0.026  0.00  0.00    -0.455 OA
ENDBRANCH  16  24
ENDBRANCH   1  18
TORSDOF 3
