REMARK  Name = ZINC22864351
REMARK  7 active torsions:
REMARK  status: ('A' for Active; 'I' for Inactive)
REMARK    1  A    between atoms: C_1  and  C_2
REMARK    2  A    between atoms: C_11  and  N_31
REMARK    3  A    between atoms: C_13  and  S_15
REMARK    4  A    between atoms: S_15  and  C_16
REMARK    5  A    between atoms: C_16  and  C_18
REMARK    6  A    between atoms: C_16  and  C_19
REMARK    7  A    between atoms: N_21  and  C_22
REMARK                            x       y       z     vdW  Elec       q    Type
REMARK                         _______ _______ _______ _____ _____    ______ ____
ROOT
ATOM      1  C   UNL     1      -3.533  -4.742  -0.443  0.00  0.00    +0.008 C 
ATOM      2  C   UNL     1      -3.205  -3.254  -0.590  0.00  0.00    -0.009 C 
ATOM      3  C   UNL     1      -1.880  -2.945   0.112  0.00  0.00    +0.008 C 
ATOM      4  C   UNL     1      -1.424  -1.528  -0.239  0.00  0.00    +0.037 C 
ATOM      5  C   UNL     1      -2.566  -0.557   0.050  0.00  0.00    -0.025 A 
ATOM      6  C   UNL     1      -3.832  -1.001   0.175  0.00  0.00    -0.004 A 
ATOM      7  S   UNL     1      -4.800   0.448   0.501  0.00  0.00    -0.073 S 
ATOM      8  C   UNL     1      -3.498   1.652   0.469  0.00  0.00    +0.115 A 
ATOM      9  C   UNL     1      -2.348   0.883   0.204  0.00  0.00    +0.051 A 
ATOM     10  C   UNL     1      -1.128   1.611   0.123  0.00  0.00    +0.129 A 
ATOM     11  N   UNL     1      -1.145   2.922   0.299  0.00  0.00    -0.207 NA
ATOM     12  C   UNL     1      -2.269   3.587   0.539  0.00  0.00    +0.192 A 
ATOM     13  N   UNL     1      -3.434   2.960   0.627  0.00  0.00    -0.214 NA
ATOM     14  C   UNL     1      -4.314  -2.416   0.061  0.00  0.00    +0.046 C 
ENDROOT
BRANCH  10  15
ATOM     15  N   UNL     1       0.062   0.956  -0.132  0.00  0.00    -0.343 N 
ATOM     16  H   UNL     1       1.002   1.525  -0.194  0.00  0.00    +0.144 HD
ATOM     17  H   UNL     1       0.070  -0.135  -0.273  0.00  0.00    +0.144 HD
ENDBRANCH  10  15
BRANCH  12  18
ATOM     18  S   UNL     1      -2.210   5.335   0.754  0.00  0.00    -0.073 S 
BRANCH  18  19
ATOM     19  C   UNL     1      -0.435   5.619   0.535  0.00  0.00    +0.137 C 
ATOM     20  C   UNL     1       0.333   4.938   1.669  0.00  0.00    +0.029 C 
BRANCH  19  21
ATOM     21  C   UNL     1      -0.157   7.100   0.558  0.00  0.00    +0.230 C 
ATOM     22  O   UNL     1      -0.915   7.851   1.134  0.00  0.00    -0.274 OA
ATOM     23  N   UNL     1       0.935   7.590  -0.061  0.00  0.00    -0.284 N 
ATOM     24  H   UNL     1       1.581   6.920  -0.648  0.00  0.00    +0.155 HD
BRANCH  23  25
ATOM     25  C   UNL     1       1.247   8.951   0.042  0.00  0.00    +0.037 A 
ATOM     26  C   UNL     1       0.230   9.896   0.080  0.00  0.00    +0.027 A 
ATOM     27  C   UNL     1       0.536  11.239   0.186  0.00  0.00    +0.051 A 
ATOM     28  C   UNL     1       1.859  11.648   0.245  0.00  0.00    +0.166 A 
ATOM     29  C   UNL     1       2.881  10.704   0.201  0.00  0.00    +0.168 A 
ATOM     30  C   UNL     1       2.573   9.357   0.100  0.00  0.00    +0.072 A 
ATOM     31  O   UNL     1       4.079  11.354   0.274  0.00  0.00    -0.453 OA
ATOM     32  C   UNL     1       3.792  12.727  -0.049  0.00  0.00    +0.466 C 
ATOM     33  O   UNL     1       2.417  12.891   0.345  0.00  0.00    -0.453 OA
ENDBRANCH  23  25
ENDBRANCH  19  21
ENDBRANCH  18  19
ENDBRANCH  12  18
TORSDOF 5
