REMARK  Name = ZINC08775753
REMARK  8 active torsions:
REMARK  status: ('A' for Active; 'I' for Inactive)
REMARK    1  A    between atoms: C_1  and  C_2
REMARK    2  A    between atoms: C_2  and  C_3
REMARK    3  A    between atoms: C_2  and  C_4
REMARK    4  A    between atoms: C_2  and  C_5
REMARK    5  A    between atoms: C_7  and  N_11
REMARK    6  A    between atoms: N_8  and  C_10
REMARK    7  A    between atoms: C_12  and  C_14
REMARK    8  A    between atoms: N_23  and  C_25
REMARK                            x       y       z     vdW  Elec       q    Type
REMARK                         _______ _______ _______ _____ _____    ______ ____
ROOT
ATOM      1  N   UNL     1       3.518   0.698  -0.029  0.00  0.00    -0.265 N 
ATOM      2  C   UNL     1       4.175   1.875  -0.029  0.00  0.00    +0.270 C 
ATOM      3  O   UNL     1       3.552   2.919  -0.016  0.00  0.00    -0.268 OA
ATOM      4  H   UNL     1       4.015  -0.135  -0.039  0.00  0.00    +0.157 HD
ENDROOT
BRANCH   2   5
ATOM      5  C   UNL     1       5.651   1.896  -0.043  0.00  0.00    +0.154 A 
ATOM      6  C   UNL     1       6.377   3.176  -0.050  0.00  0.00    +0.020 A 
ATOM      7  C   UNL     1       5.732   4.408  -0.031  0.00  0.00    +0.011 A 
ATOM      8  C   UNL     1       6.483   5.565  -0.032  0.00  0.00    +0.001 A 
ATOM      9  C   UNL     1       7.871   5.512  -0.047  0.00  0.00    +0.001 A 
ATOM     10  C   UNL     1       8.530   4.301  -0.060  0.00  0.00    +0.014 A 
ATOM     11  C   UNL     1       7.790   3.122  -0.059  0.00  0.00    +0.050 A 
ATOM     12  C   UNL     1       8.411   1.790  -0.073  0.00  0.00    +0.275 A 
ATOM     13  O   UNL     1       9.622   1.668  -0.086  0.00  0.00    -0.266 OA
ATOM     14  N   UNL     1       7.607   0.707  -0.071  0.00  0.00    -0.231 N 
ATOM     15  N   UNL     1       6.330   0.775  -0.057  0.00  0.00    -0.163 NA
ATOM     16  C   UNL     1       8.231  -0.619  -0.085  0.00  0.00    +0.176 C 
ENDBRANCH   2   5
BRANCH   1  19
ATOM     17  C   UNL     1      -0.016   1.304   0.009  0.00  0.00    +0.070 A 
ATOM     18  C   UNL     1       1.304   1.764  -0.001  0.00  0.00    +0.069 A 
ATOM     19  C   UNL     1       2.125   0.678  -0.015  0.00  0.00    +0.123 A 
ATOM     20  N   UNL     1       1.337  -0.428  -0.013  0.00  0.00    -0.253 N 
ATOM     21  N   UNL     1       0.002  -0.004   0.002  0.00  0.00    -0.174 NA
ATOM     22  C   UNL     1       1.801  -1.818  -0.025  0.00  0.00    +0.174 C 
BRANCH  17  24
ATOM     23  C   UNL     1      -1.461   2.774  -1.369  0.00  0.00    +0.017 C 
ATOM     24  C   UNL     1      -1.250   2.168   0.020  0.00  0.00    +0.006 C 
ATOM     25  C   UNL     1      -2.465   1.318   0.395  0.00  0.00    +0.017 C 
ATOM     26  C   UNL     1      -1.077   3.291   1.045  0.00  0.00    +0.017 C 
ENDBRANCH  17  24
ENDBRANCH   1  19
TORSDOF 3
