REMARK  Name = ZINC02522389
REMARK  9 active torsions:
REMARK  status: ('A' for Active; 'I' for Inactive)
REMARK    1  A    between atoms: C_1  and  C_2
REMARK    2  A    between atoms: C_2  and  N_3
REMARK    3  A    between atoms: C_7  and  C_27
REMARK    4  A    between atoms: C_8  and  C_26
REMARK    5  A    between atoms: C_12  and  S_13
REMARK    6  A    between atoms: S_13  and  C_14
REMARK    7  A    between atoms: C_14  and  C_15
REMARK    8  A    between atoms: N_17  and  C_18
REMARK    9  A    between atoms: C_21  and  C_25
REMARK                            x       y       z     vdW  Elec       q    Type
REMARK                         _______ _______ _______ _____ _____    ______ ____
ROOT
ATOM      1  N   UNL     1      -0.095   1.200   4.053  0.00  0.00    -0.288 N 
ATOM      2  C   UNL     1       0.677   0.684   5.027  0.00  0.00    +0.263 A 
ATOM      3  O   UNL     1       0.406   0.880   6.199  0.00  0.00    -0.267 OA
ATOM      4  C   UNL     1       1.820  -0.099   4.668  0.00  0.00    +0.075 A 
ATOM      5  C   UNL     1       2.792  -0.753   5.527  0.00  0.00    -0.026 A 
ATOM      6  C   UNL     1       3.798  -1.443   4.970  0.00  0.00    -0.008 A 
ATOM      7  S   UNL     1       3.506  -1.261   3.220  0.00  0.00    -0.073 S 
ATOM      8  C   UNL     1       2.041  -0.263   3.288  0.00  0.00    +0.117 A 
ATOM      9  N   UNL     1       1.237   0.271   2.377  0.00  0.00    -0.216 NA
ATOM     10  C   UNL     1       0.193   0.992   2.735  0.00  0.00    +0.173 A 
ATOM     11  C   UNL     1       4.910  -2.193   5.658  0.00  0.00    +0.052 C 
ATOM     12  C   UNL     1       2.672  -0.657   7.026  0.00  0.00    +0.045 C 
ENDROOT
BRANCH   1  14
ATOM     13  C   UNL     1      -2.487   1.090   4.551  0.00  0.00    +0.027 C 
ATOM     14  C   UNL     1      -1.266   2.002   4.414  0.00  0.00    +0.124 C 
ENDBRANCH   1  14
BRANCH  10  15
ATOM     15  S   UNL     1      -0.848   1.690   1.497  0.00  0.00    -0.078 S 
BRANCH  15  16
ATOM     16  C   UNL     1      -0.004   1.101   0.008  0.00  0.00    +0.173 C 
BRANCH  16  17
ATOM     17  C   UNL     1      -0.739   1.590  -1.213  0.00  0.00    +0.228 C 
ATOM     18  O   UNL     1      -1.735   2.270  -1.089  0.00  0.00    -0.275 OA
ATOM     19  N   UNL     1      -0.288   1.272  -2.443  0.00  0.00    -0.284 N 
ATOM     20  H   UNL     1       0.544   0.784  -2.544  0.00  0.00    +0.155 HD
BRANCH  19  21
ATOM     21  C   UNL     1      -1.022   1.647  -3.575  0.00  0.00    +0.047 A 
ATOM     22  C   UNL     1      -1.723   2.845  -3.585  0.00  0.00    +0.024 A 
ATOM     23  C   UNL     1      -2.445   3.212  -4.704  0.00  0.00    +0.005 A 
ATOM     24  C   UNL     1      -2.471   2.387  -5.813  0.00  0.00    -0.049 A 
ATOM     25  C   UNL     1      -1.774   1.193  -5.807  0.00  0.00    +0.020 A 
ATOM     26  C   UNL     1      -1.045   0.822  -4.693  0.00  0.00    +0.039 A 
ATOM     27 BR   UNL     1      -0.086  -0.808  -4.688  0.00  0.00    -0.048 Br
ATOM     28  C   UNL     1      -3.261   2.790  -7.032  0.00  0.00    +0.044 C 
ENDBRANCH  19  21
ENDBRANCH  16  17
ENDBRANCH  15  16
ENDBRANCH  10  15
TORSDOF 5
