REMARK  Name = ZINC61095109
REMARK  5 active torsions:
REMARK  status: ('A' for Active; 'I' for Inactive)
REMARK    1  A    between atoms: C_1  and  C_2
REMARK    2  A    between atoms: C_2  and  C_3
REMARK    3  A    between atoms: C_2  and  C_4
REMARK    4  A    between atoms: C_6  and  N_17
REMARK    5  A    between atoms: N_17  and  N_18
REMARK                            x       y       z     vdW  Elec       q    Type
REMARK                         _______ _______ _______ _____ _____    ______ ____
ROOT
ATOM      1  C   UNL     1       0.732  -0.497   1.225  0.00  0.00    +0.046 A 
ATOM      2  C   UNL     1       2.116  -0.597   1.190  0.00  0.00    +0.048 A 
ATOM      3  C   UNL     1       2.799  -1.061   2.304  0.00  0.00    +0.055 A 
ATOM      4  C   UNL     1       2.041  -1.417   3.444  0.00  0.00    +0.063 A 
ATOM      5  C   UNL     1       0.633  -1.286   3.399  0.00  0.00    +0.111 A 
ATOM      6  N   UNL     1       0.040  -0.825   2.291  0.00  0.00    -0.248 NA
ATOM      7  C   UNL     1      -0.124  -1.639   4.532  0.00  0.00    +0.152 A 
ATOM      8  C   UNL     1       0.505  -2.100   5.650  0.00  0.00    +0.081 A 
ATOM      9  C   UNL     1       1.892  -2.229   5.692  0.00  0.00    +0.162 A 
ATOM     10  C   UNL     1       2.658  -1.895   4.610  0.00  0.00    +0.170 A 
ATOM     11  F   UNL     1       4.002  -2.025   4.663  0.00  0.00    -0.202 F 
ATOM     12  F   UNL     1       2.486  -2.688   6.815  0.00  0.00    -0.202 F 
ATOM     13  F   UNL     1      -1.470  -1.520   4.511  0.00  0.00    -0.203 F 
ENDROOT
BRANCH   1  15
ATOM     14  C   UNL     1      -0.018   1.540   0.025  0.00  0.00    +0.014 C 
ATOM     15  C   UNL     1       0.003   0.010   0.007  0.00  0.00    +0.032 C 
ATOM     16  C   UNL     1       0.720  -0.475  -1.254  0.00  0.00    +0.014 C 
ENDBRANCH   1  15
BRANCH   3  17
ATOM     17  N   UNL     1       4.181  -1.173   2.299  0.00  0.00    -0.282 N 
ATOM     18  H   UNL     1       4.650  -1.425   3.111  0.00  0.00    +0.166 HD
BRANCH  17  19
ATOM     19  N   UNL     1       4.883  -0.929   1.153  0.00  0.00    -0.256 NA
ATOM     20  H   UNL     1       4.681  -0.008   0.795  0.00  0.00    +0.140 HD
ATOM     21  H   UNL     1       5.873  -1.050   1.303  0.00  0.00    +0.140 HD
ENDBRANCH  17  19
ENDBRANCH   3  17
TORSDOF 3
