REMARK  Name = ZINC19897217
REMARK  12 active torsions:
REMARK  status: ('A' for Active; 'I' for Inactive)
REMARK    1  A    between atoms: C_1  and  C_2
REMARK    2  A    between atoms: C_2  and  C_3
REMARK    3  A    between atoms: C_5  and  C_34
REMARK    4  A    between atoms: C_7  and  O_9
REMARK    5  A    between atoms: O_9  and  C_10
REMARK    6  A    between atoms: C_10  and  C_11
REMARK    7  A    between atoms: C_11  and  O_12
REMARK    8  A    between atoms: O_12  and  C_13
REMARK    9  A    between atoms: C_16  and  C_19
REMARK   10  A    between atoms: C_29  and  C_31
REMARK   11  A    between atoms: C_31  and  C_32
REMARK   12  A    between atoms: C_31  and  C_33
REMARK                            x       y       z     vdW  Elec       q    Type
REMARK                         _______ _______ _______ _____ _____    ______ ____
ROOT
ATOM      1  C   UNL     1       7.641  -4.178  -2.320  0.00  0.00    +0.121 A 
ATOM      2  C   UNL     1       8.518  -3.204  -2.785  0.00  0.00    +0.046 A 
ATOM      3  C   UNL     1       9.830  -3.223  -2.404  0.00  0.00    +0.011 A 
ATOM      4  C   UNL     1      10.292  -4.228  -1.541  0.00  0.00    -0.024 A 
ATOM      5  C   UNL     1       9.402  -5.207  -1.075  0.00  0.00    +0.011 A 
ATOM      6  C   UNL     1       8.092  -5.174  -1.459  0.00  0.00    +0.046 A 
ENDROOT
BRANCH   4   7
ATOM      7  C   UNL     1      11.697  -4.254  -1.129  0.00  0.00    +0.024 C 
ATOM      8  C   UNL     1      12.032  -4.641   0.149  0.00  0.00    +0.079 C 
ATOM      9  C   UNL     1      13.449  -4.858   0.558  0.00  0.00    +0.132 C 
ATOM     10  N   UNL     1      14.449  -4.173   0.071  0.00  0.00    -0.385 N 
ATOM     11  N   UNL     1      13.603  -5.877   1.522  0.00  0.00    -0.154 N 
ATOM     12  C   UNL     1      12.512  -6.181   2.307  0.00  0.00    +0.181 C 
ATOM     13  N   UNL     1      11.298  -5.701   2.207  0.00  0.00    -0.152 NA
ATOM     14  C   UNL     1      11.002  -4.857   1.196  0.00  0.00    +0.273 C 
ATOM     15  O   UNL     1       9.922  -4.292   1.141  0.00  0.00    -0.268 OA
ATOM     16  S   UNL     1      13.184  -7.378   3.430  0.00  0.00    -0.038 S 
ATOM     17  C   UNL     1      14.824  -7.466   2.724  0.00  0.00    +0.102 C 
ATOM     18  N   UNL     1      14.757  -6.593   1.760  0.00  0.00    -0.169 NA
ATOM     19  H   UNL     1      14.287  -3.482  -0.591  0.00  0.00    +0.157 HD
ATOM     20  H   UNL     1      15.353  -4.355   0.372  0.00  0.00    +0.157 HD
BRANCH  17  21
ATOM     21  C   UNL     1      15.986  -8.332   3.138  0.00  0.00    +0.040 C 
ATOM     22  C   UNL     1      15.866  -9.702   2.467  0.00  0.00    +0.014 C 
ATOM     23  C   UNL     1      17.295  -7.667   2.708  0.00  0.00    +0.014 C 
ENDBRANCH  17  21
ENDBRANCH   4   7
BRANCH   1  24
ATOM     24  O   UNL     1       6.340  -4.154  -2.702  0.00  0.00    -0.489 OA
BRANCH  24  25
ATOM     25  C   UNL     1       5.943  -3.104  -3.587  0.00  0.00    +0.270 C 
BRANCH  25  26
ATOM     26  C   UNL     1       4.452  -3.240  -3.904  0.00  0.00    +0.270 C 
BRANCH  26  27
ATOM     27  O   UNL     1       3.691  -3.037  -2.712  0.00  0.00    -0.489 OA
BRANCH  27  32
ATOM     28  C   UNL     1       0.165  -3.029  -1.816  0.00  0.00    -0.044 A 
ATOM     29  C   UNL     1      -0.412  -3.304  -3.042  0.00  0.00    +0.007 A 
ATOM     30  C   UNL     1       0.383  -3.489  -4.157  0.00  0.00    -0.047 A 
ATOM     31  C   UNL     1       1.758  -3.401  -4.049  0.00  0.00    +0.049 A 
ATOM     32  C   UNL     1       2.340  -3.125  -2.821  0.00  0.00    +0.121 A 
ATOM     33  C   UNL     1       1.539  -2.933  -1.704  0.00  0.00    +0.049 A 
ATOM     34  C   UNL     1      -0.250  -3.788  -5.492  0.00  0.00    +0.044 C 
BRANCH  28  36
ATOM     35  C   UNL     1      -1.074  -1.347  -0.479  0.00  0.00    +0.009 C 
ATOM     36  C   UNL     1      -0.705  -2.827  -0.602  0.00  0.00    +0.032 C 
ENDBRANCH  28  36
ENDBRANCH  27  32
ENDBRANCH  26  27
ENDBRANCH  25  26
ENDBRANCH  24  25
ENDBRANCH   1  24
TORSDOF 8
