REMARK  Name = ZINC00933278
REMARK  15 active torsions:
REMARK  status: ('A' for Active; 'I' for Inactive)
REMARK    1  A    between atoms: C_1  and  C_2
REMARK    2  A    between atoms: C_2  and  C_3
REMARK    3  A    between atoms: C_2  and  C_4
REMARK    4  A    between atoms: C_2  and  C_5
REMARK    5  A    between atoms: C_8  and  C_11
REMARK    6  A    between atoms: C_11  and  N_12
REMARK    7  A    between atoms: N_12  and  C_13
REMARK    8  A    between atoms: N_12  and  S_22
REMARK    9  A    between atoms: C_13  and  C_14
REMARK   10  A    between atoms: C_19  and  O_20
REMARK   11  A    between atoms: O_20  and  C_21
REMARK   12  A    between atoms: S_22  and  C_25
REMARK   13  A    between atoms: C_28  and  S_31
REMARK   14  A    between atoms: S_31  and  N_34
REMARK   15  A    between atoms: N_34  and  C_35
REMARK                            x       y       z     vdW  Elec       q    Type
REMARK                         _______ _______ _______ _____ _____    ______ ____
ROOT
ATOM      1  N   UNL     1       1.056  -2.894  -1.543  0.00  0.00    -0.168 NA
ENDROOT
BRANCH   1   2
ATOM      2  S   UNL     1       1.125  -2.409   0.038  0.00  0.00    +0.061 S 
ATOM      3  O   UNL     1       2.294  -2.997   0.593  0.00  0.00    -0.153 OA
ATOM      4  O   UNL     1      -0.169  -2.623   0.586  0.00  0.00    -0.153 OA
BRANCH   2   5
ATOM      5  C   UNL     1       1.389  -0.667   0.038  0.00  0.00    +0.106 A 
ATOM      6  C   UNL     1       0.317   0.195   0.173  0.00  0.00    +0.030 A 
ATOM      7  C   UNL     1       0.524   1.562   0.174  0.00  0.00    +0.030 A 
ATOM      8  C   UNL     1       1.804   2.067   0.039  0.00  0.00    +0.105 A 
ATOM      9  C   UNL     1       2.876   1.205  -0.098  0.00  0.00    +0.030 A 
ATOM     10  C   UNL     1       2.669  -0.162  -0.097  0.00  0.00    +0.030 A 
BRANCH   8  11
ATOM     11  S   UNL     1       2.068   3.809   0.039  0.00  0.00    +0.059 S 
ATOM     12  O   UNL     1       3.291   4.034  -0.648  0.00  0.00    -0.153 OA
ATOM     13  O   UNL     1       0.844   4.405  -0.368  0.00  0.00    -0.153 OA
BRANCH  11  14
ATOM     14  N   UNL     1       2.317   4.266   1.611  0.00  0.00    -0.187 NA
ATOM     15  H   UNL     1       1.682   4.850   2.053  0.00  0.00    +0.148 HD
BRANCH  14  16
ATOM     16  C   UNL     1       3.498   3.788   2.335  0.00  0.00    +0.077 C 
ATOM     17  C   UNL     1       3.351   3.531   3.836  0.00  0.00    +0.022 C 
ATOM     18  C   UNL     1       4.144   4.742   3.341  0.00  0.00    +0.022 C 
ENDBRANCH  14  16
ENDBRANCH  11  14
ENDBRANCH   8  11
ENDBRANCH   2   5
ENDBRANCH   1   2
BRANCH   1  19
ATOM     19  C   UNL     1      -0.242  -3.051  -2.205  0.00  0.00    +0.145 C 
BRANCH  19  23
ATOM     20  C   UNL     1      -1.059   0.408  -4.575  0.00  0.00    -0.042 A 
ATOM     21  C   UNL     1      -0.348  -0.647  -5.115  0.00  0.00    +0.004 A 
ATOM     22  C   UNL     1      -0.084  -1.767  -4.348  0.00  0.00    +0.005 A 
ATOM     23  C   UNL     1      -0.530  -1.830  -3.041  0.00  0.00    -0.032 A 
ATOM     24  C   UNL     1      -1.245  -0.777  -2.503  0.00  0.00    +0.005 A 
ATOM     25  C   UNL     1      -1.505   0.344  -3.268  0.00  0.00    +0.004 A 
BRANCH  20  27
ATOM     26  C   UNL     1      -2.163   1.224  -6.640  0.00  0.00    +0.015 C 
ATOM     27  C   UNL     1      -1.347   1.629  -5.411  0.00  0.00    -0.013 C 
ATOM     28  C   UNL     1      -2.142   2.639  -4.582  0.00  0.00    +0.015 C 
ATOM     29  C   UNL     1      -0.029   2.262  -5.860  0.00  0.00    +0.015 C 
ENDBRANCH  20  27
ENDBRANCH  19  23
ENDBRANCH   1  19
BRANCH   1  30
ATOM     30  C   UNL     1       2.292  -3.167  -2.281  0.00  0.00    +0.148 C 
BRANCH  30  31
ATOM     31  C   UNL     1       2.600  -4.640  -2.217  0.00  0.00    +0.010 A 
ATOM     32  C   UNL     1       3.541  -5.112  -1.323  0.00  0.00    +0.008 A 
ATOM     33  C   UNL     1       3.821  -6.465  -1.261  0.00  0.00    +0.001 A 
ATOM     34  C   UNL     1       3.167  -7.347  -2.101  0.00  0.00    +0.004 A 
ATOM     35  C   UNL     1       2.229  -6.880  -3.001  0.00  0.00    +0.046 A 
ATOM     36  C   UNL     1       1.943  -5.524  -3.061  0.00  0.00    +0.125 A 
BRANCH  36  37
ATOM     37  O   UNL     1       1.021  -5.061  -3.946  0.00  0.00    -0.495 OA
ATOM     38  C   UNL     1       0.384  -6.028  -4.784  0.00  0.00    +0.277 C 
ENDBRANCH  36  37
ENDBRANCH  30  31
ENDBRANCH   1  30
TORSDOF 11
