REMARK  Name = ZINC40571096
REMARK  17 active torsions:
REMARK  status: ('A' for Active; 'I' for Inactive)
REMARK    1  A    between atoms: C_1  and  C_2
REMARK    2  A    between atoms: C_2  and  C_3
REMARK    3  A    between atoms: C_2  and  C_4
REMARK    4  A    between atoms: C_2  and  C_5
REMARK    5  A    between atoms: C_5  and  C_6
REMARK    6  A    between atoms: C_6  and  C_7
REMARK    7  A    between atoms: C_6  and  C_8
REMARK    8  A    between atoms: C_6  and  N_9
REMARK    9  A    between atoms: N_9  and  C_10
REMARK   10  A    between atoms: C_10  and  C_11
REMARK   11  A    between atoms: C_11  and  C_13
REMARK   12  A    between atoms: C_11  and  O_36
REMARK   13  A    between atoms: C_13  and  O_14
REMARK   14  A    between atoms: O_14  and  C_15
REMARK   15  A    between atoms: C_18  and  C_21
REMARK   16  A    between atoms: N_23  and  N_24
REMARK   17  A    between atoms: C_25  and  C_26
REMARK                            x       y       z     vdW  Elec       q    Type
REMARK                         _______ _______ _______ _____ _____    ______ ____
ROOT
ATOM      1  C   UNL     1       7.846   0.018  -4.806  0.00  0.00    +0.121 A 
ATOM      2  C   UNL     1       8.441   0.906  -3.917  0.00  0.00    +0.046 A 
ATOM      3  C   UNL     1       9.764   1.254  -4.072  0.00  0.00    +0.016 A 
ATOM      4  C   UNL     1      10.509   0.715  -5.125  0.00  0.00    +0.039 A 
ATOM      5  C   UNL     1       9.906  -0.176  -6.016  0.00  0.00    +0.016 A 
ATOM      6  C   UNL     1       8.584  -0.524  -5.851  0.00  0.00    +0.046 A 
ENDROOT
BRANCH   4   7
ATOM      7  C   UNL     1      11.927   1.086  -5.294  0.00  0.00    +0.263 C 
ATOM      8  O   UNL     1      12.450   1.863  -4.517  0.00  0.00    -0.268 OA
ATOM      9  N   UNL     1      12.643   0.565  -6.310  0.00  0.00    -0.203 N 
ATOM     10  H   UNL     1      12.226  -0.054  -6.930  0.00  0.00    +0.178 HD
BRANCH   9  11
ATOM     11  N   UNL     1      13.989   0.918  -6.471  0.00  0.00    -0.187 NA
ATOM     12  C   UNL     1      14.680   0.415  -7.451  0.00  0.00    +0.140 C 
BRANCH  12  13
ATOM     13  C   UNL     1      16.094   0.786  -7.620  0.00  0.00    +0.020 A 
ATOM     14  C   UNL     1      16.938   0.350  -8.594  0.00  0.00    +0.093 A 
ATOM     15  N   UNL     1      18.167   0.912  -8.422  0.00  0.00    -0.360 N 
ATOM     16  H   UNL     1      18.935   0.752  -8.993  0.00  0.00    +0.165 HD
ATOM     17  C   UNL     1      18.164   1.740  -7.320  0.00  0.00    +0.047 A 
ATOM     18  C   UNL     1      16.871   1.707  -6.772  0.00  0.00    +0.008 A 
ATOM     19  C   UNL     1      16.573   2.463  -5.641  0.00  0.00    +0.010 A 
ATOM     20  C   UNL     1      17.550   3.246  -5.066  0.00  0.00    +0.001 A 
ATOM     21  C   UNL     1      18.826   3.283  -5.609  0.00  0.00    +0.002 A 
ATOM     22  C   UNL     1      19.138   2.534  -6.722  0.00  0.00    +0.026 A 
ENDBRANCH  12  13
ENDBRANCH   9  11
ENDBRANCH   4   7
BRANCH   1  23
ATOM     23  O   UNL     1       6.542  -0.323  -4.650  0.00  0.00    -0.489 OA
BRANCH  23  24
ATOM     24  C   UNL     1       5.842   0.272  -3.555  0.00  0.00    +0.258 C 
BRANCH  24  25
ATOM     25  C   UNL     1       4.396  -0.230  -3.541  0.00  0.00    +0.135 C 
BRANCH  25  26
ATOM     26  O   UNL     1       3.722   0.229  -4.715  0.00  0.00    -0.390 OA
ATOM     27  H   UNL     1       3.690   1.192  -4.798  0.00  0.00    +0.210 HD
ENDBRANCH  25  26
BRANCH  25  28
ATOM     28  C   UNL     1       3.682   0.308  -2.299  0.00  0.00    -0.047 C 
BRANCH  28  29
ATOM     29  N   UNL     1       2.333  -0.268  -2.223  0.00  0.00    +0.384 N 
ATOM     30  H   UNL     1       2.400  -1.273  -2.164  0.00  0.00    -0.085 HD
ATOM     31  H   UNL     1       1.811  -0.013  -3.047  0.00  0.00    -0.085 HD
BRANCH  29  32
ATOM     32  C   UNL     1       1.648   0.248  -1.030  0.00  0.00    -0.073 C 
ATOM     33  C   UNL     1       1.346   1.736  -1.220  0.00  0.00    -0.010 C 
ATOM     34  C   UNL     1       2.545   0.061   0.195  0.00  0.00    -0.010 C 
BRANCH  32  35
ATOM     35  C   UNL     1       0.338  -0.516  -0.825  0.00  0.00    -0.007 C 
BRANCH  35  37
ATOM     36  C   UNL     1       0.519  -1.831  -2.941  0.00  0.00    +0.010 C 
ATOM     37  C   UNL     1      -0.310  -0.793  -2.183  0.00  0.00    -0.039 C 
ATOM     38  C   UNL     1      -0.368   0.503  -2.994  0.00  0.00    +0.010 C 
ATOM     39  C   UNL     1      -1.728  -1.327  -1.972  0.00  0.00    +0.010 C 
ENDBRANCH  35  37
ENDBRANCH  32  35
ENDBRANCH  29  32
ENDBRANCH  28  29
ENDBRANCH  25  28
ENDBRANCH  24  25
ENDBRANCH  23  24
ENDBRANCH   1  23
TORSDOF 12
