REMARK  Name = ZINC20271881
REMARK  6 active torsions:
REMARK  status: ('A' for Active; 'I' for Inactive)
REMARK    1  A    between atoms: C_4  and  C_7
REMARK    2  A    between atoms: C_8  and  C_25
REMARK    3  A    between atoms: C_9  and  C_15
REMARK    4  A    between atoms: C_18  and  O_24
REMARK    5  A    between atoms: C_19  and  N_21
REMARK    6  A    between atoms: C_25  and  C_27
REMARK                            x       y       z     vdW  Elec       q    Type
REMARK                         _______ _______ _______ _____ _____    ______ ____
ROOT
ATOM      1  C   UNL     1      -2.511   0.885  -0.158  0.00  0.00    +0.051 C 
ATOM      2  C   UNL     1      -3.675   1.585   0.006  0.00  0.00    +0.046 C 
ATOM      3  C   UNL     1      -4.967   0.796   0.063  0.00  0.00    +0.141 C 
ATOM      4  N   UNL     1      -4.863  -0.667  -0.064  0.00  0.00    -0.288 N 
ATOM      5  C   UNL     1      -3.645  -1.218  -0.222  0.00  0.00    +0.305 C 
ATOM      6  O   UNL     1      -3.558  -2.426  -0.326  0.00  0.00    -0.252 OA
ATOM      7  N   UNL     1      -2.526  -0.484  -0.272  0.00  0.00    -0.268 N 
ATOM      8  H   UNL     1      -5.771  -1.288  -0.030  0.00  0.00    +0.151 HD
ATOM      9  H   UNL     1      -1.584  -1.035  -0.413  0.00  0.00    +0.156 HD
ENDROOT
BRANCH   1  13
ATOM     10  C   UNL     1       1.182   2.971  -0.340  0.00  0.00    +0.000 A 
ATOM     11  C   UNL     1       0.879   2.022  -1.301  0.00  0.00    +0.001 A 
ATOM     12  C   UNL     1      -0.317   1.338  -1.246  0.00  0.00    +0.010 A 
ATOM     13  C   UNL     1      -1.226   1.609  -0.220  0.00  0.00    -0.003 A 
ATOM     14  C   UNL     1      -0.911   2.565   0.749  0.00  0.00    +0.010 A 
ATOM     15  C   UNL     1       0.289   3.241   0.682  0.00  0.00    +0.001 A 
ENDBRANCH   1  13
BRANCH   3  16
ATOM     16  C   UNL     1      -5.865   1.295  -1.040  0.00  0.00    -0.020 A 
ATOM     17  C   UNL     1      -5.705   0.820  -2.329  0.00  0.00    +0.009 A 
ATOM     18  C   UNL     1      -6.526   1.276  -3.341  0.00  0.00    +0.048 A 
ATOM     19  C   UNL     1      -7.512   2.211  -3.065  0.00  0.00    +0.147 A 
ATOM     20  C   UNL     1      -7.671   2.687  -1.771  0.00  0.00    +0.168 A 
ATOM     21  C   UNL     1      -6.850   2.223  -0.761  0.00  0.00    +0.042 A 
BRANCH  20  22
ATOM     22  N   UNL     1      -8.722   3.685  -1.473  0.00  0.00    +0.060 N 
ATOM     23  O   UNL     1      -8.928   4.027  -0.322  0.00  0.00    -0.126 OA
ATOM     24  O   UNL     1      -9.382   4.164  -2.378  0.00  0.00    -0.126 OA
ENDBRANCH  20  22
BRANCH  19  25
ATOM     25  O   UNL     1      -8.322   2.661  -4.059  0.00  0.00    -0.504 OA
ATOM     26  H   UNL     1      -9.104   3.403  -3.839  0.00  0.00    +0.292 HD
ENDBRANCH  19  25
ENDBRANCH   3  16
BRANCH   2  27
ATOM     27  C   UNL     1      -3.672   2.990   0.118  0.00  0.00    +0.193 C 
ATOM     28  O   UNL     1      -3.342   3.677  -0.832  0.00  0.00    -0.287 OA
BRANCH  27  29
ATOM     29  C   UNL     1      -4.069   3.631   1.392  0.00  0.00    +0.022 A 
ATOM     30  C   UNL     1      -4.342   2.849   2.515  0.00  0.00    +0.012 A 
ATOM     31  C   UNL     1      -4.707   3.453   3.701  0.00  0.00    +0.001 A 
ATOM     32  C   UNL     1      -4.813   4.830   3.774  0.00  0.00    +0.000 A 
ATOM     33  C   UNL     1      -4.550   5.611   2.663  0.00  0.00    +0.001 A 
ATOM     34  C   UNL     1      -4.179   5.020   1.473  0.00  0.00    +0.012 A 
ENDBRANCH  27  29
ENDBRANCH   2  27
TORSDOF 6
