REMARK  Name = ZINC42085400
REMARK  9 active torsions:
REMARK  status: ('A' for Active; 'I' for Inactive)
REMARK    1  A    between atoms: C_1  and  C_2
REMARK    2  A    between atoms: C_8  and  N_10
REMARK    3  A    between atoms: N_10  and  C_11
REMARK    4  A    between atoms: C_11  and  N_13
REMARK    5  A    between atoms: N_13  and  N_14
REMARK    6  A    between atoms: C_15  and  C_17
REMARK    7  A    between atoms: C_17  and  C_18
REMARK    8  A    between atoms: C_18  and  C_19
REMARK    9  A    between atoms: C_19  and  C_21
REMARK                            x       y       z     vdW  Elec       q    Type
REMARK                         _______ _______ _______ _____ _____    ______ ____
ROOT
ATOM      1  N   UNL     1       4.059   0.594   2.379  0.00  0.00    -0.246 N 
ATOM      2  H   UNL     1       4.548   0.689   3.211  0.00  0.00    +0.172 HD
ENDROOT
BRANCH   1   3
ATOM      3  N   UNL     1       4.668   0.942   1.166  0.00  0.00    -0.235 N 
ATOM      4  C   UNL     1       5.933   1.409   1.156  0.00  0.00    +0.229 C 
ATOM      5  O   UNL     1       6.543   1.527   2.198  0.00  0.00    -0.274 OA
ATOM      6  H   UNL     1       4.180   0.848   0.333  0.00  0.00    +0.173 HD
BRANCH   4   7
ATOM      7  C   UNL     1       6.588   1.783  -0.148  0.00  0.00    +0.105 C 
BRANCH   7   8
ATOM      8  C   UNL     1       8.010   2.280   0.119  0.00  0.00    +0.089 C 
BRANCH   8   9
ATOM      9  C   UNL     1       8.665   2.654  -1.185  0.00  0.00    +0.170 C 
ATOM     10  O   UNL     1       8.054   2.536  -2.228  0.00  0.00    -0.291 OA
BRANCH   9  11
ATOM     11  C   UNL     1       9.990   3.143  -1.195  0.00  0.00    +0.055 A 
ATOM     12  C   UNL     1      10.769   3.546  -2.276  0.00  0.00    +0.019 A 
ATOM     13  C   UNL     1      12.034   3.979  -1.969  0.00  0.00    +0.008 A 
ATOM     14  C   UNL     1      12.433   3.986  -0.671  0.00  0.00    +0.046 A 
ATOM     15  S   UNL     1      11.100   3.412   0.175  0.00  0.00    -0.094 S 
ENDBRANCH   9  11
ENDBRANCH   8   9
ENDBRANCH   7   8
ENDBRANCH   4   7
ENDBRANCH   1   3
BRANCH   1  16
ATOM     16  C   UNL     1       2.795   0.128   2.388  0.00  0.00    +0.147 C 
ATOM     17  S   UNL     1       2.051  -0.298   3.870  0.00  0.00    -0.017 S 
BRANCH  16  18
ATOM     18  N   UNL     1       2.116  -0.004   1.231  0.00  0.00    -0.322 N 
ATOM     19  H   UNL     1       2.538   0.237   0.392  0.00  0.00    +0.148 HD
BRANCH  18  26
ATOM     20  C   UNL     1      -0.019   1.526   0.010  0.00  0.00    +0.009 C 
ATOM     21  C   UNL     1       0.002  -0.004   0.002  0.00  0.00    +0.006 C 
ATOM     22  C   UNL     1       0.718  -0.497  -1.257  0.00  0.00    +0.005 C 
ATOM     23  C   UNL     1       0.739  -2.027  -1.265  0.00  0.00    +0.000 C 
ATOM     24  C   UNL     1       1.479  -2.534  -0.026  0.00  0.00    +0.002 C 
ATOM     25  C   UNL     1       0.763  -2.041   1.233  0.00  0.00    +0.022 C 
ATOM     26  C   UNL     1       0.742  -0.511   1.242  0.00  0.00    +0.075 C 
ENDBRANCH  18  26
ENDBRANCH  16  18
ENDBRANCH   1  16
TORSDOF 8
