REMARK  Name = ZINC64352985
REMARK  8 active torsions:
REMARK  status: ('A' for Active; 'I' for Inactive)
REMARK    1  A    between atoms: C_1  and  C_2
REMARK    2  A    between atoms: C_5  and  C_30
REMARK    3  A    between atoms: C_6  and  S_8
REMARK    4  A    between atoms: S_8  and  C_11
REMARK    5  A    between atoms: C_11  and  C_16
REMARK    6  A    between atoms: N_18  and  C_19
REMARK    7  A    between atoms: C_19  and  C_20
REMARK    8  A    between atoms: C_20  and  C_21
REMARK                            x       y       z     vdW  Elec       q    Type
REMARK                         _______ _______ _______ _____ _____    ______ ____
ROOT
ATOM      1  C   UNL     1      -1.156  -3.102   2.888  0.00  0.00    +0.168 C 
ATOM      2  C   UNL     1      -1.291  -4.079   1.693  0.00  0.00    +0.039 C 
ATOM      3  C   UNL     1      -2.571  -4.877   2.047  0.00  0.00    +0.003 C 
ATOM      4  C   UNL     1      -2.488  -5.066   3.576  0.00  0.00    +0.003 C 
ATOM      5  C   UNL     1      -1.589  -3.938   4.110  0.00  0.00    +0.039 C 
ENDROOT
BRANCH   1   6
ATOM      6  C   UNL     1      -2.069  -1.917   2.709  0.00  0.00    +0.241 C 
ATOM      7  O   UNL     1      -3.090  -1.834   3.360  0.00  0.00    -0.273 OA
ATOM      8  N   UNL     1      -1.752  -0.949   1.827  0.00  0.00    -0.313 N 
ATOM      9  H   UNL     1      -0.972  -1.047   1.258  0.00  0.00    +0.149 HD
BRANCH   8  10
ATOM     10  C   UNL     1      -2.584   0.253   1.727  0.00  0.00    +0.108 C 
BRANCH  10  11
ATOM     11  C   UNL     1      -2.009   1.185   0.659  0.00  0.00    +0.052 C 
BRANCH  11  12
ATOM     12  C   UNL     1      -2.865   2.420   0.556  0.00  0.00    -0.040 C 
ATOM     13  C   UNL     1      -2.661   3.605   1.176  0.00  0.00    -0.001 A 
ATOM     14  C   UNL     1      -1.621   4.079   2.098  0.00  0.00    +0.010 A 
ATOM     15  C   UNL     1      -1.686   5.347   2.564  0.00  0.00    +0.001 A 
ATOM     16  C   UNL     1      -2.719   6.217   2.190  0.00  0.00    +0.002 A 
ATOM     17  C   UNL     1      -3.710   5.855   1.348  0.00  0.00    +0.026 A 
ATOM     18  C   UNL     1      -3.740   4.544   0.797  0.00  0.00    +0.043 A 
ATOM     19  N   UNL     1      -4.579   3.963  -0.026  0.00  0.00    -0.380 N 
ATOM     20  C   UNL     1      -4.123   2.589  -0.267  0.00  0.00    +0.144 C 
ATOM     21  H   UNL     1      -5.368   4.373  -0.414  0.00  0.00    +0.160 HD
ENDBRANCH  11  12
ENDBRANCH  10  11
ENDBRANCH   8  10
ENDBRANCH   1   6
BRANCH   1  22
ATOM     22  S   UNL     1       0.564  -2.555   3.069  0.00  0.00    +0.011 S 
ATOM     23  O   UNL     1       0.710  -1.785   4.254  0.00  0.00    -0.168 OA
ATOM     24  O   UNL     1       1.058  -2.075   1.827  0.00  0.00    -0.168 OA
BRANCH  22  30
ATOM     25  C   UNL     1       2.753  -7.019   1.454  0.00  0.00    +0.044 C 
ATOM     26  C   UNL     1       2.461  -6.064   2.583  0.00  0.00    -0.049 A 
ATOM     27  C   UNL     1       2.911  -6.344   3.859  0.00  0.00    +0.004 A 
ATOM     28  C   UNL     1       2.644  -5.468   4.894  0.00  0.00    +0.005 A 
ATOM     29  C   UNL     1       1.927  -4.311   4.653  0.00  0.00    -0.026 A 
ATOM     30  C   UNL     1       1.478  -4.030   3.377  0.00  0.00    +0.092 A 
ATOM     31  C   UNL     1       1.749  -4.904   2.340  0.00  0.00    +0.030 A 
ATOM     32  C   UNL     1       1.635  -3.357   5.782  0.00  0.00    +0.046 C 
ENDBRANCH  22  30
ENDBRANCH   1  22
TORSDOF 6
