REMARK  Name = ZINC23291997
REMARK  10 active torsions:
REMARK  status: ('A' for Active; 'I' for Inactive)
REMARK    1  A    between atoms: C_1  and  C_2
REMARK    2  A    between atoms: C_2  and  C_3
REMARK    3  A    between atoms: C_3  and  N_4
REMARK    4  A    between atoms: C_5  and  N_37
REMARK    5  A    between atoms: C_6  and  C_13
REMARK    6  A    between atoms: C_13  and  C_15
REMARK    7  A    between atoms: C_15  and  N_16
REMARK    8  A    between atoms: N_19  and  C_22
REMARK    9  A    between atoms: C_22  and  C_23
REMARK   10  A    between atoms: C_22  and  C_30
REMARK                            x       y       z     vdW  Elec       q    Type
REMARK                         _______ _______ _______ _____ _____    ______ ____
ROOT
ATOM      1  N   UNL     1       4.329  -6.443   0.586  0.00  0.00    -0.293 NA
ATOM      2  C   UNL     1       5.525  -5.939  -0.103  0.00  0.00    +0.100 C 
ATOM      3  C   UNL     1       6.770  -6.305   0.708  0.00  0.00    +0.100 C 
ATOM      4  N   UNL     1       6.835  -7.764   0.870  0.00  0.00    -0.289 NA
ATOM      5  C   UNL     1       5.639  -8.268   1.559  0.00  0.00    +0.100 C 
ATOM      6  C   UNL     1       4.394  -7.902   0.748  0.00  0.00    +0.100 C 
ENDROOT
BRANCH   1   7
ATOM      7  C   UNL     1       3.106  -6.045  -0.123  0.00  0.00    +0.164 C 
BRANCH   7   8
ATOM      8  C   UNL     1       2.950  -4.548  -0.056  0.00  0.00    +0.185 C 
ATOM      9  O   UNL     1       3.778  -3.877   0.527  0.00  0.00    -0.290 OA
BRANCH   8  12
ATOM     10  N   UNL     1       0.646  -1.969  -1.331  0.00  0.00    -0.281 N 
ATOM     11  C   UNL     1       1.737  -2.525  -0.726  0.00  0.00    +0.116 A 
ATOM     12  C   UNL     1       1.842  -3.925  -0.670  0.00  0.00    +0.121 A 
ATOM     13  C   UNL     1       0.763  -4.720  -1.270  0.00  0.00    +0.266 A 
ATOM     14  O   UNL     1       0.802  -5.936  -1.250  0.00  0.00    -0.267 OA
ATOM     15  N   UNL     1      -0.273  -4.074  -1.844  0.00  0.00    -0.274 N 
ATOM     16  H   UNL     1      -0.993  -4.585  -2.245  0.00  0.00    +0.173 HD
ATOM     17  C   UNL     1      -0.322  -2.732  -1.864  0.00  0.00    +0.331 A 
ATOM     18  O   UNL     1      -1.274  -2.188  -2.387  0.00  0.00    -0.246 OA
BRANCH  11  19
ATOM     19  N   UNL     1       2.706  -1.736  -0.188  0.00  0.00    -0.344 N 
ATOM     20  H   UNL     1       2.666  -0.773  -0.300  0.00  0.00    +0.144 HD
ATOM     21  H   UNL     1       3.437  -2.136   0.309  0.00  0.00    +0.144 HD
ENDBRANCH  11  19
BRANCH  10  22
ATOM     22  C   UNL     1       0.526  -0.510  -1.395  0.00  0.00    +0.128 C 
BRANCH  22  24
ATOM     23  C   UNL     1      -0.335   1.520  -0.220  0.00  0.00    +0.005 C 
ATOM     24  C   UNL     1      -0.210  -0.004  -0.153  0.00  0.00    +0.018 C 
ENDBRANCH  22  24
ENDBRANCH  10  22
ENDBRANCH   8  12
ENDBRANCH   7   8
ENDBRANCH   1   7
BRANCH   4  25
ATOM     25  C   UNL     1       8.058  -8.162   1.579  0.00  0.00    +0.117 C 
BRANCH  25  26
ATOM     26  C   UNL     1       8.089  -9.662   1.726  0.00  0.00    -0.026 A 
ATOM     27  C   UNL     1       7.676 -10.466   0.680  0.00  0.00    +0.008 A 
ATOM     28  C   UNL     1       7.704 -11.841   0.813  0.00  0.00    +0.038 A 
ATOM     29  C   UNL     1       8.147 -12.413   1.994  0.00  0.00    +0.123 A 
ATOM     30  C   UNL     1       8.560 -11.606   3.040  0.00  0.00    +0.038 A 
ATOM     31  C   UNL     1       8.536 -10.231   2.903  0.00  0.00    +0.008 A 
ATOM     32  F   UNL     1       8.174 -13.758   2.125  0.00  0.00    -0.205 F 
ENDBRANCH  25  26
BRANCH  25  33
ATOM     33  C   UNL     1       9.263  -7.709   0.795  0.00  0.00    -0.026 A 
ATOM     34  C   UNL     1       9.266  -7.804  -0.584  0.00  0.00    +0.008 A 
ATOM     35  C   UNL     1      10.370  -7.388  -1.303  0.00  0.00    +0.038 A 
ATOM     36  C   UNL     1      11.474  -6.876  -0.642  0.00  0.00    +0.123 A 
ATOM     37  C   UNL     1      11.470  -6.782   0.739  0.00  0.00    +0.038 A 
ATOM     38  C   UNL     1      10.363  -7.193   1.456  0.00  0.00    +0.008 A 
ATOM     39  F   UNL     1      12.554  -6.470  -1.345  0.00  0.00    -0.205 F 
ENDBRANCH  25  33
ENDBRANCH   4  25
TORSDOF 9
