REMARK  Name = ZINC09586807
REMARK  9 active torsions:
REMARK  status: ('A' for Active; 'I' for Inactive)
REMARK    1  A    between atoms: C_1  and  C_2
REMARK    2  A    between atoms: C_2  and  C_4
REMARK    3  A    between atoms: C_2  and  O_17
REMARK    4  A    between atoms: N_6  and  C_7
REMARK    5  A    between atoms: C_9  and  N_14
REMARK    6  A    between atoms: O_17  and  C_18
REMARK    7  A    between atoms: C_18  and  C_20
REMARK    8  A    between atoms: C_20  and  N_21
REMARK    9  A    between atoms: C_22  and  C_24
REMARK                            x       y       z     vdW  Elec       q    Type
REMARK                         _______ _______ _______ _____ _____    ______ ____
ROOT
ATOM      1  O   UNL     1      -5.918  -2.337  -0.177  0.00  0.00    -0.451 OA
ENDROOT
BRANCH   1   3
ATOM      2  C   UNL     1      -6.889  -0.537  -1.499  0.00  0.00    +0.062 C 
ATOM      3  C   UNL     1      -6.191  -0.911  -0.190  0.00  0.00    +0.259 C 
BRANCH   3   4
ATOM      4  C   UNL     1      -4.894  -0.151  -0.078  0.00  0.00    +0.258 C 
ATOM      5  O   UNL     1      -3.838  -0.748  -0.087  0.00  0.00    -0.271 OA
ATOM      6  N   UNL     1      -4.908   1.192   0.031  0.00  0.00    -0.281 N 
ATOM      7  H   UNL     1      -5.751   1.663   0.119  0.00  0.00    +0.155 HD
BRANCH   6   8
ATOM      8  C   UNL     1      -3.704   1.908   0.019  0.00  0.00    +0.054 A 
ATOM      9  C   UNL     1      -2.582   1.371  -0.597  0.00  0.00    +0.057 A 
ATOM     10  C   UNL     1      -1.396   2.079  -0.608  0.00  0.00    +0.128 A 
ATOM     11  C   UNL     1      -1.324   3.320  -0.002  0.00  0.00    +0.034 A 
ATOM     12  C   UNL     1      -2.441   3.861   0.608  0.00  0.00    +0.024 A 
ATOM     13  C   UNL     1      -3.631   3.157   0.623  0.00  0.00    +0.062 A 
ATOM     14 CL   UNL     1      -5.031   3.833   1.394  0.00  0.00    -0.082 Cl
BRANCH  10  15
ATOM     15  N   UNL     1      -0.200   1.507  -1.265  0.00  0.00    +0.056 N 
ATOM     16  O   UNL     1      -0.261   0.412  -1.795  0.00  0.00    -0.126 OA
ATOM     17  O   UNL     1       0.845   2.133  -1.280  0.00  0.00    -0.126 OA
ENDBRANCH  10  15
ENDBRANCH   6   8
ENDBRANCH   3   4
ENDBRANCH   1   3
BRANCH   1  18
ATOM     18  C   UNL     1      -6.867  -3.134   0.340  0.00  0.00    +0.325 C 
ATOM     19  O   UNL     1      -7.891  -2.655   0.766  0.00  0.00    -0.249 OA
BRANCH  18  20
ATOM     20  C   UNL     1      -6.655  -4.625   0.387  0.00  0.00    +0.225 C 
BRANCH  20  21
ATOM     21  N   UNL     1      -7.826  -5.266   0.991  0.00  0.00    -0.304 N 
ATOM     22  C   UNL     1      -7.861  -6.605   1.138  0.00  0.00    +0.220 C 
ATOM     23  O   UNL     1      -6.922  -7.280   0.770  0.00  0.00    -0.275 OA
ATOM     24  H   UNL     1      -8.576  -4.726   1.286  0.00  0.00    +0.149 HD
BRANCH  22  25
ATOM     25  C   UNL     1      -9.065  -7.264   1.759  0.00  0.00    +0.048 C 
ATOM     26  C   UNL     1      -9.262  -6.731   3.180  0.00  0.00    +0.019 C 
ATOM     27  C   UNL     1     -10.485  -7.401   3.811  0.00  0.00    -0.009 C 
ATOM     28  C   UNL     1     -10.269  -8.915   3.859  0.00  0.00    +0.007 C 
ATOM     29  C   UNL     1     -10.072  -9.447   2.438  0.00  0.00    -0.009 C 
ATOM     30  C   UNL     1      -8.850  -8.778   1.808  0.00  0.00    +0.019 C 
ATOM     31  C   UNL     1     -11.314  -9.135   1.600  0.00  0.00    +0.007 C 
ATOM     32  C   UNL     1     -11.529  -7.621   1.552  0.00  0.00    -0.009 C 
ATOM     33  C   UNL     1     -11.726  -7.088   2.973  0.00  0.00    +0.007 C 
ATOM     34  C   UNL     1     -10.306  -6.952   0.921  0.00  0.00    +0.019 C 
ENDBRANCH  22  25
ENDBRANCH  20  21
ENDBRANCH  18  20
ENDBRANCH   1  18
TORSDOF 8
