REMARK  Name = ZINC03070987
REMARK  9 active torsions:
REMARK  status: ('A' for Active; 'I' for Inactive)
REMARK    1  A    between atoms: C_1  and  C_2
REMARK    2  A    between atoms: C_7  and  N_8
REMARK    3  A    between atoms: N_8  and  C_9
REMARK    4  A    between atoms: C_9  and  N_11
REMARK    5  A    between atoms: N_11  and  C_12
REMARK    6  A    between atoms: C_12  and  C_14
REMARK    7  A    between atoms: C_12  and  N_18
REMARK    8  A    between atoms: C_19  and  C_21
REMARK    9  A    between atoms: C_21  and  C_22
REMARK                            x       y       z     vdW  Elec       q    Type
REMARK                         _______ _______ _______ _____ _____    ______ ____
ROOT
ATOM      1  C   UNL     1       5.973   2.312  -0.357  0.00  0.00    +0.211 C 
ENDROOT
BRANCH   1   2
ATOM      2  C   UNL     1       7.027   1.691   0.562  0.00  0.00    +0.225 C 
ATOM      3 CL   UNL     1       7.304  -0.026   0.085  0.00  0.00    -0.080 Cl
ATOM      4 CL   UNL     1       8.570   2.612   0.416  0.00  0.00    -0.080 Cl
ATOM      5 CL   UNL     1       6.448   1.754   2.268  0.00  0.00    -0.080 Cl
ENDBRANCH   1   2
BRANCH   1   6
ATOM      6  N   UNL     1       6.444   2.260  -1.744  0.00  0.00    -0.293 N 
ATOM      7  C   UNL     1       6.319   3.341  -2.539  0.00  0.00    +0.219 C 
ATOM      8  O   UNL     1       5.816   4.356  -2.106  0.00  0.00    -0.275 OA
ATOM      9  H   UNL     1       6.845   1.447  -2.090  0.00  0.00    +0.151 HD
BRANCH   7  10
ATOM     10  C   UNL     1       6.802   3.288  -3.965  0.00  0.00    +0.131 C 
BRANCH  10  11
ATOM     11  C   UNL     1       6.548   4.615  -4.632  0.00  0.00    -0.039 A 
ATOM     12  C   UNL     1       5.355   4.838  -5.294  0.00  0.00    +0.004 A 
ATOM     13  C   UNL     1       5.119   6.057  -5.901  0.00  0.00    +0.000 A 
ATOM     14  C   UNL     1       6.081   7.050  -5.855  0.00  0.00    +0.000 A 
ATOM     15  C   UNL     1       7.276   6.824  -5.198  0.00  0.00    +0.000 A 
ATOM     16  C   UNL     1       7.509   5.607  -4.586  0.00  0.00    +0.004 A 
ENDBRANCH  10  11
ENDBRANCH   7  10
ENDBRANCH   1   6
BRANCH   1  17
ATOM     17  N   UNL     1       4.720   1.563  -0.239  0.00  0.00    -0.305 N 
ATOM     18  H   UNL     1       4.731   0.593  -0.244  0.00  0.00    +0.150 HD
BRANCH  17  19
ATOM     19  C   UNL     1       3.550   2.222  -0.122  0.00  0.00    +0.136 C 
ATOM     20  S   UNL     1       3.529   3.934  -0.112  0.00  0.00    -0.019 S 
BRANCH  19  21
ATOM     21  N   UNL     1       2.396   1.534  -0.013  0.00  0.00    -0.297 N 
ATOM     22  H   UNL     1       2.413   0.565   0.044  0.00  0.00    +0.154 HD
BRANCH  21  29
ATOM     23  C   UNL     1       0.293   0.598  -1.686  0.00  0.00    +0.045 C 
ATOM     24  C   UNL     1       0.122   1.792  -0.783  0.00  0.00    -0.029 A 
ATOM     25  C   UNL     1      -1.081   2.471  -0.755  0.00  0.00    +0.005 A 
ATOM     26  C   UNL     1      -1.240   3.564   0.077  0.00  0.00    +0.000 A 
ATOM     27  C   UNL     1      -0.194   3.987   0.875  0.00  0.00    +0.002 A 
ATOM     28  C   UNL     1       1.013   3.317   0.848  0.00  0.00    +0.023 A 
ATOM     29  C   UNL     1       1.175   2.215   0.017  0.00  0.00    +0.036 A 
ENDBRANCH  21  29
ENDBRANCH  19  21
ENDBRANCH  17  19
ENDBRANCH   1  17
TORSDOF 8
