REMARK  Name = ZINC02129573
REMARK  3 active torsions:
REMARK  status: ('A' for Active; 'I' for Inactive)
REMARK    1  A    between atoms: C_1  and  C_2
REMARK    2  A    between atoms: N_19  and  C_22
REMARK    3  A    between atoms: C_22  and  C_23
REMARK                            x       y       z     vdW  Elec       q    Type
REMARK                         _______ _______ _______ _____ _____    ______ ____
ROOT
ATOM      1  C   UNL     1       3.026  -0.447   1.619  0.00  0.00    +0.048 C 
ATOM      2  C   UNL     1       2.483  -0.140   0.222  0.00  0.00    +0.151 C 
ATOM      3  C   UNL     1       3.418  -0.752  -0.793  0.00  0.00    +0.053 A 
ATOM      4  C   UNL     1       4.270  -0.022  -1.548  0.00  0.00    -0.015 A 
ATOM      5  C   UNL     1       4.993  -0.955  -2.389  0.00  0.00    +0.003 A 
ATOM      6  C   UNL     1       5.989  -0.784  -3.356  0.00  0.00    +0.010 A 
ATOM      7  C   UNL     1       6.458  -1.918  -3.971  0.00  0.00    +0.001 A 
ATOM      8  C   UNL     1       5.976  -3.179  -3.658  0.00  0.00    +0.002 A 
ATOM      9  C   UNL     1       4.992  -3.377  -2.705  0.00  0.00    +0.026 A 
ATOM     10  C   UNL     1       4.497  -2.243  -2.064  0.00  0.00    +0.047 A 
ATOM     11  N   UNL     1       3.546  -2.081  -1.097  0.00  0.00    -0.356 N 
ATOM     12  H   UNL     1       3.038  -2.798  -0.688  0.00  0.00    +0.166 HD
ATOM     13  C   UNL     1       4.400   1.478  -1.486  0.00  0.00    +0.056 C 
ATOM     14  C   UNL     1       3.778   1.982  -0.178  0.00  0.00    +0.114 C 
ATOM     15  N   UNL     1       2.481   1.309   0.022  0.00  0.00    -0.281 N 
ATOM     16  C   UNL     1       1.358   2.032   0.000  0.00  0.00    +0.234 C 
ATOM     17  O   UNL     1       1.463   3.240  -0.030  0.00  0.00    -0.274 OA
ATOM     18  C   UNL     1      -0.018   1.449   0.010  0.00  0.00    +0.204 C 
ATOM     19  N   UNL     1       0.002  -0.004   0.002  0.00  0.00    -0.286 N 
ATOM     20  C   UNL     1       1.117  -0.729   0.095  0.00  0.00    +0.246 C 
ATOM     21  O   UNL     1       1.016  -1.937   0.076  0.00  0.00    -0.273 OA
ENDROOT
BRANCH  19  22
ATOM     22  C   UNL     1      -1.275  -0.712  -0.114  0.00  0.00    +0.143 C 
BRANCH  22  23
ATOM     23  C   UNL     1      -1.589  -0.946  -1.570  0.00  0.00    -0.030 A 
ATOM     24  C   UNL     1      -2.316  -0.007  -2.279  0.00  0.00    +0.006 A 
ATOM     25  C   UNL     1      -2.599  -0.218  -3.615  0.00  0.00    +0.020 A 
ATOM     26  C   UNL     1      -2.166  -1.374  -4.240  0.00  0.00    +0.041 A 
ATOM     27  C   UNL     1      -1.444  -2.315  -3.528  0.00  0.00    +0.020 A 
ATOM     28  C   UNL     1      -1.156  -2.101  -2.193  0.00  0.00    +0.006 A 
ATOM     29 CL   UNL     1      -2.529  -1.643  -5.916  0.00  0.00    -0.084 Cl
ENDBRANCH  22  23
ENDBRANCH  19  22
TORSDOF 2
