REMARK  Name = ZINC39946021
REMARK  10 active torsions:
REMARK  status: ('A' for Active; 'I' for Inactive)
REMARK    1  A    between atoms: C_1  and  C_2
REMARK    2  A    between atoms: C_2  and  C_3
REMARK    3  A    between atoms: C_3  and  C_4
REMARK    4  A    between atoms: C_3  and  C_5
REMARK    5  A    between atoms: C_3  and  C_6
REMARK    6  A    between atoms: C_12  and  C_20
REMARK    7  A    between atoms: C_20  and  O_22
REMARK    8  A    between atoms: O_22  and  C_23
REMARK    9  A    between atoms: C_23  and  C_24
REMARK   10  A    between atoms: C_24  and  C_26
REMARK                            x       y       z     vdW  Elec       q    Type
REMARK                         _______ _______ _______ _____ _____    ______ ____
ROOT
ATOM      1  C   UNL     1       0.739  -2.027  -1.265  0.00  0.00    -0.001 C 
ATOM      2  C   UNL     1      -0.697  -2.563  -1.268  0.00  0.00    +0.010 C 
ATOM      3  C   UNL     1      -0.651  -4.070  -1.025  0.00  0.00    +0.056 C 
ATOM      4  C   UNL     1       0.304  -4.733  -1.986  0.00  0.00    +0.046 A 
ATOM      5  C   UNL     1       1.275  -4.015  -2.672  0.00  0.00    -0.011 A 
ATOM      6  C   UNL     1       2.138  -4.680  -3.542  0.00  0.00    +0.073 A 
ATOM      7  C   UNL     1       1.986  -6.079  -3.699  0.00  0.00    +0.015 A 
ATOM      8  C   UNL     1       2.813  -6.817  -4.555  0.00  0.00    +0.011 A 
ATOM      9  C   UNL     1       2.628  -8.162  -4.676  0.00  0.00    +0.001 A 
ATOM     10  C   UNL     1       1.627  -8.813  -3.958  0.00  0.00    +0.002 A 
ATOM     11  C   UNL     1       0.807  -8.126  -3.117  0.00  0.00    +0.028 A 
ATOM     12  C   UNL     1       0.967  -6.736  -2.966  0.00  0.00    +0.072 A 
ATOM     13  N   UNL     1       0.181  -6.036  -2.150  0.00  0.00    -0.251 NA
ATOM     14  C   UNL     1       1.442  -2.525  -2.527  0.00  0.00    +0.042 C 
ENDROOT
BRANCH   1  15
ATOM     15  C   UNL     1       0.718  -0.497  -1.257  0.00  0.00    -0.032 C 
ATOM     16  C   UNL     1      -0.022   0.009  -2.496  0.00  0.00    +0.011 C 
ATOM     17  C   UNL     1       2.154   0.032  -1.268  0.00  0.00    +0.011 C 
BRANCH  15  19
ATOM     18  C   UNL     1      -0.019   1.526   0.010  0.00  0.00    +0.004 C 
ATOM     19  C   UNL     1       0.002  -0.004   0.002  0.00  0.00    +0.003 C 
ENDBRANCH  15  19
ENDBRANCH   1  15
BRANCH   6  20
ATOM     20  C   UNL     1       3.184  -3.944  -4.282  0.00  0.00    +0.341 C 
ATOM     21  O   UNL     1       4.288  -3.803  -3.795  0.00  0.00    -0.245 OA
BRANCH  20  22
ATOM     22  O   UNL     1       2.914  -3.429  -5.498  0.00  0.00    -0.453 OA
BRANCH  22  23
ATOM     23  C   UNL     1       3.972  -2.729  -6.156  0.00  0.00    +0.311 C 
BRANCH  23  24
ATOM     24  C   UNL     1       3.488  -2.228  -7.492  0.00  0.00    +0.199 C 
ATOM     25  O   UNL     1       2.347  -2.449  -7.846  0.00  0.00    -0.289 OA
BRANCH  24  26
ATOM     26  C   UNL     1       4.359  -1.503  -8.332  0.00  0.00    +0.026 C 
ATOM     27  C   UNL     1       4.073  -0.972  -9.576  0.00  0.00    +0.006 A 
ATOM     28  C   UNL     1       2.906  -0.971 -10.377  0.00  0.00    +0.010 A 
ATOM     29  C   UNL     1       2.908  -0.361 -11.583  0.00  0.00    +0.001 A 
ATOM     30  C   UNL     1       4.041   0.290 -12.097  0.00  0.00    +0.002 A 
ATOM     31  C   UNL     1       5.205   0.346 -11.413  0.00  0.00    +0.026 A 
ATOM     32  C   UNL     1       5.288  -0.293 -10.089  0.00  0.00    +0.043 A 
ATOM     33  N   UNL     1       6.263  -0.391  -9.231  0.00  0.00    -0.380 N 
ATOM     34  C   UNL     1       5.801  -1.137  -8.056  0.00  0.00    +0.152 C 
ATOM     35  H   UNL     1       7.153  -0.024  -9.348  0.00  0.00    +0.160 HD
ENDBRANCH  24  26
ENDBRANCH  23  24
ENDBRANCH  22  23
ENDBRANCH  20  22
ENDBRANCH   6  20
TORSDOF 7
