REMARK  Name = ZINC21689973
REMARK  7 active torsions:
REMARK  status: ('A' for Active; 'I' for Inactive)
REMARK    1  A    between atoms: C_4  and  C_7
REMARK    2  A    between atoms: C_7  and  C_8
REMARK    3  A    between atoms: C_7  and  N_14
REMARK    4  A    between atoms: C_20  and  C_22
REMARK    5  A    between atoms: C_22  and  C_23
REMARK    6  A    between atoms: C_23  and  C_24
REMARK    7  A    between atoms: C_30  and  C_32
REMARK                            x       y       z     vdW  Elec       q    Type
REMARK                         _______ _______ _______ _____ _____    ______ ____
ROOT
ATOM      1  N   UNL     1       3.611  -1.868  -0.933  0.00  0.00    -0.289 NA
ATOM      2  C   UNL     1       3.188  -1.459  -2.279  0.00  0.00    +0.104 C 
ATOM      3  C   UNL     1       2.921  -2.707  -3.127  0.00  0.00    +0.123 C 
ATOM      4  N   UNL     1       4.115  -3.565  -3.084  0.00  0.00    -0.299 N 
ATOM      5  C   UNL     1       4.680  -3.906  -1.770  0.00  0.00    +0.123 C 
ATOM      6  C   UNL     1       4.878  -2.611  -0.975  0.00  0.00    +0.104 C 
ATOM      7  C   UNL     1       4.675  -4.028  -4.219  0.00  0.00    +0.216 C 
ATOM      8  O   UNL     1       4.196  -3.738  -5.295  0.00  0.00    -0.276 OA
ENDROOT
BRANCH   1   9
ATOM      9  C   UNL     1       3.711  -0.707  -0.038  0.00  0.00    +0.117 C 
BRANCH   9  13
ATOM     10  C   UNL     1      -0.017   1.378   0.010  0.00  0.00    +0.000 A 
ATOM     11  C   UNL     1       1.171   2.086   0.002  0.00  0.00    +0.000 A 
ATOM     12  C   UNL     1       2.377   1.411  -0.013  0.00  0.00    +0.005 A 
ATOM     13  C   UNL     1       2.396   0.029  -0.020  0.00  0.00    -0.026 A 
ATOM     14  C   UNL     1       1.208  -0.679  -0.012  0.00  0.00    +0.005 A 
ATOM     15  C   UNL     1       0.002  -0.004   0.002  0.00  0.00    +0.000 A 
ENDBRANCH   9  13
BRANCH   9  16
ATOM     16  C   UNL     1       4.044  -1.175   1.356  0.00  0.00    -0.026 A 
ATOM     17  C   UNL     1       3.455  -2.320   1.860  0.00  0.00    +0.005 A 
ATOM     18  C   UNL     1       3.760  -2.748   3.138  0.00  0.00    +0.000 A 
ATOM     19  C   UNL     1       4.654  -2.033   3.912  0.00  0.00    +0.000 A 
ATOM     20  C   UNL     1       5.243  -0.888   3.408  0.00  0.00    +0.000 A 
ATOM     21  C   UNL     1       4.941  -0.462   2.128  0.00  0.00    +0.005 A 
ENDBRANCH   9  16
ENDBRANCH   1   9
BRANCH   7  22
ATOM     22  C   UNL     1       5.898  -4.906  -4.152  0.00  0.00    +0.102 C 
BRANCH  22  23
ATOM     23  C   UNL     1       6.329  -5.290  -5.569  0.00  0.00    +0.065 C 
BRANCH  23  24
ATOM     24  C   UNL     1       7.552  -6.168  -5.502  0.00  0.00    +0.051 A 
ATOM     25  C   UNL     1       7.583  -7.385  -6.097  0.00  0.00    +0.071 A 
ATOM     26  S   UNL     1       9.236  -7.918  -5.681  0.00  0.00    -0.060 S 
ATOM     27  C   UNL     1       9.705  -6.557  -4.808  0.00  0.00    +0.165 A 
ATOM     28  N   UNL     1       8.643  -5.783  -4.866  0.00  0.00    -0.230 NA
ATOM     29  N   UNL     1      10.920  -6.310  -4.182  0.00  0.00    -0.261 N 
ATOM     30  C   UNL     1      11.905  -7.229  -4.234  0.00  0.00    +0.251 C 
ATOM     31  O   UNL     1      11.729  -8.275  -4.829  0.00  0.00    -0.270 OA
ATOM     32  H   UNL     1      11.061  -5.476  -3.707  0.00  0.00    +0.157 HD
BRANCH  30  33
ATOM     33  C   UNL     1      13.194  -6.967  -3.570  0.00  0.00    +0.053 A 
ATOM     34  C   UNL     1      13.403  -5.754  -2.871  0.00  0.00    +0.020 A 
ATOM     35  C   UNL     1      14.602  -5.539  -2.267  0.00  0.00    +0.071 A 
ATOM     36  C   UNL     1      15.606  -6.522  -2.350  0.00  0.00    +0.249 A 
ATOM     37  O   UNL     1      16.683  -6.333  -1.810  0.00  0.00    -0.268 OA
ATOM     38  N   UNL     1      15.386  -7.668  -3.019  0.00  0.00    -0.328 N 
ATOM     39  H   UNL     1      16.089  -8.335  -3.066  0.00  0.00    +0.168 HD
ATOM     40  C   UNL     1      14.206  -7.905  -3.620  0.00  0.00    +0.099 A 
ENDBRANCH  30  33
ENDBRANCH  23  24
ENDBRANCH  22  23
ENDBRANCH   7  22
TORSDOF 7
