REMARK  Name = ZINC05773065
REMARK  4 active torsions:
REMARK  status: ('A' for Active; 'I' for Inactive)
REMARK    1  A    between atoms: C_4  and  C_7
REMARK    2  A    between atoms: C_7  and  C_12
REMARK    3  A    between atoms: N_14  and  C_15
REMARK    4  A    between atoms: C_20  and  N_21
REMARK                            x       y       z     vdW  Elec       q    Type
REMARK                         _______ _______ _______ _____ _____    ______ ____
ROOT
ATOM      1  C   UNL     1       0.765   5.872  -1.098  0.00  0.00    +0.228 C 
ATOM      2  O   UNL     1       0.277   6.680  -1.860  0.00  0.00    -0.275 OA
ATOM      3  N   UNL     1       2.038   5.465  -1.273  0.00  0.00    -0.283 N 
ATOM      4  H   UNL     1       2.406   4.766  -0.710  0.00  0.00    +0.155 HD
ENDROOT
BRANCH   3   5
ATOM      5  C   UNL     1       2.830   6.051  -2.267  0.00  0.00    +0.064 A 
ATOM      6  C   UNL     1       2.266   6.408  -3.485  0.00  0.00    +0.027 A 
ATOM      7  C   UNL     1       3.050   6.986  -4.464  0.00  0.00    +0.022 A 
ATOM      8  C   UNL     1       4.396   7.209  -4.233  0.00  0.00    +0.043 A 
ATOM      9  C   UNL     1       4.960   6.854  -3.021  0.00  0.00    +0.054 A 
ATOM     10  C   UNL     1       4.180   6.280  -2.036  0.00  0.00    +0.149 A 
ATOM     11 CL   UNL     1       5.378   7.936  -5.466  0.00  0.00    -0.083 Cl
BRANCH  10  12
ATOM     12  N   UNL     1       4.783   5.906  -0.737  0.00  0.00    +0.058 N 
ATOM     13  O   UNL     1       5.947   6.179  -0.505  0.00  0.00    -0.126 OA
ATOM     14  O   UNL     1       4.115   5.325   0.100  0.00  0.00    -0.126 OA
ENDBRANCH  10  12
ENDBRANCH   3   5
BRANCH   1  15
ATOM     15  C   UNL     1      -0.051   5.323   0.043  0.00  0.00    +0.072 C 
ATOM     16  C   UNL     1       0.598   5.703   1.390  0.00  0.00    +0.021 C 
ATOM     17  C   UNL     1      -0.154   6.985   1.825  0.00  0.00    +0.001 C 
ATOM     18  C   UNL     1      -1.610   6.695   1.382  0.00  0.00    +0.001 C 
ATOM     19  C   UNL     1      -1.455   5.953   0.038  0.00  0.00    +0.021 C 
BRANCH  15  23
ATOM     20  C   UNL     1      -0.354   1.075  -0.287  0.00  0.00    +0.000 A 
ATOM     21  C   UNL     1      -0.803   1.713   0.854  0.00  0.00    +0.000 A 
ATOM     22  C   UNL     1      -0.700   3.087   0.963  0.00  0.00    +0.004 A 
ATOM     23  C   UNL     1      -0.158   3.824  -0.073  0.00  0.00    -0.032 A 
ATOM     24  C   UNL     1       0.285   3.186  -1.217  0.00  0.00    +0.004 A 
ATOM     25  C   UNL     1       0.188   1.811  -1.323  0.00  0.00    +0.000 A 
ENDBRANCH  15  23
ENDBRANCH   1  15
TORSDOF 4
