REMARK  Name = ZINC59890661
REMARK  8 active torsions:
REMARK  status: ('A' for Active; 'I' for Inactive)
REMARK    1  A    between atoms: C_1  and  C_2
REMARK    2  A    between atoms: C_7  and  C_9
REMARK    3  A    between atoms: C_7  and  N_31
REMARK    4  A    between atoms: C_9  and  N_10
REMARK    5  A    between atoms: C_11  and  C_13
REMARK    6  A    between atoms: C_16  and  N_19
REMARK    7  A    between atoms: N_31  and  C_32
REMARK    8  A    between atoms: N_31  and  C_33
REMARK                            x       y       z     vdW  Elec       q    Type
REMARK                         _______ _______ _______ _____ _____    ______ ____
ROOT
ATOM      1  C   UNL     1      -1.650  -6.096   1.039  0.00  0.00    +0.037 A 
ATOM      2  C   UNL     1      -0.415  -6.751   1.044  0.00  0.00    +0.015 A 
ATOM      3  C   UNL     1      -0.368  -8.127   1.052  0.00  0.00    +0.024 A 
ATOM      4  C   UNL     1      -1.548  -8.866   1.054  0.00  0.00    +0.032 A 
ATOM      5  C   UNL     1      -2.779  -8.216   1.049  0.00  0.00    +0.024 A 
ATOM      6  C   UNL     1      -2.833  -6.841   1.047  0.00  0.00    +0.015 A 
ENDROOT
BRANCH   4   7
ATOM      7  N   UNL     1      -1.496 -10.257   1.062  0.00  0.00    -0.298 N 
ATOM      8  C   UNL     1      -0.461 -10.906   1.703  0.00  0.00    +0.154 C 
ATOM      9  N   UNL     1       0.408 -10.233   2.389  0.00  0.00    -0.113 NA
ATOM     10  S   UNL     1       1.482 -11.363   2.999  0.00  0.00    +0.101 S 
ATOM     11  O   UNL     1       1.314 -11.403   4.409  0.00  0.00    -0.146 OA
ATOM     12  O   UNL     1       2.736 -11.154   2.365  0.00  0.00    -0.146 OA
ATOM     13  C   UNL     1       0.777 -12.845   2.329  0.00  0.00    +0.123 A 
ATOM     14  C   UNL     1      -0.335 -12.369   1.621  0.00  0.00    +0.043 A 
ATOM     15  C   UNL     1      -1.133 -13.316   0.960  0.00  0.00    +0.013 A 
ATOM     16  C   UNL     1      -0.818 -14.655   1.023  0.00  0.00    +0.001 A 
ATOM     17  C   UNL     1       0.284 -15.095   1.734  0.00  0.00    +0.002 A 
ATOM     18  C   UNL     1       1.090 -14.171   2.386  0.00  0.00    +0.030 A 
ATOM     19  H   UNL     1      -2.188 -10.770   0.616  0.00  0.00    +0.154 HD
ENDBRANCH   4   7
BRANCH   1  21
ATOM     20  N   UNL     1      -0.563  -3.905   1.023  0.00  0.00    -0.313 N 
ATOM     21  C   UNL     1      -1.705  -4.622   1.030  0.00  0.00    +0.244 C 
ATOM     22  O   UNL     1      -2.780  -4.053   1.031  0.00  0.00    -0.270 OA
ATOM     23  H   UNL     1       0.294  -4.359   1.022  0.00  0.00    +0.149 HD
BRANCH  20  24
ATOM     24  C   UNL     1      -0.618  -2.441   1.014  0.00  0.00    +0.092 C 
BRANCH  24  30
ATOM     25  C   UNL     1      -0.164   1.734  -0.031  0.00  0.00    +0.007 C 
ATOM     26  C   UNL     1      -0.119   0.208  -0.133  0.00  0.00    -0.015 C 
ATOM     27  C   UNL     1       0.471  -0.195  -1.487  0.00  0.00    +0.003 C 
ATOM     28  C   UNL     1       0.516  -1.721  -1.589  0.00  0.00    -0.001 C 
ATOM     29  C   UNL     1       1.389  -2.282  -0.465  0.00  0.00    -0.010 C 
ATOM     30  C   UNL     1       0.800  -1.879   0.888  0.00  0.00    -0.050 C 
ATOM     31  C   UNL     1       0.754  -0.353   0.991  0.00  0.00    -0.007 C 
BRANCH  30  32
ATOM     32  N   UNL     1       1.638  -2.418   1.967  0.00  0.00    +0.381 N 
ATOM     33  C   UNL     1       2.974  -1.809   1.900  0.00  0.00    -0.096 C 
ATOM     34  C   UNL     1       1.024  -2.108   3.265  0.00  0.00    -0.096 C 
ATOM     35  H   UNL     1       1.719  -3.418   1.863  0.00  0.00    -0.082 HD
ENDBRANCH  30  32
ENDBRANCH  24  30
ENDBRANCH  20  24
ENDBRANCH   1  21
TORSDOF 5
