REMARK  Name = ZINC66967423
REMARK  5 active torsions:
REMARK  status: ('A' for Active; 'I' for Inactive)
REMARK    1  A    between atoms: C_1  and  C_2
REMARK    2  A    between atoms: C_4  and  C_22
REMARK    3  A    between atoms: C_7  and  N_8
REMARK    4  A    between atoms: C_15  and  C_17
REMARK    5  A    between atoms: C_29  and  C_31
REMARK                            x       y       z     vdW  Elec       q    Type
REMARK                         _______ _______ _______ _____ _____    ______ ____
ROOT
ATOM      1  C   UNL     1      -1.121   1.044   0.344  0.00  0.00    +0.045 C 
ATOM      2  C   UNL     1      -0.214  -0.155   0.234  0.00  0.00    -0.028 A 
ATOM      3  C   UNL     1      -0.201  -0.904  -0.921  0.00  0.00    +0.018 A 
ATOM      4  C   UNL     1       0.641  -2.015  -1.022  0.00  0.00    +0.037 A 
ATOM      5  C   UNL     1       1.466  -2.362   0.051  0.00  0.00    +0.015 A 
ATOM      6  C   UNL     1       1.448  -1.609   1.204  0.00  0.00    +0.024 A 
ATOM      7  C   UNL     1       0.613  -0.500   1.299  0.00  0.00    +0.038 A 
ENDROOT
BRANCH   7   8
ATOM      8  N   UNL     1       0.601   0.264   2.465  0.00  0.00    -0.269 N 
ATOM      9  C   UNL     1       0.926  -0.302   3.644  0.00  0.00    +0.307 C 
ATOM     10  O   UNL     1       1.307  -1.456   3.680  0.00  0.00    -0.252 OA
ATOM     11  N   UNL     1       0.831   0.412   4.783  0.00  0.00    -0.282 N 
ATOM     12  C   UNL     1       0.480   1.841   4.875  0.00  0.00    +0.110 C 
ATOM     13  C   UNL     1       1.091   2.314   6.218  0.00  0.00    +0.021 C 
ATOM     14  C   UNL     1       0.861   1.072   7.119  0.00  0.00    +0.024 C 
ATOM     15  C   UNL     1       1.052  -0.107   6.141  0.00  0.00    +0.081 C 
ATOM     16  H   UNL     1       0.358   1.202   2.428  0.00  0.00    +0.156 HD
BRANCH  15  17
ATOM     17  C   UNL     1       0.037  -1.210   6.448  0.00  0.00    +0.010 C 
ATOM     18  C   UNL     1       0.144  -1.648   7.930  0.00  0.00    +0.005 C 
ATOM     19  C   UNL     1      -1.255  -2.251   8.210  0.00  0.00    +0.000 C 
ATOM     20  C   UNL     1      -2.224  -1.334   7.436  0.00  0.00    +0.000 C 
ATOM     21  C   UNL     1      -1.402  -0.672   6.315  0.00  0.00    +0.005 C 
ENDBRANCH  15  17
ENDBRANCH   7   8
BRANCH   4  22
ATOM     22  C   UNL     1       0.657  -2.820  -2.259  0.00  0.00    +0.247 C 
ATOM     23  O   UNL     1       0.522  -2.278  -3.338  0.00  0.00    -0.270 OA
ATOM     24  N   UNL     1       0.823  -4.156  -2.191  0.00  0.00    -0.295 N 
ATOM     25  C   UNL     1       0.854  -4.841  -0.892  0.00  0.00    +0.108 C 
ATOM     26  C   UNL     1      -0.181  -5.971  -0.906  0.00  0.00    +0.019 C 
ATOM     27  C   UNL     1       0.083  -6.884  -2.105  0.00  0.00    +0.003 C 
ATOM     28  C   UNL     1      -0.060  -6.082  -3.400  0.00  0.00    +0.022 C 
ATOM     29  C   UNL     1       0.970  -4.955  -3.415  0.00  0.00    +0.073 C 
ATOM     30  C   UNL     1       0.738  -4.066  -4.638  0.00  0.00    +0.028 C 
ENDBRANCH   4  22
TORSDOF 3
