REMARK  Name = ZINC47145254
REMARK  6 active torsions:
REMARK  status: ('A' for Active; 'I' for Inactive)
REMARK    1  A    between atoms: C_1  and  C_2
REMARK    2  A    between atoms: C_7  and  N_8
REMARK    3  A    between atoms: C_9  and  C_11
REMARK    4  A    between atoms: C_11  and  N_12
REMARK    5  A    between atoms: C_30  and  C_39
REMARK    6  A    between atoms: C_30  and  C_40
REMARK                            x       y       z     vdW  Elec       q    Type
REMARK                         _______ _______ _______ _____ _____    ______ ____
ROOT
ATOM      1  N   UNL     1      -0.241  -0.905   5.988  0.00  0.00    -0.233 N 
ATOM      2  C   UNL     1      -1.421  -1.425   6.474  0.00  0.00    +0.226 C 
ATOM      3  O   UNL     1      -2.511  -1.435   5.943  0.00  0.00    -0.275 OA
ATOM      4  C   UNL     1      -1.041  -1.975   7.811  0.00  0.00    +0.091 C 
ATOM      5  C   UNL     1      -1.704  -3.224   8.447  0.00  0.00    +0.007 C 
ATOM      6  C   UNL     1      -0.783  -4.422   7.966  0.00  0.00    +0.010 C 
ATOM      7  C   UNL     1       0.622  -3.682   8.237  0.00  0.00    +0.015 C 
ATOM      8  C   UNL     1       0.330  -2.582   7.297  0.00  0.00    +0.092 C 
ATOM      9  C   UNL     1       0.869  -1.394   6.660  0.00  0.00    +0.226 C 
ATOM     10  O   UNL     1       1.994  -0.947   6.704  0.00  0.00    -0.275 OA
ATOM     11  C   UNL     1       0.400  -3.450   9.728  0.00  0.00    +0.061 C 
ATOM     12  C   UNL     1      -1.102  -3.015   9.839  0.00  0.00    +0.017 C 
ATOM     13  C   UNL     1      -1.712  -3.157  11.163  0.00  0.00    +0.003 C 
ATOM     14  C   UNL     1      -0.880  -2.357  12.138  0.00  0.00    +0.031 A 
ATOM     15  C   UNL     1       0.347  -1.814  11.979  0.00  0.00    +0.087 A 
ATOM     16  N   UNL     1       0.806  -1.104  13.063  0.00  0.00    -0.311 N 
ATOM     17  H   UNL     1       1.669  -0.662  13.022  0.00  0.00    +0.170 HD
ATOM     18  C   UNL     1       0.061  -1.020  14.181  0.00  0.00    +0.289 A 
ATOM     19  O   UNL     1       0.321  -0.443  15.222  0.00  0.00    -0.260 OA
ATOM     20  S   UNL     1      -1.317  -1.905  13.795  0.00  0.00    -0.030 S 
ATOM     21  S   UNL     1       1.345  -2.095  10.474  0.00  0.00    -0.103 S 
ATOM     22  C   UNL     1      -3.143  -2.617  11.136  0.00  0.00    +0.017 C 
ATOM     23  C   UNL     1      -1.720  -4.631  11.575  0.00  0.00    +0.017 C 
ENDROOT
BRANCH   1  24
ATOM     24  C   UNL     1      -0.168   0.052   4.882  0.00  0.00    +0.212 C 
BRANCH  24  26
ATOM     25  N   UNL     1       0.025  -0.015   2.417  0.00  0.00    -0.284 N 
ATOM     26  C   UNL     1      -0.056  -0.694   3.578  0.00  0.00    +0.235 C 
ATOM     27  O   UNL     1      -0.040  -1.907   3.573  0.00  0.00    -0.274 OA
ATOM     28  H   UNL     1       0.078   0.954   2.425  0.00  0.00    +0.155 HD
BRANCH  25  35
ATOM     29  C   UNL     1      -1.264   1.184   0.181  0.00  0.00    +0.045 C 
ATOM     30  C   UNL     1      -0.584  -0.158   0.084  0.00  0.00    -0.029 A 
ATOM     31  C   UNL     1      -0.568  -0.840  -1.117  0.00  0.00    +0.005 A 
ATOM     32  C   UNL     1       0.055  -2.071  -1.206  0.00  0.00    +0.000 A 
ATOM     33  C   UNL     1       0.666  -2.622  -0.095  0.00  0.00    +0.002 A 
ATOM     34  C   UNL     1       0.655  -1.945   1.108  0.00  0.00    +0.023 A 
ATOM     35  C   UNL     1       0.034  -0.706   1.201  0.00  0.00    +0.036 A 
ENDBRANCH  25  35
ENDBRANCH  24  26
ENDBRANCH   1  24
TORSDOF 3
