REMARK  Name = ZINC63781002
REMARK  6 active torsions:
REMARK  status: ('A' for Active; 'I' for Inactive)
REMARK    1  A    between atoms: C_6  and  C_11
REMARK    2  A    between atoms: N_13  and  C_14
REMARK    3  A    between atoms: C_14  and  C_15
REMARK    4  A    between atoms: C_15  and  N_16
REMARK    5  A    between atoms: C_17  and  C_19
REMARK    6  A    between atoms: N_24  and  C_27
REMARK                            x       y       z     vdW  Elec       q    Type
REMARK                         _______ _______ _______ _____ _____    ______ ____
ROOT
ATOM      1  N   UNL     1       4.003  -6.956   3.659  0.00  0.00    -0.306 N 
ATOM      2  C   UNL     1       3.530  -8.175   3.989  0.00  0.00    +0.299 C 
ATOM      3  O   UNL     1       2.638  -8.676   3.337  0.00  0.00    -0.265 OA
ATOM      4  H   UNL     1       4.716  -6.556   4.180  0.00  0.00    +0.149 HD
ENDROOT
BRANCH   2   5
ATOM      5  C   UNL     1       4.105  -8.909   5.157  0.00  0.00    +0.302 C 
ATOM      6  O   UNL     1       4.909  -8.361   5.881  0.00  0.00    -0.265 OA
ATOM      7  N   UNL     1       3.730 -10.179   5.405  0.00  0.00    -0.291 N 
ATOM      8  C   UNL     1       2.917 -10.922   4.432  0.00  0.00    +0.127 C 
ATOM      9  C   UNL     1       3.643 -12.226   4.080  0.00  0.00    +0.124 C 
ATOM     10  N   UNL     1       4.042 -12.894   5.328  0.00  0.00    -0.325 N 
ATOM     11  C   UNL     1       4.855 -12.150   6.300  0.00  0.00    +0.124 C 
ATOM     12  C   UNL     1       4.133 -10.848   6.650  0.00  0.00    +0.127 C 
BRANCH  10  13
ATOM     13  C   UNL     1       3.653 -14.212   5.585  0.00  0.00    +0.065 A 
ATOM     14  C   UNL     1       4.463 -15.267   5.186  0.00  0.00    +0.026 A 
ATOM     15  C   UNL     1       4.076 -16.568   5.442  0.00  0.00    +0.002 A 
ATOM     16  C   UNL     1       2.884 -16.822   6.096  0.00  0.00    +0.003 A 
ATOM     17  C   UNL     1       2.074 -15.775   6.495  0.00  0.00    +0.040 A 
ATOM     18  C   UNL     1       2.457 -14.470   6.247  0.00  0.00    +0.144 A 
ATOM     19  F   UNL     1       1.669 -13.446   6.643  0.00  0.00    -0.204 F 
ENDBRANCH  10  13
ENDBRANCH   2   5
BRANCH   1  20
ATOM     20  C   UNL     1       3.439  -6.237   2.514  0.00  0.00    +0.123 C 
BRANCH  20  21
ATOM     21  C   UNL     1       4.147  -4.889   2.360  0.00  0.00    +0.123 C 
BRANCH  21  24
ATOM     22  C   UNL     1       4.056  -2.951   0.886  0.00  0.00    +0.239 C 
ATOM     23  O   UNL     1       4.948  -2.450   1.537  0.00  0.00    -0.273 OA
ATOM     24  N   UNL     1       3.584  -4.170   1.215  0.00  0.00    -0.312 N 
ATOM     25  H   UNL     1       2.870  -4.570   0.694  0.00  0.00    +0.149 HD
BRANCH  22  31
ATOM     26  C   UNL     1       0.993   1.699   0.012  0.00  0.00    +0.001 A 
ATOM     27  C   UNL     1       2.268   2.228  -0.231  0.00  0.00    +0.002 A 
ATOM     28  C   UNL     1       3.360   1.452  -0.397  0.00  0.00    +0.026 A 
ATOM     29  C   UNL     1       3.252   0.035  -0.329  0.00  0.00    +0.043 A 
ATOM     30  N   UNL     1       4.146  -0.915  -0.454  0.00  0.00    -0.370 N 
ATOM     31  C   UNL     1       3.477  -2.211  -0.292  0.00  0.00    +0.190 C 
ATOM     32  C   UNL     1       2.018  -1.897  -0.045  0.00  0.00    +0.016 C 
ATOM     33  C   UNL     1       1.915  -0.548  -0.073  0.00  0.00    -0.004 A 
ATOM     34  C   UNL     1       0.780   0.366   0.096  0.00  0.00    +0.010 A 
ATOM     35  H   UNL     1       5.091  -0.784  -0.626  0.00  0.00    +0.161 HD
ENDBRANCH  22  31
ENDBRANCH  21  24
ENDBRANCH  20  21
ENDBRANCH   1  20
TORSDOF 6
