REMARK  Name = ZINC49281927
REMARK  8 active torsions:
REMARK  status: ('A' for Active; 'I' for Inactive)
REMARK    1  A    between atoms: C_1  and  C_2
REMARK    2  A    between atoms: C_2  and  C_3
REMARK    3  A    between atoms: C_3  and  C_4
REMARK    4  A    between atoms: C_3  and  C_5
REMARK    5  A    between atoms: C_3  and  N_6
REMARK    6  A    between atoms: C_7  and  C_9
REMARK    7  A    between atoms: C_9  and  N_10
REMARK    8  A    between atoms: C_14  and  N_20
REMARK                            x       y       z     vdW  Elec       q    Type
REMARK                         _______ _______ _______ _____ _____    ______ ____
ROOT
ATOM      1  N   UNL     1       2.027  -4.602  -3.498  0.00  0.00    -0.262 N 
ATOM      2  C   UNL     1       1.383  -4.859  -4.712  0.00  0.00    +0.041 A 
ATOM      3  C   UNL     1       0.041  -4.746  -5.071  0.00  0.00    +0.025 A 
ATOM      4  C   UNL     1      -0.364  -5.062  -6.351  0.00  0.00    +0.024 A 
ATOM      5  C   UNL     1       0.561  -5.494  -7.292  0.00  0.00    +0.025 A 
ATOM      6  C   UNL     1       1.900  -5.608  -6.938  0.00  0.00    +0.028 A 
ATOM      7  C   UNL     1       2.301  -5.292  -5.660  0.00  0.00    -0.015 A 
ATOM      8  C   UNL     1       3.647  -5.307  -4.973  0.00  0.00    +0.133 C 
ATOM      9  C   UNL     1       3.349  -4.833  -3.567  0.00  0.00    +0.225 C 
ATOM     10  O   UNL     1       4.152  -4.691  -2.669  0.00  0.00    -0.275 OA
ENDROOT
BRANCH   5  11
ATOM     11  N   UNL     1       0.147  -5.814  -8.589  0.00  0.00    -0.358 N 
ATOM     12  H   UNL     1      -0.789  -5.734  -8.833  0.00  0.00    +0.142 HD
ATOM     13  H   UNL     1       0.795  -6.116  -9.245  0.00  0.00    +0.142 HD
ENDBRANCH   5  11
BRANCH   1  14
ATOM     14  C   UNL     1       1.341  -4.130  -2.293  0.00  0.00    +0.209 C 
BRANCH  14  16
ATOM     15  N   UNL     1       0.738  -1.962  -1.265  0.00  0.00    -0.309 N 
ATOM     16  C   UNL     1       1.321  -2.623  -2.285  0.00  0.00    +0.231 C 
ATOM     17  O   UNL     1       1.829  -2.004  -3.196  0.00  0.00    -0.274 OA
ATOM     18  H   UNL     1       0.332  -2.457  -0.536  0.00  0.00    +0.149 HD
BRANCH  15  19
ATOM     19  C   UNL     1       0.718  -0.497  -1.257  0.00  0.00    +0.029 C 
ATOM     20  C   UNL     1      -0.022   0.009  -2.496  0.00  0.00    +0.031 C 
ATOM     21  C   UNL     1       2.154   0.032  -1.268  0.00  0.00    +0.031 C 
BRANCH  19  23
ATOM     22  C   UNL     1      -0.019   1.526   0.010  0.00  0.00    +0.006 C 
ATOM     23  C   UNL     1       0.002  -0.004   0.002  0.00  0.00    +0.022 C 
ENDBRANCH  19  23
ENDBRANCH  15  19
ENDBRANCH  14  16
ENDBRANCH   1  14
TORSDOF 5
