REMARK  Name = ZINC26919604
REMARK  9 active torsions:
REMARK  status: ('A' for Active; 'I' for Inactive)
REMARK    1  A    between atoms: C_1  and  C_2
REMARK    2  A    between atoms: C_2  and  C_3
REMARK    3  A    between atoms: C_2  and  C_4
REMARK    4  A    between atoms: C_7  and  C_10
REMARK    5  A    between atoms: C_12  and  C_24
REMARK    6  A    between atoms: C_14  and  C_19
REMARK    7  A    between atoms: C_14  and  O_23
REMARK    8  A    between atoms: C_24  and  S_26
REMARK    9  A    between atoms: S_26  and  C_27
REMARK                            x       y       z     vdW  Elec       q    Type
REMARK                         _______ _______ _______ _____ _____    ______ ____
ROOT
ATOM      1  C   UNL     1      -1.027   0.609  -0.549  0.00  0.00    +0.120 C 
ATOM      2  C   UNL     1      -0.496  -0.590  -1.342  0.00  0.00    +0.150 C 
ATOM      3  C   UNL     1       0.216  -1.539  -0.372  0.00  0.00    +0.244 C 
ATOM      4  N   UNL     1      -0.703  -1.904   0.707  0.00  0.00    -0.264 N 
ATOM      5  C   UNL     1      -1.678  -1.073   1.104  0.00  0.00    +0.302 C 
ATOM      6  O   UNL     1      -2.408  -1.421   2.011  0.00  0.00    -0.253 OA
ATOM      7  N   UNL     1      -1.880   0.127   0.539  0.00  0.00    -0.292 N 
ATOM      8  H   UNL     1      -0.602  -2.877   1.210  0.00  0.00    +0.153 HD
ATOM      9  H   UNL     1      -2.705   0.752   0.909  0.00  0.00    +0.151 HD
ENDROOT
BRANCH   1  13
ATOM     10  C   UNL     1      -3.304   3.134  -3.135  0.00  0.00    -0.045 A 
ATOM     11  C   UNL     1      -1.999   3.464  -2.820  0.00  0.00    +0.004 A 
ATOM     12  C   UNL     1      -1.262   2.647  -1.984  0.00  0.00    +0.006 A 
ATOM     13  C   UNL     1      -1.831   1.500  -1.461  0.00  0.00    -0.026 A 
ATOM     14  C   UNL     1      -3.134   1.167  -1.780  0.00  0.00    +0.006 A 
ATOM     15  C   UNL     1      -3.872   1.987  -2.613  0.00  0.00    +0.004 A 
BRANCH  10  17
ATOM     16  C   UNL     1      -4.542   3.233  -5.281  0.00  0.00    +0.012 C 
ATOM     17  C   UNL     1      -4.108   4.025  -4.046  0.00  0.00    +0.013 C 
ATOM     18  C   UNL     1      -5.346   4.531  -3.304  0.00  0.00    +0.012 C 
ENDBRANCH  10  17
ENDBRANCH   1  13
BRANCH   3  19
ATOM     19  C   UNL     1       0.656  -2.800  -1.118  0.00  0.00    +0.436 C 
ATOM     20  F   UNL     1      -0.447  -3.369  -1.764  0.00  0.00    -0.166 F 
ATOM     21  F   UNL     1       1.630  -2.466  -2.065  0.00  0.00    -0.166 F 
ATOM     22  F   UNL     1       1.188  -3.719  -0.207  0.00  0.00    -0.166 F 
ENDBRANCH   3  19
BRANCH   3  23
ATOM     23  O   UNL     1       1.362  -0.885   0.178  0.00  0.00    -0.364 OA
ATOM     24  H   UNL     1       2.003  -1.413   0.899  0.00  0.00    +0.212 HD
ENDBRANCH   3  23
BRANCH   2  25
ATOM     25  C   UNL     1       0.476  -0.113  -2.390  0.00  0.00    +0.199 C 
ATOM     26  O   UNL     1       1.447   0.538  -2.066  0.00  0.00    -0.285 OA
BRANCH  25  27
ATOM     27  S   UNL     1       0.210  -0.488  -4.039  0.00  0.00    -0.091 S 
ATOM     28  C   UNL     1       1.648   0.321  -4.782  0.00  0.00    +0.093 C 
ENDBRANCH  25  27
ENDBRANCH   2  25
TORSDOF 6
