REMARK  Name = ZINC20246291
REMARK  7 active torsions:
REMARK  status: ('A' for Active; 'I' for Inactive)
REMARK    1  A    between atoms: C_1  and  C_2
REMARK    2  A    between atoms: C_2  and  C_4
REMARK    3  A    between atoms: C_2  and  S_18
REMARK    4  A    between atoms: N_6  and  N_7
REMARK    5  A    between atoms: C_8  and  C_9
REMARK    6  A    between atoms: C_14  and  C_15
REMARK    7  A    between atoms: S_18  and  C_19
REMARK                            x       y       z     vdW  Elec       q    Type
REMARK                         _______ _______ _______ _____ _____    ______ ____
ROOT
ATOM      1  C   UNL     1       1.002   0.067   1.528  0.00  0.00    +0.245 C 
ATOM      2  O   UNL     1       0.334   0.055   2.540  0.00  0.00    -0.273 OA
ATOM      3  N   UNL     1       2.344  -0.028   1.605  0.00  0.00    -0.206 N 
ATOM      4  H   UNL     1       2.878  -0.019   0.795  0.00  0.00    +0.177 HD
ENDROOT
BRANCH   1   6
ATOM      5  C   UNL     1       0.424   1.637  -0.303  0.00  0.00    +0.029 C 
ATOM      6  C   UNL     1       0.331   0.189   0.184  0.00  0.00    +0.136 C 
BRANCH   6   7
ATOM      7  S   UNL     1      -1.413  -0.288   0.334  0.00  0.00    -0.113 S 
BRANCH   7   8
ATOM      8  C   UNL     1      -1.358  -2.031   0.585  0.00  0.00    +0.009 A 
ATOM      9  C   UNL     1      -0.134  -2.686   0.657  0.00  0.00    +0.016 A 
ATOM     10  C   UNL     1      -0.094  -4.052   0.854  0.00  0.00    +0.021 A 
ATOM     11  C   UNL     1      -1.271  -4.769   0.979  0.00  0.00    +0.041 A 
ATOM     12  C   UNL     1      -2.492  -4.120   0.907  0.00  0.00    +0.021 A 
ATOM     13  C   UNL     1      -2.538  -2.753   0.716  0.00  0.00    +0.016 A 
ATOM     14 CL   UNL     1      -1.217  -6.487   1.226  0.00  0.00    -0.084 Cl
ENDBRANCH   7   8
ENDBRANCH   6   7
ENDBRANCH   1   6
BRANCH   3  15
ATOM     15  N   UNL     1       2.968  -0.142   2.854  0.00  0.00    -0.188 NA
ATOM     16  C   UNL     1       4.262  -0.234   2.928  0.00  0.00    +0.139 C 
BRANCH  16  17
ATOM     17  C   UNL     1       4.917  -0.353   4.240  0.00  0.00    +0.009 A 
ATOM     18  C   UNL     1       4.151  -0.494   5.398  0.00  0.00    +0.010 A 
ATOM     19  C   UNL     1       4.771  -0.605   6.625  0.00  0.00    +0.001 A 
ATOM     20  C   UNL     1       6.154  -0.578   6.721  0.00  0.00    +0.001 A 
ATOM     21  C   UNL     1       6.930  -0.439   5.590  0.00  0.00    +0.016 A 
ATOM     22  C   UNL     1       6.325  -0.332   4.336  0.00  0.00    +0.072 A 
BRANCH  22  23
ATOM     23  C   UNL     1       7.149  -0.191   3.124  0.00  0.00    +0.387 C 
ATOM     24  O   UNL     1       8.360  -0.048   3.221  0.00  0.00    -0.241 OA
ATOM     25  O   UNL     1       6.622  -0.217   2.020  0.00  0.00    -0.241 OA
ENDBRANCH  22  23
ENDBRANCH  16  17
ENDBRANCH   3  15
TORSDOF 6
