REMARK  Name = ZINC09469562
REMARK  7 active torsions:
REMARK  status: ('A' for Active; 'I' for Inactive)
REMARK    1  A    between atoms: C_1  and  C_2
REMARK    2  A    between atoms: C_2  and  C_4
REMARK    3  A    between atoms: C_2  and  O_13
REMARK    4  A    between atoms: N_9  and  C_10
REMARK    5  A    between atoms: O_13  and  C_14
REMARK    6  A    between atoms: C_14  and  C_16
REMARK    7  A    between atoms: C_21  and  N_22
REMARK                            x       y       z     vdW  Elec       q    Type
REMARK                         _______ _______ _______ _____ _____    ______ ____
ROOT
ATOM      1  C   UNL     1      -4.939  -0.090  -1.274  0.00  0.00    +0.062 C 
ATOM      2  C   UNL     1      -4.838   0.798  -0.032  0.00  0.00    +0.259 C 
ENDROOT
BRANCH   2   3
ATOM      3  C   UNL     1      -3.541   1.565  -0.068  0.00  0.00    +0.261 C 
ATOM      4  O   UNL     1      -3.553   2.777  -0.075  0.00  0.00    -0.271 OA
ATOM      5  N   UNL     1      -2.367   0.903  -0.092  0.00  0.00    -0.237 N 
ATOM      6  C   UNL     1      -1.207   1.589  -0.124  0.00  0.00    +0.306 C 
ATOM      7  O   UNL     1      -1.220   2.804  -0.131  0.00  0.00    -0.252 OA
ATOM      8  N   UNL     1      -0.033   0.927  -0.148  0.00  0.00    -0.296 N 
ATOM      9  H   UNL     1      -2.357  -0.067  -0.086  0.00  0.00    +0.159 HD
ATOM     10  H   UNL     1      -0.023  -0.043  -0.142  0.00  0.00    +0.151 HD
BRANCH   8  11
ATOM     11  C   UNL     1       1.227   1.672  -0.189  0.00  0.00    +0.075 C 
ATOM     12  C   UNL     1       2.307   1.182  -1.156  0.00  0.00    +0.024 C 
ATOM     13  C   UNL     1       2.478   0.976   0.351  0.00  0.00    +0.024 C 
ENDBRANCH   8  11
ENDBRANCH   2   3
BRANCH   2  14
ATOM     14  O   UNL     1      -5.951   1.730  -0.011  0.00  0.00    -0.449 OA
BRANCH  14  15
ATOM     15  C   UNL     1      -7.073   1.329   0.619  0.00  0.00    +0.342 C 
ATOM     16  O   UNL     1      -7.119   0.231   1.137  0.00  0.00    -0.245 OA
BRANCH  15  17
ATOM     17  C   UNL     1      -8.242   2.223   0.680  0.00  0.00    +0.081 A 
ATOM     18  C   UNL     1      -8.154   3.531   0.196  0.00  0.00    +0.032 A 
ATOM     19  C   UNL     1      -9.253   4.360   0.252  0.00  0.00    +0.019 A 
ATOM     20  C   UNL     1     -10.445   3.907   0.797  0.00  0.00    +0.017 A 
ATOM     21  C   UNL     1     -10.547   2.620   1.284  0.00  0.00    +0.024 A 
ATOM     22  C   UNL     1      -9.451   1.768   1.231  0.00  0.00    +0.039 A 
ATOM     23 BR   UNL     1      -9.133   6.127  -0.410  0.00  0.00    -0.050 Br
BRANCH  22  24
ATOM     24  N   UNL     1      -9.550   0.472   1.720  0.00  0.00    -0.357 N 
ATOM     25  H   UNL     1      -8.764  -0.095   1.757  0.00  0.00    +0.142 HD
ATOM     26  H   UNL     1     -10.407   0.133   2.025  0.00  0.00    +0.142 HD
ENDBRANCH  22  24
ENDBRANCH  15  17
ENDBRANCH  14  15
ENDBRANCH   2  14
TORSDOF 6
