REMARK  Name = ZINC35970543
REMARK  12 active torsions:
REMARK  status: ('A' for Active; 'I' for Inactive)
REMARK    1  A    between atoms: C_1  and  C_2
REMARK    2  A    between atoms: C_5  and  C_9
REMARK    3  A    between atoms: C_6  and  C_8
REMARK    4  A    between atoms: C_11  and  C_32
REMARK    5  A    between atoms: C_12  and  C_31
REMARK    6  A    between atoms: C_16  and  C_19
REMARK    7  A    between atoms: C_20  and  N_22
REMARK    8  A    between atoms: N_22  and  C_23
REMARK    9  A    between atoms: C_23  and  C_24
REMARK   10  A    between atoms: C_24  and  N_25
REMARK   11  A    between atoms: C_32  and  O_34
REMARK   12  A    between atoms: O_34  and  C_35
REMARK                            x       y       z     vdW  Elec       q    Type
REMARK                         _______ _______ _______ _____ _____    ______ ____
ROOT
ATOM      1  C   UNL     1      -0.058  -4.210   0.195  0.00  0.00    +0.150 C 
ATOM      2  C   UNL     1      -1.473  -4.734   0.300  0.00  0.00    +0.082 C 
ATOM      3  C   UNL     1      -1.860  -5.726  -0.580  0.00  0.00    +0.053 C 
ATOM      4  N   UNL     1      -1.010  -6.193  -1.480  0.00  0.00    -0.230 NA
ATOM      5  C   UNL     1       0.233  -5.781  -1.623  0.00  0.00    +0.166 C 
ATOM      6  N   UNL     1       0.808  -4.809  -0.855  0.00  0.00    -0.267 N 
ATOM      7  C   UNL     1       2.123  -4.489  -1.130  0.00  0.00    +0.048 C 
ATOM      8  C   UNL     1       2.734  -5.157  -2.133  0.00  0.00    +0.072 C 
ATOM      9  S   UNL     1       1.442  -6.247  -2.691  0.00  0.00    -0.060 S 
ATOM     10  C   UNL     1      -3.260  -6.280  -0.515  0.00  0.00    +0.066 C 
ENDROOT
BRANCH   1  15
ATOM     11  C   UNL     1      -0.338   1.482  -0.761  0.00  0.00    +0.044 C 
ATOM     12  C   UNL     1      -0.265  -0.002  -0.512  0.00  0.00    -0.050 A 
ATOM     13  C   UNL     1      -0.524  -0.889  -1.540  0.00  0.00    +0.004 A 
ATOM     14  C   UNL     1      -0.458  -2.251  -1.311  0.00  0.00    +0.006 A 
ATOM     15  C   UNL     1      -0.130  -2.725  -0.054  0.00  0.00    -0.019 A 
ATOM     16  C   UNL     1       0.130  -1.839   0.973  0.00  0.00    -0.045 A 
ATOM     17  C   UNL     1       0.068  -0.477   0.743  0.00  0.00    +0.007 A 
ATOM     18  C   UNL     1       0.486  -2.356   2.343  0.00  0.00    +0.044 C 
ENDBRANCH   1  15
BRANCH   7  19
ATOM     19  C   UNL     1       2.832  -3.457  -0.360  0.00  0.00    +0.091 C 
ATOM     20  C   UNL     1       4.063  -3.062  -0.738  0.00  0.00    +0.239 C 
ATOM     21  O   UNL     1       4.593  -3.515  -1.899  0.00  0.00    -0.271 OA
BRANCH  20  22
ATOM     22  N   UNL     1       4.786  -2.192   0.061  0.00  0.00    -0.314 N 
ATOM     23  H   UNL     1       4.438  -1.925   0.926  0.00  0.00    +0.149 HD
BRANCH  22  24
ATOM     24  C   UNL     1       6.076  -1.675  -0.401  0.00  0.00    +0.086 C 
BRANCH  24  25
ATOM     25  C   UNL     1       6.720  -0.842   0.710  0.00  0.00    -0.060 C 
BRANCH  25  26
ATOM     26  N   UNL     1       8.014  -0.324   0.246  0.00  0.00    +0.381 N 
ATOM     27  C   UNL     1       8.931  -1.444   0.009  0.00  0.00    -0.079 C 
ATOM     28  C   UNL     1      10.254  -0.915  -0.551  0.00  0.00    -0.019 C 
ATOM     29  C   UNL     1      10.878   0.053   0.458  0.00  0.00    -0.004 C 
ATOM     30  C   UNL     1       9.882   1.178   0.755  0.00  0.00    -0.019 C 
ATOM     31  C   UNL     1       8.574   0.571   1.266  0.00  0.00    -0.079 C 
ATOM     32  H   UNL     1       7.881   0.188  -0.613  0.00  0.00    -0.082 HD
ENDBRANCH  25  26
ENDBRANCH  24  25
ENDBRANCH  22  24
ENDBRANCH  20  22
ENDBRANCH   7  19
BRANCH   2  33
ATOM     33  C   UNL     1      -2.362  -4.230   1.258  0.00  0.00    +0.339 C 
ATOM     34  O   UNL     1      -3.484  -4.696   1.353  0.00  0.00    -0.245 OA
BRANCH  33  35
ATOM     35  O   UNL     1      -1.975  -3.227   2.077  0.00  0.00    -0.465 OA
ATOM     36  C   UNL     1      -2.890  -2.838   3.103  0.00  0.00    +0.280 C 
ENDBRANCH  33  35
ENDBRANCH   2  33
TORSDOF 8
