REMARK  Name = ZINC64926693
REMARK  9 active torsions:
REMARK  status: ('A' for Active; 'I' for Inactive)
REMARK    1  A    between atoms: C_1  and  C_2
REMARK    2  A    between atoms: C_2  and  N_3
REMARK    3  A    between atoms: C_18  and  C_21
REMARK    4  A    between atoms: N_23  and  C_24
REMARK    5  A    between atoms: C_24  and  C_25
REMARK    6  A    between atoms: C_25  and  N_26
REMARK    7  A    between atoms: N_26  and  C_27
REMARK    8  A    between atoms: N_26  and  C_28
REMARK    9  A    between atoms: C_28  and  C_29
REMARK                            x       y       z     vdW  Elec       q    Type
REMARK                         _______ _______ _______ _____ _____    ______ ____
ROOT
ATOM      1  N   UNL     1      -3.257  -1.505   1.319  0.00  0.00    -0.304 N 
ATOM      2  C   UNL     1      -2.079  -0.784   1.249  0.00  0.00    +0.070 A 
ATOM      3  C   UNL     1      -1.357  -0.511   2.407  0.00  0.00    +0.028 A 
ATOM      4  C   UNL     1      -0.183   0.207   2.329  0.00  0.00    +0.002 A 
ATOM      5  C   UNL     1       0.285   0.661   1.104  0.00  0.00    +0.002 A 
ATOM      6  C   UNL     1      -0.408   0.404  -0.043  0.00  0.00    +0.030 A 
ATOM      7  C   UNL     1      -1.605  -0.325   0.009  0.00  0.00    +0.090 A 
ATOM      8  N   UNL     1      -2.289  -0.579  -1.127  0.00  0.00    -0.225 NA
ATOM      9  C   UNL     1      -3.408  -1.257  -1.101  0.00  0.00    +0.188 A 
ATOM     10  C   UNL     1      -3.937  -1.762   0.180  0.00  0.00    +0.292 A 
ATOM     11  O   UNL     1      -4.974  -2.398   0.210  0.00  0.00    -0.264 OA
ATOM     12  N   UNL     1      -4.092  -1.505  -2.278  0.00  0.00    -0.310 N 
ATOM     13  C   UNL     1      -3.494  -1.169  -3.577  0.00  0.00    +0.107 C 
ATOM     14  C   UNL     1      -4.474  -0.289  -4.359  0.00  0.00    +0.020 C 
ATOM     15  C   UNL     1      -5.826  -1.000  -4.454  0.00  0.00    +0.016 C 
ATOM     16  C   UNL     1      -6.389  -1.220  -3.049  0.00  0.00    +0.092 C 
ATOM     17  C   UNL     1      -5.428  -2.115  -2.252  0.00  0.00    +0.119 C 
ENDROOT
BRANCH  16  18
ATOM     18  C   UNL     1      -7.736  -1.890  -3.145  0.00  0.00    +0.218 C 
ATOM     19  O   UNL     1      -7.914  -2.971  -2.626  0.00  0.00    -0.275 OA
ATOM     20  N   UNL     1      -8.743  -1.287  -3.808  0.00  0.00    -0.317 N 
ATOM     21  H   UNL     1      -8.600  -0.422  -4.223  0.00  0.00    +0.149 HD
BRANCH  20  22
ATOM     22  C   UNL     1     -10.052  -1.938  -3.902  0.00  0.00    +0.085 C 
BRANCH  22  23
ATOM     23  C   UNL     1     -11.007  -1.050  -4.701  0.00  0.00    -0.060 C 
BRANCH  23  24
ATOM     24  N   UNL     1     -12.320  -1.703  -4.795  0.00  0.00    +0.382 N 
ATOM     25  C   UNL     1     -12.195  -2.941  -5.576  0.00  0.00    -0.096 C 
ATOM     26  H   UNL     1     -12.654  -1.922  -3.869  0.00  0.00    -0.082 HD
BRANCH  24  27
ATOM     27  C   UNL     1     -13.270  -0.799  -5.458  0.00  0.00    -0.043 C 
BRANCH  27  28
ATOM     28  C   UNL     1     -14.644  -1.418  -5.445  0.00  0.00    -0.064 A 
ATOM     29  C   UNL     1     -15.043  -2.235  -6.486  0.00  0.00    +0.002 A 
ATOM     30  C   UNL     1     -16.304  -2.803  -6.474  0.00  0.00    +0.000 A 
ATOM     31  C   UNL     1     -17.164  -2.553  -5.421  0.00  0.00    +0.000 A 
ATOM     32  C   UNL     1     -16.764  -1.737  -4.380  0.00  0.00    +0.000 A 
ATOM     33  C   UNL     1     -15.502  -1.173  -4.389  0.00  0.00    +0.002 A 
ENDBRANCH  27  28
ENDBRANCH  24  27
ENDBRANCH  23  24
ENDBRANCH  22  23
ENDBRANCH  20  22
ENDBRANCH  16  18
BRANCH   1  35
ATOM     34  C   UNL     1      -3.188  -3.380   2.888  0.00  0.00    +0.027 C 
ATOM     35  C   UNL     1      -3.759  -1.988   2.608  0.00  0.00    +0.122 C 
ENDBRANCH   1  35
TORSDOF 7
