REMARK  Name = ZINC39237933
REMARK  13 active torsions:
REMARK  status: ('A' for Active; 'I' for Inactive)
REMARK    1  A    between atoms: C_1  and  C_2
REMARK    2  A    between atoms: C_3  and  C_15
REMARK    3  A    between atoms: N_6  and  C_9
REMARK    4  A    between atoms: C_15  and  C_17
REMARK    5  A    between atoms: C_15  and  C_29
REMARK    6  A    between atoms: C_20  and  O_25
REMARK    7  A    between atoms: C_21  and  O_23
REMARK    8  A    between atoms: O_23  and  C_24
REMARK    9  A    between atoms: O_25  and  C_26
REMARK   10  A    between atoms: C_26  and  C_27
REMARK   11  A    between atoms: C_30  and  C_42
REMARK   12  A    between atoms: N_32  and  C_36
REMARK   13  A    between atoms: C_33  and  O_35
REMARK                            x       y       z     vdW  Elec       q    Type
REMARK                         _______ _______ _______ _____ _____    ______ ____
ROOT
ATOM      1  C   UNL     1      -2.518  -0.354   0.013  0.00  0.00    +0.088 C 
ENDROOT
BRANCH   1   4
ATOM      2  C   UNL     1       0.031   1.421   0.229  0.00  0.00    +0.065 C 
ATOM      3  C   UNL     1      -0.021  -0.074   0.415  0.00  0.00    +0.039 A 
ATOM      4  C   UNL     1      -1.126  -0.842   0.321  0.00  0.00    +0.051 A 
ATOM      5  C   UNL     1      -0.750  -2.183   0.563  0.00  0.00    +0.276 A 
ATOM      6  O   UNL     1      -1.491  -3.150   0.558  0.00  0.00    -0.266 OA
ATOM      7  N   UNL     1       0.578  -2.199   0.799  0.00  0.00    -0.219 N 
ATOM      8  N   UNL     1       1.043  -0.881   0.702  0.00  0.00    -0.294 N 
ATOM      9  H   UNL     1       1.961  -0.592   0.821  0.00  0.00    +0.187 HD
BRANCH   7  10
ATOM     10  C   UNL     1       1.352  -3.329   1.083  0.00  0.00    +0.067 A 
ATOM     11  C   UNL     1       0.758  -4.584   1.137  0.00  0.00    +0.028 A 
ATOM     12  C   UNL     1       1.526  -5.697   1.417  0.00  0.00    +0.002 A 
ATOM     13  C   UNL     1       2.883  -5.564   1.644  0.00  0.00    +0.000 A 
ATOM     14  C   UNL     1       3.477  -4.316   1.592  0.00  0.00    +0.002 A 
ATOM     15  C   UNL     1       2.716  -3.199   1.307  0.00  0.00    +0.028 A 
ENDBRANCH   7  10
ENDBRANCH   1   4
BRANCH   1  16
ATOM     16  C   UNL     1      -2.953  -0.891  -1.327  0.00  0.00    +0.008 C 
ATOM     17  C   UNL     1      -3.392  -0.181  -2.344  0.00  0.00    +0.023 C 
ATOM     18  N   UNL     1      -3.709  -0.976  -3.429  0.00  0.00    -0.266 N 
ATOM     19  N   UNL     1      -3.470  -2.325  -3.130  0.00  0.00    -0.221 N 
ATOM     20  C   UNL     1      -2.958  -2.343  -1.749  0.00  0.00    +0.250 C 
ATOM     21  C   UNL     1      -3.533   1.319  -2.328  0.00  0.00    +0.062 C 
ATOM     22  H   UNL     1      -4.050  -0.648  -4.276  0.00  0.00    +0.170 HD
BRANCH  19  23
ATOM     23  C   UNL     1      -3.669  -3.423  -3.970  0.00  0.00    +0.051 A 
ATOM     24  C   UNL     1      -3.387  -4.705  -3.518  0.00  0.00    +0.025 A 
ATOM     25  C   UNL     1      -3.586  -5.789  -4.351  0.00  0.00    +0.002 A 
ATOM     26  C   UNL     1      -4.065  -5.598  -5.635  0.00  0.00    +0.000 A 
ATOM     27  C   UNL     1      -4.346  -4.322  -6.088  0.00  0.00    +0.002 A 
ATOM     28  C   UNL     1      -4.156  -3.235  -5.258  0.00  0.00    +0.025 A 
ENDBRANCH  19  23
BRANCH  20  29
ATOM     29  O   UNL     1      -3.829  -3.104  -0.909  0.00  0.00    -0.369 OA
ATOM     30  H   UNL     1      -3.871  -4.043  -1.134  0.00  0.00    +0.212 HD
ENDBRANCH  20  29
ENDBRANCH   1  16
BRANCH   1  31
ATOM     31  C   UNL     1      -3.467  -0.837   1.079  0.00  0.00    -0.032 A 
ATOM     32  C   UNL     1      -4.806  -1.012   0.783  0.00  0.00    +0.008 A 
ATOM     33  C   UNL     1      -5.681  -1.455   1.758  0.00  0.00    +0.050 A 
ATOM     34  C   UNL     1      -5.216  -1.724   3.035  0.00  0.00    +0.163 A 
ATOM     35  C   UNL     1      -3.868  -1.548   3.333  0.00  0.00    +0.162 A 
ATOM     36  C   UNL     1      -2.996  -1.109   2.350  0.00  0.00    +0.054 A 
BRANCH  35  37
ATOM     37  O   UNL     1      -3.406  -1.811   4.585  0.00  0.00    -0.491 OA
ATOM     38  C   UNL     1      -2.011  -1.608   4.819  0.00  0.00    +0.277 C 
ENDBRANCH  35  37
BRANCH  34  39
ATOM     39  O   UNL     1      -6.074  -2.159   3.996  0.00  0.00    -0.474 OA
BRANCH  39  40
ATOM     40  C   UNL     1      -7.444  -2.317   3.618  0.00  0.00    +0.347 C 
BRANCH  40  41
ATOM     41  C   UNL     1      -8.220  -2.791   4.776  0.00  0.00    +0.104 C 
ATOM     42  N   UNL     1      -8.819  -3.157   5.669  0.00  0.00    -0.193 NA
ENDBRANCH  40  41
ENDBRANCH  39  40
ENDBRANCH  34  39
ENDBRANCH   1  31
TORSDOF 10
