REMARK  Name = ZINC06809044
REMARK  13 active torsions:
REMARK  status: ('A' for Active; 'I' for Inactive)
REMARK    1  A    between atoms: C_1  and  C_2
REMARK    2  A    between atoms: C_4  and  C_29
REMARK    3  A    between atoms: C_6  and  N_8
REMARK    4  A    between atoms: C_9  and  C_11
REMARK    5  A    between atoms: C_11  and  C_12
REMARK    6  A    between atoms: C_12  and  C_13
REMARK    7  A    between atoms: C_14  and  C_28
REMARK    8  A    between atoms: C_16  and  C_27
REMARK    9  A    between atoms: N_18  and  C_23
REMARK   10  A    between atoms: C_21  and  C_22
REMARK   11  A    between atoms: C_23  and  C_24
REMARK   12  A    between atoms: C_23  and  C_25
REMARK   13  A    between atoms: C_23  and  C_26
REMARK                            x       y       z     vdW  Elec       q    Type
REMARK                         _______ _______ _______ _____ _____    ______ ____
ROOT
ATOM      1  C   UNL     1       4.816   1.530   0.405  0.00  0.00    -0.022 A 
ATOM      2  C   UNL     1       5.436   1.166  -0.761  0.00  0.00    -0.033 A 
ATOM      3  C   UNL     1       6.679   0.529  -0.677  0.00  0.00    +0.045 A 
ATOM      4  C   UNL     1       7.623   0.005  -1.658  0.00  0.00    +0.070 A 
ATOM      5  N   UNL     1       8.635  -0.491  -1.006  0.00  0.00    -0.174 NA
ATOM      6  N   UNL     1       8.442  -0.339   0.370  0.00  0.00    -0.241 N 
ATOM      7  C   UNL     1       7.245   0.286   0.591  0.00  0.00    +0.159 A 
ATOM      8  N   UNL     1       6.597   0.662   1.686  0.00  0.00    -0.232 NA
ATOM      9  C   UNL     1       5.431   1.267   1.621  0.00  0.00    +0.044 A 
ATOM     10  C   UNL     1       4.743   1.678   2.897  0.00  0.00    +0.066 C 
ATOM     11  C   UNL     1       7.457   0.033  -3.156  0.00  0.00    +0.068 C 
ATOM     12  C   UNL     1       4.797   1.444  -2.098  0.00  0.00    +0.045 C 
ENDROOT
BRANCH   6  13
ATOM     13  C   UNL     1       9.373  -0.779   1.412  0.00  0.00    +0.058 C 
ATOM     14  C   UNL     1       8.678  -1.792   2.323  0.00  0.00    +0.036 C 
ATOM     15  C   UNL     1      10.594  -1.433   0.761  0.00  0.00    +0.036 C 
ATOM     16  C   UNL     1       9.821   0.428   2.239  0.00  0.00    +0.036 C 
ENDBRANCH   6  13
BRANCH   1  17
ATOM     17  C   UNL     1       3.476   2.219   0.368  0.00  0.00    +0.046 C 
BRANCH  17  18
ATOM     18  C   UNL     1       2.362   1.171   0.404  0.00  0.00    +0.101 C 
BRANCH  18  20
ATOM     19  N   UNL     1      -0.111   1.130   0.390  0.00  0.00    -0.285 N 
ATOM     20  C   UNL     1       1.022   1.859   0.367  0.00  0.00    +0.218 C 
ATOM     21  O   UNL     1       0.964   3.070   0.316  0.00  0.00    -0.275 OA
ATOM     22  H   UNL     1      -0.065   0.162   0.367  0.00  0.00    +0.155 HD
BRANCH  19  28
ATOM     23  C   UNL     1      -2.980   4.911  -0.892  0.00  0.00    +0.044 C 
ATOM     24  C   UNL     1      -2.773   3.604  -0.171  0.00  0.00    -0.048 A 
ATOM     25  C   UNL     1      -3.812   3.037   0.543  0.00  0.00    +0.006 A 
ATOM     26  C   UNL     1      -3.626   1.838   1.206  0.00  0.00    -0.048 A 
ATOM     27  C   UNL     1      -2.400   1.203   1.157  0.00  0.00    +0.026 A 
ATOM     28  C   UNL     1      -1.354   1.771   0.441  0.00  0.00    +0.034 A 
ATOM     29  C   UNL     1      -1.543   2.978  -0.218  0.00  0.00    +0.026 A 
ATOM     30  C   UNL     1      -4.761   1.223   1.983  0.00  0.00    +0.044 C 
ENDBRANCH  19  28
ENDBRANCH  18  20
ENDBRANCH  17  18
ENDBRANCH   1  17
TORSDOF 5
