REMARK  Name = ZINC44713984
REMARK  10 active torsions:
REMARK  status: ('A' for Active; 'I' for Inactive)
REMARK    1  A    between atoms: C_1  and  C_2
REMARK    2  A    between atoms: C_2  and  C_3
REMARK    3  A    between atoms: C_3  and  C_5
REMARK    4  A    between atoms: C_3  and  C_11
REMARK    5  A    between atoms: C_15  and  C_24
REMARK    6  A    between atoms: N_26  and  C_27
REMARK    7  A    between atoms: C_27  and  C_29
REMARK    8  A    between atoms: C_27  and  C_30
REMARK    9  A    between atoms: C_31  and  C_37
REMARK   10  A    between atoms: C_35  and  C_36
REMARK                            x       y       z     vdW  Elec       q    Type
REMARK                         _______ _______ _______ _____ _____    ______ ____
ROOT
ATOM      1  C   UNL     1       2.252  -0.013  -1.206  0.00  0.00    +0.223 C 
ATOM      2  O   UNL     1       3.204  -0.745  -1.376  0.00  0.00    -0.275 OA
ATOM      3  N   UNL     1       2.440   1.313  -1.060  0.00  0.00    -0.300 N 
ATOM      4  C   UNL     1       1.407   2.369  -0.936  0.00  0.00    +0.121 C 
ATOM      5  C   UNL     1       1.972   3.344   0.121  0.00  0.00    +0.100 C 
ATOM      6  C   UNL     1       3.494   3.129   0.081  0.00  0.00    -0.004 C 
ATOM      7  C   UNL     1       3.727   2.046  -0.982  0.00  0.00    +0.115 C 
ATOM      8  C   UNL     1       3.996   2.645   1.438  0.00  0.00    -0.010 C 
ATOM      9  C   UNL     1       5.519   2.494   1.389  0.00  0.00    -0.082 C 
ATOM     10  N   UNL     1       6.130   3.784   1.051  0.00  0.00    +0.379 N 
ATOM     11  C   UNL     1       5.715   4.198  -0.295  0.00  0.00    -0.082 C 
ATOM     12  C   UNL     1       4.200   4.422  -0.317  0.00  0.00    -0.010 C 
ATOM     13  H   UNL     1       5.837   4.480   1.721  0.00  0.00    -0.086 HD
ATOM     14  H   UNL     1       7.135   3.697   1.079  0.00  0.00    -0.086 HD
ENDROOT
BRANCH   5  15
ATOM     15  C   UNL     1       1.428   3.010   1.487  0.00  0.00    +0.219 C 
ATOM     16  O   UNL     1       1.157   1.861   1.767  0.00  0.00    -0.275 OA
ATOM     17  N   UNL     1       1.244   3.987   2.397  0.00  0.00    -0.308 N 
ATOM     18  H   UNL     1       1.461   4.905   2.173  0.00  0.00    +0.149 HD
BRANCH  17  19
ATOM     19  C   UNL     1       0.716   3.662   3.724  0.00  0.00    +0.104 C 
ATOM     20  C   UNL     1       1.865   3.229   4.638  0.00  0.00    +0.033 C 
BRANCH  19  21
ATOM     21  C   UNL     1       0.041   4.876   4.307  0.00  0.00    +0.015 A 
ATOM     22  C   UNL     1      -1.156   4.896   4.938  0.00  0.00    +0.038 A 
ATOM     23  N   UNL     1      -1.405   6.169   5.309  0.00  0.00    -0.281 N 
ATOM     24  H   UNL     1      -2.193   6.482   5.781  0.00  0.00    +0.189 HD
ATOM     25  N   UNL     1      -0.325   6.958   4.892  0.00  0.00    -0.179 NA
ATOM     26  C   UNL     1       0.543   6.181   4.298  0.00  0.00    +0.065 A 
ATOM     27  C   UNL     1       1.857   6.618   3.701  0.00  0.00    +0.068 C 
ATOM     28  C   UNL     1      -2.051   3.708   5.182  0.00  0.00    +0.065 C 
ENDBRANCH  19  21
ENDBRANCH  17  19
ENDBRANCH   5  15
BRANCH   1  29
ATOM     29  C   UNL     1       0.860  -0.587  -1.159  0.00  0.00    +0.105 C 
BRANCH  29  30
ATOM     30  C   UNL     1       0.303  -0.672  -2.557  0.00  0.00    -0.036 A 
ATOM     31  C   UNL     1       0.944  -1.442  -3.510  0.00  0.00    +0.004 A 
ATOM     32  C   UNL     1       0.434  -1.520  -4.792  0.00  0.00    +0.000 A 
ATOM     33  C   UNL     1      -0.717  -0.829  -5.121  0.00  0.00    +0.000 A 
ATOM     34  C   UNL     1      -1.358  -0.060  -4.168  0.00  0.00    +0.000 A 
ATOM     35  C   UNL     1      -0.851   0.015  -2.885  0.00  0.00    +0.004 A 
ENDBRANCH  29  30
BRANCH  29  37
ATOM     36  C   UNL     1       1.335  -1.884   0.923  0.00  0.00    +0.005 C 
ATOM     37  C   UNL     1       0.905  -1.986  -0.542  0.00  0.00    +0.014 C 
ENDBRANCH  29  37
ENDBRANCH   1  29
TORSDOF 6
