REMARK  Name = ZINC14943518
REMARK  13 active torsions:
REMARK  status: ('A' for Active; 'I' for Inactive)
REMARK    1  A    between atoms: C_1  and  C_2
REMARK    2  A    between atoms: C_4  and  C_36
REMARK    3  A    between atoms: C_6  and  C_8
REMARK    4  A    between atoms: C_8  and  C_9
REMARK    5  A    between atoms: C_9  and  C_11
REMARK    6  A    between atoms: C_9  and  C_24
REMARK    7  A    between atoms: C_11  and  C_12
REMARK    8  A    between atoms: C_17  and  C_21
REMARK    9  A    between atoms: C_18  and  C_20
REMARK   10  A    between atoms: C_21  and  C_23
REMARK   11  A    between atoms: C_29  and  C_33
REMARK   12  A    between atoms: C_30  and  C_32
REMARK   13  A    between atoms: C_33  and  C_35
REMARK                            x       y       z     vdW  Elec       q    Type
REMARK                         _______ _______ _______ _____ _____    ______ ____
ROOT
ATOM      1  C   UNL     1      -4.387   7.269   0.198  0.00  0.00    +0.088 C 
ENDROOT
BRANCH   1   2
ATOM      2  C   UNL     1      -4.107   5.813  -0.070  0.00  0.00    +0.222 C 
ATOM      3  O   UNL     1      -4.989   4.991   0.061  0.00  0.00    -0.275 OA
ATOM      4  N   UNL     1      -2.876   5.423  -0.457  0.00  0.00    -0.264 N 
ATOM      5  C   UNL     1      -2.590   4.073  -0.605  0.00  0.00    +0.165 A 
ATOM      6  N   UNL     1      -1.460   3.501  -0.964  0.00  0.00    -0.221 NA
ATOM      7  C   UNL     1      -1.386   2.169  -1.054  0.00  0.00    +0.118 A 
ATOM      8  C   UNL     1      -2.511   1.422  -0.751  0.00  0.00    +0.019 A 
ATOM      9  S   UNL     1      -3.656   2.664  -0.350  0.00  0.00    -0.057 S 
ATOM     10  C   UNL     1      -2.695  -0.073  -0.766  0.00  0.00    +0.054 C 
ATOM     11  H   UNL     1      -2.190   6.087  -0.631  0.00  0.00    +0.157 HD
BRANCH   7  12
ATOM     12  C   UNL     1      -0.141   1.515  -1.457  0.00  0.00    +0.179 C 
ATOM     13  O   UNL     1      -0.086   0.305  -1.529  0.00  0.00    -0.291 OA
ATOM     14  C   UNL     1       1.073   2.345  -1.788  0.00  0.00    +0.093 C 
ENDBRANCH   7  12
ENDBRANCH   1   2
BRANCH   1  15
ATOM     15  C   UNL     1      -3.595   7.722   1.426  0.00  0.00    +0.048 C 
BRANCH  15  21
ATOM     16  C   UNL     1      -6.621   7.139   5.369  0.00  0.00    +0.044 C 
ATOM     17  C   UNL     1      -5.481   6.648   4.515  0.00  0.00    -0.050 A 
ATOM     18  C   UNL     1      -4.837   5.467   4.835  0.00  0.00    +0.006 A 
ATOM     19  C   UNL     1      -3.790   5.017   4.052  0.00  0.00    -0.050 A 
ATOM     20  C   UNL     1      -3.388   5.747   2.949  0.00  0.00    +0.007 A 
ATOM     21  C   UNL     1      -4.033   6.927   2.629  0.00  0.00    -0.046 A 
ATOM     22  C   UNL     1      -5.076   7.380   3.414  0.00  0.00    +0.007 A 
ATOM     23  C   UNL     1      -3.088   3.730   4.400  0.00  0.00    +0.044 C 
ENDBRANCH  15  21
ENDBRANCH   1  15
BRANCH   1  24
ATOM     24  C   UNL     1      -5.883   7.461   0.456  0.00  0.00    +0.109 C 
BRANCH  24  25
ATOM     25  C   UNL     1      -6.182   8.931   0.603  0.00  0.00    +0.219 C 
ATOM     26  O   UNL     1      -5.287   9.744   0.511  0.00  0.00    -0.275 OA
ATOM     27  N   UNL     1      -7.444   9.342   0.838  0.00  0.00    -0.265 N 
ATOM     28  C   UNL     1      -7.720  10.696   0.973  0.00  0.00    +0.165 A 
ATOM     29  N   UNL     1      -8.874  11.287   1.196  0.00  0.00    -0.221 NA
ATOM     30  C   UNL     1      -8.932  12.618   1.300  0.00  0.00    +0.118 A 
ATOM     31  C   UNL     1      -7.763  13.345   1.156  0.00  0.00    +0.019 A 
ATOM     32  S   UNL     1      -6.601  12.084   0.881  0.00  0.00    -0.057 S 
ATOM     33  C   UNL     1      -7.553  14.836   1.220  0.00  0.00    +0.054 C 
ATOM     34  H   UNL     1      -8.160   8.691   0.912  0.00  0.00    +0.157 HD
BRANCH  30  35
ATOM     35  C   UNL     1     -10.206  13.293   1.554  0.00  0.00    +0.179 C 
ATOM     36  O   UNL     1     -10.244  14.503   1.641  0.00  0.00    -0.291 OA
ATOM     37  C   UNL     1     -11.469  12.486   1.708  0.00  0.00    +0.093 C 
ENDBRANCH  30  35
ENDBRANCH  24  25
ENDBRANCH   1  24
TORSDOF 7
