REMARK  Name = ZINC60154334
REMARK  6 active torsions:
REMARK  status: ('A' for Active; 'I' for Inactive)
REMARK    1  A    between atoms: C_4  and  O_30
REMARK    2  A    between atoms: C_5  and  N_7
REMARK    3  A    between atoms: C_8  and  C_10
REMARK    4  A    between atoms: C_14  and  N_16
REMARK    5  A    between atoms: O_30  and  C_31
REMARK    6  A    between atoms: C_31  and  C_32
REMARK                            x       y       z     vdW  Elec       q    Type
REMARK                         _______ _______ _______ _____ _____    ______ ____
ROOT
ATOM      1  C   UNL     1       0.148  -4.375  -0.299  0.00  0.00    +0.039 A 
ATOM      2  C   UNL     1       1.335  -4.923   0.188  0.00  0.00    +0.013 A 
ATOM      3  C   UNL     1       1.329  -6.174   0.772  0.00  0.00    +0.003 A 
ATOM      4  C   UNL     1       0.149  -6.887   0.876  0.00  0.00    +0.025 A 
ATOM      5  C   UNL     1      -1.038  -6.350   0.394  0.00  0.00    +0.057 A 
ATOM      6  C   UNL     1      -1.043  -5.092  -0.189  0.00  0.00    +0.038 A 
ENDROOT
BRANCH   5   7
ATOM      7  N   UNL     1      -2.229  -7.076   0.502  0.00  0.00    -0.188 N 
ATOM      8  C   UNL     1      -3.332  -6.483   1.004  0.00  0.00    +0.240 C 
ATOM      9  O   UNL     1      -3.290  -5.340   1.407  0.00  0.00    -0.273 OA
ATOM     10  C   UNL     1      -4.627  -7.273   1.054  0.00  0.00    +0.093 C 
ATOM     11  C   UNL     1      -4.550  -8.196   2.276  0.00  0.00    +0.040 C 
ATOM     12  C   UNL     1      -5.564  -9.294   2.188  0.00  0.00    -0.030 C 
ATOM     13  C   UNL     1      -6.163  -9.649   1.098  0.00  0.00    -0.030 C 
ATOM     14  C   UNL     1      -5.935  -8.989  -0.229  0.00  0.00    +0.040 C 
ATOM     15  C   UNL     1      -4.687  -8.122  -0.222  0.00  0.00    +0.092 C 
ATOM     16  C   UNL     1      -3.441  -8.959  -0.312  0.00  0.00    +0.234 C 
ATOM     17  O   UNL     1      -3.486 -10.095  -0.734  0.00  0.00    -0.274 OA
ATOM     18  N   UNL     1      -2.269  -8.414   0.082  0.00  0.00    -0.227 N 
ATOM     19  H   UNL     1      -1.460  -8.948   0.077  0.00  0.00    +0.173 HD
ENDBRANCH   5   7
BRANCH   1  21
ATOM     20  N   UNL     1       1.304  -2.344  -1.031  0.00  0.00    -0.279 N 
ATOM     21  C   UNL     1       0.152  -3.035  -0.925  0.00  0.00    +0.248 C 
ATOM     22  O   UNL     1      -0.884  -2.557  -1.344  0.00  0.00    -0.270 OA
ATOM     23  H   UNL     1       2.142  -2.756  -0.769  0.00  0.00    +0.155 HD
BRANCH  20  28
ATOM     24  C   UNL     1       0.102   0.996  -1.994  0.00  0.00    +0.002 A 
ATOM     25  C   UNL     1       1.264   1.566  -2.480  0.00  0.00    +0.004 A 
ATOM     26  C   UNL     1       2.442   0.843  -2.489  0.00  0.00    +0.047 A 
ATOM     27  C   UNL     1       2.461  -0.456  -2.008  0.00  0.00    +0.142 A 
ATOM     28  C   UNL     1       1.291  -1.031  -1.517  0.00  0.00    +0.076 A 
ATOM     29  C   UNL     1       0.112  -0.299  -1.512  0.00  0.00    +0.027 A 
BRANCH  27  30
ATOM     30  O   UNL     1       3.619  -1.169  -2.017  0.00  0.00    -0.481 OA
BRANCH  30  31
ATOM     31  C   UNL     1       4.779  -0.516  -2.535  0.00  0.00    +0.342 C 
BRANCH  31  32
ATOM     32  C   UNL     1       5.975  -1.467  -2.463  0.00  0.00    +0.424 C 
ATOM     33  F   UNL     1       5.707  -2.612  -3.221  0.00  0.00    -0.167 F 
ATOM     34  F   UNL     1       7.111  -0.828  -2.971  0.00  0.00    -0.167 F 
ATOM     35  F   UNL     1       6.201  -1.832  -1.132  0.00  0.00    -0.167 F 
ENDBRANCH  31  32
ENDBRANCH  30  31
ENDBRANCH  27  30
ENDBRANCH  20  28
ENDBRANCH   1  21
TORSDOF 6
