REMARK  Name = ZINC01561146
REMARK  10 active torsions:
REMARK  status: ('A' for Active; 'I' for Inactive)
REMARK    1  A    between atoms: C_1  and  C_2
REMARK    2  A    between atoms: C_3  and  C_21
REMARK    3  A    between atoms: C_6  and  N_20
REMARK    4  A    between atoms: C_7  and  C_8
REMARK    5  A    between atoms: C_11  and  O_18
REMARK    6  A    between atoms: C_12  and  O_16
REMARK    7  A    between atoms: C_13  and  O_14
REMARK    8  A    between atoms: O_14  and  C_15
REMARK    9  A    between atoms: O_16  and  C_17
REMARK   10  A    between atoms: O_18  and  C_19
REMARK                            x       y       z     vdW  Elec       q    Type
REMARK                         _______ _______ _______ _____ _____    ______ ____
ROOT
ATOM      1  C   UNL     1      -2.486   3.932   0.091  0.00  0.00    +0.030 A 
ATOM      2  C   UNL     1      -3.061   4.281  -1.131  0.00  0.00    +0.016 A 
ATOM      3  C   UNL     1      -4.255   4.970  -1.161  0.00  0.00    +0.050 A 
ATOM      4  C   UNL     1      -4.884   5.330   0.023  0.00  0.00    +0.165 A 
ATOM      5  C   UNL     1      -4.317   4.992   1.246  0.00  0.00    +0.204 A 
ATOM      6  C   UNL     1      -3.118   4.293   1.284  0.00  0.00    +0.173 A 
ENDROOT
BRANCH   1  13
ATOM      7  C   UNL     1       0.060   5.367   0.138  0.00  0.00    +0.046 C 
ATOM      8  C   UNL     1       0.018   3.860   0.146  0.00  0.00    -0.020 A 
ATOM      9  C   UNL     1       1.187   3.128   0.176  0.00  0.00    +0.042 A 
ATOM     10  N   UNL     1       1.163   1.809   0.183  0.00  0.00    -0.258 NA
ATOM     11  C   UNL     1       0.034   1.128   0.163  0.00  0.00    +0.134 A 
ATOM     12  C   UNL     1      -1.188   1.782   0.127  0.00  0.00    +0.051 A 
ATOM     13  C   UNL     1      -1.206   3.186   0.124  0.00  0.00    +0.012 A 
ATOM     14  C   UNL     1       2.511   3.846   0.201  0.00  0.00    +0.066 C 
BRANCH  12  15
ATOM     15  N   UNL     1      -2.381   1.057   0.100  0.00  0.00    -0.356 N 
ATOM     16  H   UNL     1      -2.360   0.087   0.106  0.00  0.00    +0.142 HD
ATOM     17  H   UNL     1      -3.232   1.523   0.075  0.00  0.00    +0.142 HD
ENDBRANCH  12  15
ENDBRANCH   1  13
BRANCH   6  18
ATOM     18  O   UNL     1      -2.560   3.960   2.479  0.00  0.00    -0.491 OA
ATOM     19  C   UNL     1      -3.026   2.761   3.101  0.00  0.00    +0.277 C 
ENDBRANCH   6  18
BRANCH   5  20
ATOM     20  O   UNL     1      -4.936   5.346   2.405  0.00  0.00    -0.488 OA
ATOM     21  C   UNL     1      -4.669   6.656   2.909  0.00  0.00    +0.277 C 
ENDBRANCH   5  20
BRANCH   4  22
ATOM     22  O   UNL     1      -6.058   6.015  -0.014  0.00  0.00    -0.491 OA
ATOM     23  C   UNL     1      -6.585   6.330  -1.304  0.00  0.00    +0.277 C 
ENDBRANCH   4  22
TORSDOF 5
