REMARK  Name = ZINC03177527
REMARK  7 active torsions:
REMARK  status: ('A' for Active; 'I' for Inactive)
REMARK    1  A    between atoms: C_1  and  C_2
REMARK    2  A    between atoms: C_3  and  O_17
REMARK    3  A    between atoms: C_4  and  C_16
REMARK    4  A    between atoms: N_5  and  C_7
REMARK    5  A    between atoms: C_10  and  N_13
REMARK    6  A    between atoms: O_17  and  C_18
REMARK    7  A    between atoms: C_23  and  O_24
REMARK                            x       y       z     vdW  Elec       q    Type
REMARK                         _______ _______ _______ _____ _____    ______ ____
ROOT
ATOM      1  C   UNL     1       3.606   0.663  -0.029  0.00  0.00    +0.071 C 
ATOM      2  C   UNL     1       2.099   0.652  -0.015  0.00  0.00    +0.103 A 
ATOM      3  C   UNL     1       1.271   1.783  -0.001  0.00  0.00    +0.172 A 
ATOM      4  C   UNL     1      -0.016   1.357   0.009  0.00  0.00    +0.084 A 
ATOM      5  N   UNL     1       0.002  -0.004   0.002  0.00  0.00    -0.233 N 
ATOM      6  N   UNL     1       1.341  -0.415  -0.013  0.00  0.00    -0.168 NA
ATOM      7  C   UNL     1      -1.244   2.231   0.020  0.00  0.00    +0.069 C 
ENDROOT
BRANCH   5   8
ATOM      8  C   UNL     1      -1.119  -0.845   0.008  0.00  0.00    +0.066 A 
ATOM      9  C   UNL     1      -2.258  -0.481   0.715  0.00  0.00    +0.030 A 
ATOM     10  C   UNL     1      -3.363  -1.310   0.715  0.00  0.00    +0.035 A 
ATOM     11  C   UNL     1      -3.332  -2.505   0.021  0.00  0.00    +0.126 A 
ATOM     12  C   UNL     1      -2.198  -2.873  -0.679  0.00  0.00    +0.035 A 
ATOM     13  C   UNL     1      -1.092  -2.046  -0.688  0.00  0.00    +0.030 A 
BRANCH  11  14
ATOM     14  N   UNL     1      -4.516  -3.394   0.029  0.00  0.00    +0.056 N 
ATOM     15  O   UNL     1      -4.491  -4.447  -0.582  0.00  0.00    -0.126 OA
ATOM     16  O   UNL     1      -5.516  -3.071   0.645  0.00  0.00    -0.126 OA
ENDBRANCH  11  14
ENDBRANCH   5   8
BRANCH   3  17
ATOM     17  O   UNL     1       1.686   3.081   0.003  0.00  0.00    -0.449 OA
BRANCH  17  18
ATOM     18  C   UNL     1       1.892   3.682   1.204  0.00  0.00    +0.170 A 
ATOM     19  C   UNL     1       1.680   2.978   2.379  0.00  0.00    +0.050 A 
ATOM     20  C   UNL     1       1.889   3.591   3.600  0.00  0.00    +0.004 A 
ATOM     21  C   UNL     1       2.311   4.907   3.653  0.00  0.00    +0.004 A 
ATOM     22  C   UNL     1       2.525   5.615   2.485  0.00  0.00    +0.049 A 
ATOM     23  C   UNL     1       2.321   5.005   1.258  0.00  0.00    +0.159 A 
BRANCH  23  24
ATOM     24  O   UNL     1       2.536   5.699   0.108  0.00  0.00    -0.503 OA
ATOM     25  H   UNL     1       1.758   6.172  -0.217  0.00  0.00    +0.292 HD
ENDBRANCH  23  24
ENDBRANCH  17  18
ENDBRANCH   3  17
TORSDOF 5
