REMARK  Name = ZINC16130121
REMARK  5 active torsions:
REMARK  status: ('A' for Active; 'I' for Inactive)
REMARK    1  A    between atoms: C_3  and  N_11
REMARK    2  A    between atoms: C_6  and  C_7
REMARK    3  A    between atoms: N_11  and  S_12
REMARK    4  A    between atoms: S_12  and  C_15
REMARK    5  A    between atoms: C_19  and  N_21
REMARK                            x       y       z     vdW  Elec       q    Type
REMARK                         _______ _______ _______ _____ _____    ______ ____
ROOT
ATOM      1  S   UNL     1       2.854   0.900   0.011  0.00  0.00    +0.072 S 
ATOM      2  O   UNL     1       4.008   1.616   0.428  0.00  0.00    -0.150 OA
ATOM      3  O   UNL     1       2.448  -0.316   0.625  0.00  0.00    -0.150 OA
ENDROOT
BRANCH   1   4
ATOM      4  C   UNL     1       1.494   2.012   0.148  0.00  0.00    +0.111 A 
ATOM      5  C   UNL     1       1.720   3.374   0.217  0.00  0.00    +0.030 A 
ATOM      6  C   UNL     1       0.653   4.247   0.324  0.00  0.00    +0.024 A 
ATOM      7  C   UNL     1      -0.640   3.757   0.362  0.00  0.00    +0.071 A 
ATOM      8  C   UNL     1      -0.866   2.394   0.287  0.00  0.00    +0.146 A 
ATOM      9  C   UNL     1       0.202   1.522   0.185  0.00  0.00    +0.063 A 
ATOM     10 CL   UNL     1      -1.980   4.852   0.497  0.00  0.00    -0.081 Cl
BRANCH   8  11
ATOM     11  N   UNL     1      -2.249   1.869   0.321  0.00  0.00    +0.058 N 
ATOM     12  O   UNL     1      -2.447   0.669   0.260  0.00  0.00    -0.126 OA
ATOM     13  O   UNL     1      -3.190   2.638   0.411  0.00  0.00    -0.126 OA
ENDBRANCH   8  11
ENDBRANCH   1   4
BRANCH   1  14
ATOM     14  N   UNL     1       3.058   0.571  -1.599  0.00  0.00    -0.216 N 
ATOM     15  H   UNL     1       2.936  -0.333  -1.929  0.00  0.00    +0.174 HD
BRANCH  14  18
ATOM     16  C   UNL     1       5.037   3.115  -3.364  0.00  0.00    +0.014 A 
ATOM     17  C   UNL     1       4.697   2.102  -2.489  0.00  0.00    +0.025 A 
ATOM     18  C   UNL     1       3.404   1.595  -2.483  0.00  0.00    +0.048 A 
ATOM     19  C   UNL     1       2.458   2.106  -3.362  0.00  0.00    +0.025 A 
ATOM     20  C   UNL     1       2.802   3.123  -4.231  0.00  0.00    +0.014 A 
ATOM     21  C   UNL     1       4.091   3.625  -4.234  0.00  0.00    +0.055 A 
BRANCH  21  22
ATOM     22  C   UNL     1       4.465   4.730  -5.188  0.00  0.00    +0.417 C 
ATOM     23  F   UNL     1       4.928   4.176  -6.386  0.00  0.00    -0.166 F 
ATOM     24  F   UNL     1       3.342   5.524  -5.445  0.00  0.00    -0.166 F 
ATOM     25  F   UNL     1       5.471   5.517  -4.618  0.00  0.00    -0.166 F 
ENDBRANCH  21  22
ENDBRANCH  14  18
ENDBRANCH   1  14
TORSDOF 5
