REMARK  Name = ZINC05678345
REMARK  6 active torsions:
REMARK  status: ('A' for Active; 'I' for Inactive)
REMARK    1  A    between atoms: C_1  and  C_2
REMARK    2  A    between atoms: C_8  and  N_10
REMARK    3  A    between atoms: C_14  and  C_16
REMARK    4  A    between atoms: C_16  and  S_17
REMARK    5  A    between atoms: S_17  and  C_18
REMARK    6  A    between atoms: C_20  and  C_24
REMARK                            x       y       z     vdW  Elec       q    Type
REMARK                         _______ _______ _______ _____ _____    ______ ____
ROOT
ATOM      1  N   UNL     1       2.116  -0.004   1.231  0.00  0.00    -0.296 N 
ATOM      2  C   UNL     1       2.795   0.128   2.388  0.00  0.00    +0.306 C 
ATOM      3  O   UNL     1       2.267  -0.174   3.440  0.00  0.00    -0.252 OA
ATOM      4  N   UNL     1       4.059   0.594   2.379  0.00  0.00    -0.239 N 
ATOM      5  C   UNL     1       4.738   0.726   3.536  0.00  0.00    +0.231 C 
ATOM      6  O   UNL     1       4.211   0.424   4.585  0.00  0.00    -0.274 OA
ATOM      7  H   UNL     1       2.538   0.237   0.392  0.00  0.00    +0.151 HD
ATOM      8  H   UNL     1       4.481   0.835   1.539  0.00  0.00    +0.159 HD
ENDROOT
BRANCH   1  15
ATOM      9  C   UNL     1      -0.019   1.526   0.010  0.00  0.00    +0.009 C 
ATOM     10  C   UNL     1       0.002  -0.004   0.002  0.00  0.00    +0.006 C 
ATOM     11  C   UNL     1      -1.433  -0.534   0.013  0.00  0.00    +0.005 C 
ATOM     12  C   UNL     1      -1.413  -2.063   0.004  0.00  0.00    +0.000 C 
ATOM     13  C   UNL     1      -0.673  -2.570   1.244  0.00  0.00    +0.002 C 
ATOM     14  C   UNL     1       0.763  -2.041   1.233  0.00  0.00    +0.022 C 
ATOM     15  C   UNL     1       0.742  -0.511   1.242  0.00  0.00    +0.077 C 
ENDBRANCH   1  15
BRANCH   5  16
ATOM     16  C   UNL     1       6.152   1.247   3.525  0.00  0.00    +0.173 C 
BRANCH  16  17
ATOM     17  S   UNL     1       6.787   1.308   5.223  0.00  0.00    -0.077 S 
BRANCH  17  18
ATOM     18  C   UNL     1       8.426   1.929   5.043  0.00  0.00    +0.185 A 
ATOM     19  N   UNL     1       9.007   2.260   3.911  0.00  0.00    -0.201 NA
ATOM     20  C   UNL     1      10.252   2.694   4.153  0.00  0.00    +0.185 A 
ATOM     21  N   UNL     1      10.476   2.644   5.447  0.00  0.00    -0.151 NA
ATOM     22  H   UNL     1       9.153   2.009   6.993  0.00  0.00    +0.191 HD
ATOM     23  N   UNL     1       9.303   2.156   6.046  0.00  0.00    -0.253 N 
BRANCH  20  24
ATOM     24  C   UNL     1      11.220   3.155   3.128  0.00  0.00    +0.056 A 
ATOM     25  C   UNL     1      10.860   3.167   1.782  0.00  0.00    +0.014 A 
ATOM     26  C   UNL     1      11.764   3.598   0.832  0.00  0.00    +0.001 A 
ATOM     27  C   UNL     1      13.026   4.018   1.212  0.00  0.00    +0.003 A 
ATOM     28  C   UNL     1      13.391   4.009   2.546  0.00  0.00    +0.039 A 
ATOM     29  C   UNL     1      12.492   3.585   3.508  0.00  0.00    +0.134 A 
ATOM     30  F   UNL     1      12.846   3.582   4.811  0.00  0.00    -0.205 F 
ENDBRANCH  20  24
ENDBRANCH  17  18
ENDBRANCH  16  17
ENDBRANCH   5  16
TORSDOF 5
