REMARK  Name = ZINC65585594
REMARK  3 active torsions:
REMARK  status: ('A' for Active; 'I' for Inactive)
REMARK    1  A    between atoms: C_3  and  C_10
REMARK    2  A    between atoms: C_5  and  N_7
REMARK    3  A    between atoms: C_16  and  C_18
REMARK                            x       y       z     vdW  Elec       q    Type
REMARK                         _______ _______ _______ _____ _____    ______ ____
ROOT
ATOM      1  C   UNL     1       3.656   2.159  -0.022  0.00  0.00    +0.250 C 
ATOM      2  O   UNL     1       4.715   1.563  -0.035  0.00  0.00    -0.270 OA
ATOM      3  N   UNL     1       3.642   3.507  -0.015  0.00  0.00    -0.259 N 
ATOM      4  C   UNL     1       4.803   4.195  -0.023  0.00  0.00    +0.188 A 
ATOM      5  N   UNL     1       6.081   3.712  -0.043  0.00  0.00    -0.125 NA
ATOM      6  N   UNL     1       7.073   4.496  -0.049  0.00  0.00    -0.140 NA
ATOM      7  C   UNL     1       6.825   5.848  -0.033  0.00  0.00    +0.134 A 
ATOM      8  S   UNL     1       5.039   5.863  -0.017  0.00  0.00    -0.030 S 
ATOM      9  H   UNL     1       2.796   3.983  -0.004  0.00  0.00    +0.157 HD
ENDROOT
BRANCH   1  12
ATOM     10  C   UNL     1      -0.017   1.379   0.010  0.00  0.00    +0.003 A 
ATOM     11  C   UNL     1       1.167   2.088   0.002  0.00  0.00    +0.013 A 
ATOM     12  C   UNL     1       2.385   1.407  -0.013  0.00  0.00    +0.039 A 
ATOM     13  C   UNL     1       2.397   0.010  -0.021  0.00  0.00    +0.045 A 
ATOM     14  C   UNL     1       1.206  -0.686  -0.013  0.00  0.00    +0.127 A 
ATOM     15  C   UNL     1       0.002  -0.004   0.002  0.00  0.00    +0.033 A 
BRANCH  14  16
ATOM     16  N   UNL     1       1.216  -2.166  -0.021  0.00  0.00    +0.056 N 
ATOM     17  O   UNL     1       2.361  -2.817  -0.036  0.00  0.00    -0.126 OA
ATOM     18  O   UNL     1       0.081  -2.833  -0.014  0.00  0.00    -0.126 OA
ENDBRANCH  14  16
ENDBRANCH   1  12
BRANCH   7  19
ATOM     19  C   UNL     1       7.724   6.917  -0.035  0.00  0.00    +0.016 A 
ATOM     20  C   UNL     1       9.155   6.733  -0.061  0.00  0.00    +0.018 A 
ATOM     21  C   UNL     1       9.904   7.848  -0.059  0.00  0.00    +0.046 A 
ATOM     22  S   UNL     1       8.729   9.182  -0.023  0.00  0.00    -0.104 S 
ATOM     23  C   UNL     1       7.288   8.323  -0.016  0.00  0.00    +0.055 A 
ENDBRANCH   7  19
TORSDOF 3
