REMARK  Name = ZINC14014502
REMARK  8 active torsions:
REMARK  status: ('A' for Active; 'I' for Inactive)
REMARK    1  A    between atoms: C_1  and  C_2
REMARK    2  A    between atoms: C_2  and  S_3
REMARK    3  A    between atoms: S_3  and  C_4
REMARK    4  A    between atoms: C_10  and  C_12
REMARK    5  A    between atoms: C_12  and  C_13
REMARK    6  A    between atoms: N_24  and  C_27
REMARK    7  A    between atoms: C_30  and  C_34
REMARK    8  A    between atoms: C_32  and  C_33
REMARK                            x       y       z     vdW  Elec       q    Type
REMARK                         _______ _______ _______ _____ _____    ______ ____
ROOT
ATOM      1  C   UNL     1      -0.856   2.780  -1.497  0.00  0.00    +0.112 C 
ATOM      2  C   UNL     1      -0.341   4.223  -1.390  0.00  0.00    +0.103 C 
ATOM      3  S   UNL     1       1.413   3.940  -0.950  0.00  0.00    -0.085 S 
ATOM      4  C   UNL     1       1.419   2.159  -0.916  0.00  0.00    +0.174 A 
ATOM      5  N   UNL     1       0.151   1.756  -1.223  0.00  0.00    -0.283 N 
ATOM      6  C   UNL     1      -0.088   0.405  -1.258  0.00  0.00    +0.266 A 
ATOM      7  O   UNL     1      -1.202  -0.011  -1.526  0.00  0.00    -0.267 OA
ATOM      8  C   UNL     1       0.957  -0.502  -0.982  0.00  0.00    +0.103 A 
ATOM      9  C   UNL     1       1.052  -1.909  -0.933  0.00  0.00    +0.150 A 
ATOM     10  N   UNL     1       2.277  -2.231  -0.624  0.00  0.00    -0.172 NA
ATOM     11  N   UNL     1       3.039  -1.068  -0.456  0.00  0.00    -0.214 N 
ATOM     12  C   UNL     1       2.231   0.005  -0.676  0.00  0.00    +0.171 A 
ATOM     13  N   UNL     1       2.405   1.330  -0.657  0.00  0.00    -0.203 NA
ENDROOT
BRANCH  11  14
ATOM     14  C   UNL     1       4.398  -1.018  -0.119  0.00  0.00    +0.071 A 
ATOM     15  C   UNL     1       5.070   0.198  -0.117  0.00  0.00    +0.028 A 
ATOM     16  C   UNL     1       6.409   0.244   0.216  0.00  0.00    +0.005 A 
ATOM     17  C   UNL     1       7.082  -0.918   0.547  0.00  0.00    -0.050 A 
ATOM     18  C   UNL     1       6.416  -2.130   0.545  0.00  0.00    +0.008 A 
ATOM     19  C   UNL     1       5.075  -2.183   0.218  0.00  0.00    -0.025 A 
ATOM     20  C   UNL     1       4.348  -3.503   0.222  0.00  0.00    +0.046 C 
ATOM     21  C   UNL     1       8.543  -0.864   0.910  0.00  0.00    +0.044 C 
ENDBRANCH  11  14
BRANCH   1  22
ATOM     22  C   UNL     1      -1.400   2.559  -2.910  0.00  0.00    +0.122 C 
BRANCH  22  29
ATOM     23  C   UNL     1      -6.245   5.933  -5.377  0.00  0.00    +0.160 A 
ATOM     24  N   UNL     1      -5.780   5.966  -4.136  0.00  0.00    -0.133 NA
ATOM     25  N   UNL     1      -4.811   5.247  -3.768  0.00  0.00    -0.125 NA
ATOM     26  C   UNL     1      -4.201   4.415  -4.597  0.00  0.00    +0.189 A 
ATOM     27  S   UNL     1      -5.141   4.718  -6.090  0.00  0.00    -0.024 S 
ATOM     28  N   UNL     1      -3.129   3.555  -4.373  0.00  0.00    -0.263 N 
ATOM     29  C   UNL     1      -2.560   3.490  -3.152  0.00  0.00    +0.221 C 
ATOM     30  O   UNL     1      -2.982   4.182  -2.250  0.00  0.00    -0.275 OA
ATOM     31  H   UNL     1      -2.792   3.002  -5.095  0.00  0.00    +0.157 HD
BRANCH  23  32
ATOM     32  S   UNL     1      -7.569   6.833  -6.114  0.00  0.00    -0.097 S 
BRANCH  32  34
ATOM     33  C   UNL     1      -9.369   8.713  -5.276  0.00  0.00    +0.016 C 
ATOM     34  C   UNL     1      -8.201   7.868  -4.765  0.00  0.00    +0.073 C 
ENDBRANCH  32  34
ENDBRANCH  23  32
ENDBRANCH  22  29
ENDBRANCH   1  22
TORSDOF 5
