REMARK  Name = ZINC00373854
REMARK  4 active torsions:
REMARK  status: ('A' for Active; 'I' for Inactive)
REMARK    1  A    between atoms: C_1  and  C_2
REMARK    2  A    between atoms: C_3  and  C_17
REMARK    3  A    between atoms: C_4  and  C_10
REMARK    4  A    between atoms: C_17  and  C_19
REMARK                            x       y       z     vdW  Elec       q    Type
REMARK                         _______ _______ _______ _____ _____    ______ ____
ROOT
ATOM      1  C   UNL     1       0.495  -2.025   0.250  0.00  0.00    +0.061 C 
ATOM      2  C   UNL     1       0.817  -0.560   0.108  0.00  0.00    +0.018 C 
ATOM      3  C   UNL     1       2.100  -0.176  -0.085  0.00  0.00    +0.041 C 
ATOM      4  C   UNL     1       2.379   1.307  -0.223  0.00  0.00    +0.140 C 
ATOM      5  N   UNL     1       1.222   2.214  -0.135  0.00  0.00    -0.288 N 
ATOM      6  C   UNL     1       0.001   1.680   0.062  0.00  0.00    +0.304 C 
ATOM      7  O   UNL     1      -0.961   2.420   0.132  0.00  0.00    -0.252 OA
ATOM      8  N   UNL     1      -0.190   0.359   0.177  0.00  0.00    -0.273 N 
ATOM      9  H   UNL     1       1.337   3.174  -0.215  0.00  0.00    +0.151 HD
ATOM     10  H   UNL     1      -1.094   0.038   0.317  0.00  0.00    +0.156 HD
ENDROOT
BRANCH   4  11
ATOM     11  C   UNL     1       3.045   1.532  -1.556  0.00  0.00    -0.022 A 
ATOM     12  C   UNL     1       2.301   1.468  -2.720  0.00  0.00    +0.008 A 
ATOM     13  C   UNL     1       2.910   1.680  -3.942  0.00  0.00    +0.038 A 
ATOM     14  C   UNL     1       4.268   1.946  -4.002  0.00  0.00    +0.123 A 
ATOM     15  C   UNL     1       5.013   2.004  -2.836  0.00  0.00    +0.038 A 
ATOM     16  C   UNL     1       4.401   1.798  -1.614  0.00  0.00    +0.008 A 
ATOM     17  F   UNL     1       4.865   2.147  -5.197  0.00  0.00    -0.205 F 
ENDBRANCH   4  11
BRANCH   3  18
ATOM     18  C   UNL     1       3.145  -1.127  -0.156  0.00  0.00    +0.193 C 
ATOM     19  O   UNL     1       3.184  -1.921  -1.078  0.00  0.00    -0.287 OA
BRANCH  18  20
ATOM     20  C   UNL     1       4.191  -1.156   0.891  0.00  0.00    +0.022 A 
ATOM     21  C   UNL     1       4.106  -0.301   1.990  0.00  0.00    +0.012 A 
ATOM     22  C   UNL     1       5.080  -0.338   2.966  0.00  0.00    +0.001 A 
ATOM     23  C   UNL     1       6.147  -1.211   2.849  0.00  0.00    +0.000 A 
ATOM     24  C   UNL     1       6.240  -2.058   1.759  0.00  0.00    +0.001 A 
ATOM     25  C   UNL     1       5.269  -2.035   0.779  0.00  0.00    +0.012 A 
ENDBRANCH  18  20
ENDBRANCH   3  18
TORSDOF 3
