REMARK  Name = ZINC42109193
REMARK  2 active torsions:
REMARK  status: ('A' for Active; 'I' for Inactive)
REMARK    1  A    between atoms: C_11  and  N_13
REMARK    2  A    between atoms: N_13  and  C_14
REMARK                            x       y       z     vdW  Elec       q    Type
REMARK                         _______ _______ _______ _____ _____    ______ ____
ROOT
ATOM      1  C   UNL     1       5.225  -1.173  -0.872  0.00  0.00    +0.002 A 
ATOM      2  C   UNL     1       4.454  -0.237  -0.205  0.00  0.00    +0.004 A 
ATOM      3  C   UNL     1       4.403   1.061  -0.660  0.00  0.00    -0.030 A 
ATOM      4  C   UNL     1       5.119   1.449  -1.786  0.00  0.00    +0.054 A 
ATOM      5  C   UNL     1       5.893   0.501  -2.453  0.00  0.00    +0.062 A 
ATOM      6  C   UNL     1       5.942  -0.801  -1.994  0.00  0.00    +0.022 A 
ATOM      7 CL   UNL     1       6.797   0.957  -3.863  0.00  0.00    -0.082 Cl
ATOM      8  N   UNL     1       4.909   2.804  -2.048  0.00  0.00    -0.285 N 
ATOM      9  C   UNL     1       4.081   3.372  -1.155  0.00  0.00    +0.208 C 
ATOM     10  O   UNL     1       3.725   4.532  -1.139  0.00  0.00    -0.277 OA
ATOM     11  C   UNL     1       3.677   2.294  -0.172  0.00  0.00    +0.049 C 
ATOM     12  H   UNL     1       5.315   3.280  -2.789  0.00  0.00    +0.155 HD
ENDROOT
BRANCH  11  13
ATOM     13  N   UNL     1       4.114   2.645   1.185  0.00  0.00    +0.391 N 
ATOM     14  H   UNL     1       3.538   3.393   1.541  0.00  0.00    -0.084 HD
ATOM     15  H   UNL     1       4.026   1.839   1.786  0.00  0.00    -0.084 HD
BRANCH  13  16
ATOM     16  C   UNL     1       5.516   3.080   1.152  0.00  0.00    -0.070 C 
ATOM     17  C   UNL     1       6.429   1.853   1.095  0.00  0.00    -0.016 C 
ATOM     18  C   UNL     1       7.833   2.282   0.665  0.00  0.00    -0.002 C 
ATOM     19  C   UNL     1       7.731   3.268  -0.501  0.00  0.00    -0.000 C 
ATOM     20  C   UNL     1       8.212   4.647  -0.046  0.00  0.00    -0.000 C 
ATOM     21  C   UNL     1       7.131   5.304   0.815  0.00  0.00    -0.000 C 
ATOM     22  C   UNL     1       7.130   4.668   2.206  0.00  0.00    -0.002 C 
ATOM     23  C   UNL     1       5.829   3.890   2.411  0.00  0.00    -0.016 C 
ENDBRANCH  13  16
ENDBRANCH  11  13
TORSDOF 2
