REMARK  Name = ZINC59792672
REMARK  7 active torsions:
REMARK  status: ('A' for Active; 'I' for Inactive)
REMARK    1  A    between atoms: C_1  and  C_2
REMARK    2  A    between atoms: C_3  and  N_9
REMARK    3  A    between atoms: C_10  and  C_12
REMARK    4  A    between atoms: C_12  and  S_13
REMARK    5  A    between atoms: S_13  and  C_14
REMARK    6  A    between atoms: C_17  and  C_20
REMARK    7  A    between atoms: C_23  and  N_26
REMARK                            x       y       z     vdW  Elec       q    Type
REMARK                         _______ _______ _______ _____ _____    ______ ____
ROOT
ATOM      1  C   UNL     1       0.425  -0.023  -7.681  0.00  0.00    +0.185 A 
ATOM      2  N   UNL     1       0.408   1.292  -7.684  0.00  0.00    -0.201 NA
ATOM      3  H   UNL     1       0.583  -1.361  -9.269  0.00  0.00    +0.191 HD
ATOM      4  C   UNL     1       0.507   1.742  -8.943  0.00  0.00    +0.182 A 
ATOM      5  N   UNL     1       0.588   0.714  -9.757  0.00  0.00    -0.152 NA
ATOM      6  N   UNL     1       0.542  -0.442  -8.961  0.00  0.00    -0.253 N 
ENDROOT
BRANCH   4   7
ATOM      7  C   UNL     1       0.521   3.168  -9.351  0.00  0.00    +0.021 A 
ATOM      8  C   UNL     1       0.434   4.172  -8.389  0.00  0.00    +0.014 A 
ATOM      9  C   UNL     1       0.449   5.497  -8.774  0.00  0.00    +0.033 A 
ATOM     10  C   UNL     1       0.550   5.830 -10.113  0.00  0.00    +0.126 A 
ATOM     11  C   UNL     1       0.637   4.838 -11.073  0.00  0.00    +0.033 A 
ATOM     12  C   UNL     1       0.629   3.509 -10.698  0.00  0.00    +0.014 A 
BRANCH  10  13
ATOM     13  N   UNL     1       0.565   7.253 -10.520  0.00  0.00    +0.056 N 
ATOM     14  O   UNL     1       0.488   8.122  -9.683  0.00  0.00    -0.126 OA
ATOM     15  O   UNL     1       0.653   7.546 -11.689  0.00  0.00    -0.126 OA
ENDBRANCH  10  13
ENDBRANCH   4   7
BRANCH   1  16
ATOM     16  S   UNL     1       0.322  -1.057  -6.258  0.00  0.00    -0.077 S 
BRANCH  16  17
ATOM     17  C   UNL     1       0.192   0.111  -4.876  0.00  0.00    +0.173 C 
BRANCH  17  19
ATOM     18  N   UNL     1      -0.010   0.011  -2.413  0.00  0.00    -0.284 N 
ATOM     19  C   UNL     1       0.095  -0.653  -3.581  0.00  0.00    +0.227 C 
ATOM     20  O   UNL     1       0.112  -1.866  -3.589  0.00  0.00    -0.275 OA
ATOM     21  H   UNL     1      -0.104   0.977  -2.411  0.00  0.00    +0.155 HD
BRANCH  18  24
ATOM     22  C   UNL     1      -1.263   1.190  -0.146  0.00  0.00    +0.048 C 
ATOM     23  C   UNL     1      -0.583  -0.153  -0.073  0.00  0.00    +0.006 A 
ATOM     24  C   UNL     1       0.017  -0.692  -1.203  0.00  0.00    +0.039 A 
ATOM     25  C   UNL     1       0.643  -1.929  -1.132  0.00  0.00    +0.024 A 
ATOM     26  C   UNL     1       0.668  -2.622   0.063  0.00  0.00    +0.005 A 
ATOM     27  C   UNL     1       0.070  -2.085   1.188  0.00  0.00    +0.039 A 
ATOM     28  C   UNL     1      -0.550  -0.848   1.123  0.00  0.00    +0.128 A 
ATOM     29  F   UNL     1      -1.129  -0.324   2.225  0.00  0.00    -0.205 F 
ENDBRANCH  18  24
ENDBRANCH  17  19
ENDBRANCH  16  17
ENDBRANCH   1  16
TORSDOF 6
