REMARK  Name = ZINC63253304
REMARK  9 active torsions:
REMARK  status: ('A' for Active; 'I' for Inactive)
REMARK    1  A    between atoms: C_4  and  C_7
REMARK    2  A    between atoms: C_9  and  C_17
REMARK    3  A    between atoms: C_17  and  C_19
REMARK    4  A    between atoms: C_17  and  C_30
REMARK    5  A    between atoms: C_19  and  N_20
REMARK    6  A    between atoms: N_20  and  C_21
REMARK    7  A    between atoms: C_21  and  N_23
REMARK    8  A    between atoms: N_23  and  C_24
REMARK    9  A    between atoms: C_24  and  C_25
REMARK                            x       y       z     vdW  Elec       q    Type
REMARK                         _______ _______ _______ _____ _____    ______ ____
ROOT
ATOM      1  C   UNL     1       4.205  -0.344  -2.669  0.00  0.00    +0.065 C 
ENDROOT
BRANCH   1   3
ATOM      2  C   UNL     1       3.469  -0.690  -0.092  0.00  0.00    +0.137 C 
ATOM      3  C   UNL     1       3.877  -1.185  -1.462  0.00  0.00    -0.025 C 
ATOM      4  C   UNL     1       3.888  -2.535  -1.385  0.00  0.00    +0.000 A 
ATOM      5  C   UNL     1       4.196  -3.584  -2.363  0.00  0.00    +0.010 A 
ATOM      6  C   UNL     1       4.118  -4.880  -1.983  0.00  0.00    +0.001 A 
ATOM      7  C   UNL     1       3.751  -5.244  -0.680  0.00  0.00    +0.002 A 
ATOM      8  C   UNL     1       3.453  -4.337   0.275  0.00  0.00    +0.026 A 
ATOM      9  C   UNL     1       3.503  -2.946  -0.016  0.00  0.00    +0.043 A 
ATOM     10  N   UNL     1       3.264  -1.890   0.726  0.00  0.00    -0.374 N 
ATOM     11  H   UNL     1       2.996  -1.900   1.658  0.00  0.00    +0.161 HD
BRANCH   2  15
ATOM     12  C   UNL     1      -0.157   1.552  -0.358  0.00  0.00    +0.000 A 
ATOM     13  C   UNL     1       1.055   2.208  -0.259  0.00  0.00    +0.000 A 
ATOM     14  C   UNL     1       2.229   1.483  -0.173  0.00  0.00    +0.006 A 
ATOM     15  C   UNL     1       2.190   0.101  -0.185  0.00  0.00    -0.021 A 
ATOM     16  C   UNL     1       0.977  -0.555  -0.283  0.00  0.00    +0.006 A 
ATOM     17  C   UNL     1      -0.196   0.170  -0.371  0.00  0.00    +0.000 A 
ENDBRANCH   2  15
ENDBRANCH   1   3
BRANCH   1  18
ATOM     18  C   UNL     1       5.483   0.414  -2.421  0.00  0.00    -0.039 A 
ATOM     19  C   UNL     1       6.656  -0.272  -2.170  0.00  0.00    +0.004 A 
ATOM     20  C   UNL     1       7.829   0.423  -1.942  0.00  0.00    +0.000 A 
ATOM     21  C   UNL     1       7.829   1.805  -1.966  0.00  0.00    +0.000 A 
ATOM     22  C   UNL     1       6.656   2.492  -2.218  0.00  0.00    +0.000 A 
ATOM     23  C   UNL     1       5.484   1.797  -2.450  0.00  0.00    +0.004 A 
ENDBRANCH   1  18
BRANCH   1  24
ATOM     24  C   UNL     1       4.377  -1.249  -3.890  0.00  0.00    +0.115 C 
BRANCH  24  25
ATOM     25  N   UNL     1       4.558  -0.425  -5.088  0.00  0.00    -0.326 N 
ATOM     26  H   UNL     1       4.553   0.543  -5.016  0.00  0.00    +0.148 HD
BRANCH  25  27
ATOM     27  C   UNL     1       4.730  -1.010  -6.289  0.00  0.00    +0.131 C 
ATOM     28  S   UNL     1       4.737  -2.718  -6.416  0.00  0.00    -0.019 S 
BRANCH  27  29
ATOM     29  N   UNL     1       4.896  -0.252  -7.391  0.00  0.00    -0.322 N 
ATOM     30  H   UNL     1       4.891   0.715  -7.319  0.00  0.00    +0.148 HD
BRANCH  29  31
ATOM     31  C   UNL     1       5.082  -0.889  -8.697  0.00  0.00    +0.145 C 
BRANCH  31  32
ATOM     32  C   UNL     1       5.244   0.173  -9.755  0.00  0.00    +0.007 A 
ATOM     33  C   UNL     1       6.378   0.763 -10.205  0.00  0.00    +0.013 A 
ATOM     34  C   UNL     1       6.286   1.724 -11.195  0.00  0.00    +0.008 A 
ATOM     35  C   UNL     1       5.064   2.047 -11.686  0.00  0.00    +0.045 A 
ATOM     36  S   UNL     1       3.992   0.973 -10.745  0.00  0.00    -0.100 S 
ENDBRANCH  31  32
ENDBRANCH  29  31
ENDBRANCH  27  29
ENDBRANCH  25  27
ENDBRANCH  24  25
ENDBRANCH   1  24
TORSDOF 9
