REMARK  Name = ZINC01836531
REMARK  8 active torsions:
REMARK  status: ('A' for Active; 'I' for Inactive)
REMARK    1  A    between atoms: C_1  and  C_2
REMARK    2  A    between atoms: C_2  and  C_38
REMARK    3  A    between atoms: N_11  and  C_28
REMARK    4  A    between atoms: C_14  and  S_17
REMARK    5  A    between atoms: S_17  and  C_18
REMARK    6  A    between atoms: C_18  and  C_19
REMARK    7  A    between atoms: C_28  and  C_29
REMARK    8  A    between atoms: C_29  and  C_30
REMARK                            x       y       z     vdW  Elec       q    Type
REMARK                         _______ _______ _______ _____ _____    ______ ____
ROOT
ATOM      1  C   UNL     1      -6.450   0.117  -3.298  0.00  0.00    +0.041 C 
ATOM      2  C   UNL     1      -5.453  -0.851  -3.939  0.00  0.00    +0.068 C 
ATOM      3  C   UNL     1      -4.093  -0.711  -3.247  0.00  0.00    +0.071 C 
ATOM      4  C   UNL     1      -3.505   0.641  -3.636  0.00  0.00    -0.018 A 
ATOM      5  C   UNL     1      -3.993   1.303  -4.708  0.00  0.00    +0.021 A 
ATOM      6  S   UNL     1      -3.040   2.791  -4.787  0.00  0.00    -0.072 S 
ATOM      7  C   UNL     1      -2.018   2.532  -3.422  0.00  0.00    +0.102 A 
ATOM      8  C   UNL     1      -2.418   1.299  -2.915  0.00  0.00    +0.074 A 
ATOM      9  C   UNL     1      -1.690   0.815  -1.720  0.00  0.00    +0.264 A 
ATOM     10  O   UNL     1      -1.978  -0.258  -1.220  0.00  0.00    -0.267 OA
ATOM     11  N   UNL     1      -0.713   1.566  -1.185  0.00  0.00    -0.276 N 
ATOM     12  C   UNL     1      -0.357   2.787  -1.734  0.00  0.00    +0.240 A 
ATOM     13  N   UNL     1      -1.006   3.264  -2.844  0.00  0.00    -0.249 N 
ATOM     14  C   UNL     1      -0.453   4.477  -3.161  0.00  0.00    +0.198 A 
ATOM     15  N   UNL     1       0.491   4.735  -2.289  0.00  0.00    -0.120 NA
ATOM     16  N   UNL     1       0.552   3.667  -1.386  0.00  0.00    -0.109 NA
ATOM     17  C   UNL     1      -5.098   0.840  -5.604  0.00  0.00    +0.203 C 
ATOM     18  O   UNL     1      -5.331  -0.551  -5.332  0.00  0.00    -0.368 OA
ATOM     19  C   UNL     1      -5.960  -2.285  -3.771  0.00  0.00    +0.041 C 
ENDROOT
BRANCH  14  20
ATOM     20  S   UNL     1      -0.927   5.509  -4.508  0.00  0.00    -0.076 S 
BRANCH  20  21
ATOM     21  C   UNL     1       0.176   6.943  -4.372  0.00  0.00    +0.173 C 
BRANCH  21  22
ATOM     22  C   UNL     1      -0.128   7.918  -5.480  0.00  0.00    +0.229 C 
ATOM     23  O   UNL     1      -1.004   7.670  -6.282  0.00  0.00    -0.275 OA
ATOM     24  N   UNL     1       0.572   9.065  -5.579  0.00  0.00    -0.270 N 
ATOM     25  C   UNL     1       0.364   9.917  -6.663  0.00  0.00    +0.125 A 
ATOM     26  C   UNL     1       1.163  11.045  -6.815  0.00  0.00    +0.044 A 
ATOM     27  C   UNL     1       0.946  11.882  -7.895  0.00  0.00    +0.005 A 
ATOM     28  C   UNL     1      -0.066  11.561  -8.790  0.00  0.00    +0.020 A 
ATOM     29  C   UNL     1      -0.821  10.424  -8.576  0.00  0.00    +0.113 A 
ATOM     30  N   UNL     1      -0.588   9.642  -7.540  0.00  0.00    -0.240 NA
ATOM     31  H   UNL     1       1.220   9.298  -4.896  0.00  0.00    +0.156 HD
ENDBRANCH  21  22
ENDBRANCH  20  21
ENDBRANCH  14  20
BRANCH  11  32
ATOM     32  C   UNL     1      -0.003   1.080   0.001  0.00  0.00    +0.133 C 
BRANCH  32  33
ATOM     33  C   UNL     1      -0.719   1.572   1.260  0.00  0.00    +0.057 C 
BRANCH  33  34
ATOM     34  C   UNL     1       0.011   1.072   2.481  0.00  0.00    -0.046 A 
ATOM     35  C   UNL     1      -0.335  -0.142   3.044  0.00  0.00    +0.004 A 
ATOM     36  C   UNL     1       0.338  -0.603   4.160  0.00  0.00    +0.000 A 
ATOM     37  C   UNL     1       1.349   0.155   4.719  0.00  0.00    +0.000 A 
ATOM     38  C   UNL     1       1.692   1.372   4.159  0.00  0.00    +0.000 A 
ATOM     39  C   UNL     1       1.022   1.830   3.039  0.00  0.00    +0.004 A 
ENDBRANCH  33  34
ENDBRANCH  32  33
ENDBRANCH  11  32
TORSDOF 6
