REMARK  Name = ZINC08912058
REMARK  10 active torsions:
REMARK  status: ('A' for Active; 'I' for Inactive)
REMARK    1  A    between atoms: C_1  and  C_2
REMARK    2  A    between atoms: C_2  and  C_3
REMARK    3  A    between atoms: C_4  and  C_30
REMARK    4  A    between atoms: C_13  and  C_16
REMARK    5  A    between atoms: N_18  and  C_19
REMARK    6  A    between atoms: C_19  and  C_20
REMARK    7  A    between atoms: C_20  and  C_21
REMARK    8  A    between atoms: C_21  and  N_22
REMARK    9  A    between atoms: C_27  and  C_29
REMARK   10  A    between atoms: C_33  and  C_36
REMARK                            x       y       z     vdW  Elec       q    Type
REMARK                         _______ _______ _______ _____ _____    ______ ____
ROOT
ATOM      1  C   UNL     1      -2.103   0.178  -0.001  0.00  0.00    +0.021 C 
ATOM      2  C   UNL     1      -2.394  -0.512  -1.127  0.00  0.00    +0.126 C 
ATOM      3  S   UNL     1      -3.010  -2.049  -0.469  0.00  0.00    +0.101 S 
ATOM      4  O   UNL     1      -2.075  -3.067  -0.799  0.00  0.00    -0.146 OA
ATOM      5  O   UNL     1      -4.395  -2.127  -0.776  0.00  0.00    -0.146 OA
ATOM      6  N   UNL     1      -2.866  -1.734   1.168  0.00  0.00    -0.113 NA
ATOM      7  C   UNL     1      -2.371  -0.530   1.234  0.00  0.00    +0.148 C 
ATOM      8  N   UNL     1      -2.113   0.059   2.456  0.00  0.00    -0.314 N 
ATOM      9  C   UNL     1      -1.231   1.231   2.550  0.00  0.00    +0.107 C 
ATOM     10  C   UNL     1      -0.134   0.941   3.579  0.00  0.00    +0.031 C 
ATOM     11  C   UNL     1      -0.780   0.532   4.905  0.00  0.00    +0.078 C 
ATOM     12  C   UNL     1      -1.602  -0.743   4.703  0.00  0.00    +0.031 C 
ATOM     13  C   UNL     1      -2.720  -0.469   3.685  0.00  0.00    +0.107 C 
ENDROOT
BRANCH   2  14
ATOM     14  C   UNL     1      -2.241  -0.101  -2.533  0.00  0.00    +0.002 A 
ATOM     15  C   UNL     1      -1.179   0.725  -2.912  0.00  0.00    +0.010 A 
ATOM     16  C   UNL     1      -1.043   1.107  -4.230  0.00  0.00    +0.004 A 
ATOM     17  C   UNL     1      -1.955   0.674  -5.177  0.00  0.00    -0.050 A 
ATOM     18  C   UNL     1      -3.009  -0.143  -4.810  0.00  0.00    +0.004 A 
ATOM     19  C   UNL     1      -3.155  -0.539  -3.496  0.00  0.00    +0.010 A 
ATOM     20  C   UNL     1      -1.799   1.096  -6.615  0.00  0.00    +0.044 C 
ENDBRANCH   2  14
BRANCH  11  21
ATOM     21  C   UNL     1       0.295   0.279   5.931  0.00  0.00    +0.216 C 
ATOM     22  O   UNL     1       1.463   0.412   5.630  0.00  0.00    -0.276 OA
ATOM     23  N   UNL     1      -0.041  -0.095   7.181  0.00  0.00    -0.315 N 
ATOM     24  H   UNL     1      -0.975  -0.202   7.421  0.00  0.00    +0.149 HD
BRANCH  23  25
ATOM     25  C   UNL     1       1.004  -0.341   8.178  0.00  0.00    +0.102 C 
BRANCH  25  26
ATOM     26  C   UNL     1       0.359  -0.750   9.503  0.00  0.00    +0.000 C 
BRANCH  26  27
ATOM     27  C   UNL     1       1.451  -1.007  10.544  0.00  0.00    -0.077 C 
BRANCH  27  28
ATOM     28  N   UNL     1       0.831  -1.399  11.817  0.00  0.00    +0.381 N 
ATOM     29  C   UNL     1       0.136  -2.681  11.647  0.00  0.00    -0.078 C 
ATOM     30  C   UNL     1      -0.579  -3.054  12.947  0.00  0.00    -0.019 C 
ATOM     31  C   UNL     1       0.451  -3.176  14.073  0.00  0.00    -0.003 C 
ATOM     32  C   UNL     1       1.222  -1.858  14.192  0.00  0.00    -0.016 C 
ATOM     33  C   UNL     1       1.870  -1.529  12.846  0.00  0.00    -0.072 C 
ATOM     34  C   UNL     1       2.641  -0.212  12.960  0.00  0.00    -0.013 C 
ATOM     35  H   UNL     1       0.167  -0.693  12.098  0.00  0.00    -0.081 HD
ENDBRANCH  27  28
ENDBRANCH  26  27
ENDBRANCH  25  26
ENDBRANCH  23  25
ENDBRANCH  11  21
BRANCH   1  37
ATOM     36  C   UNL     1      -0.010   1.506  -0.094  0.00  0.00    +0.009 C 
ATOM     37  C   UNL     1      -1.537   1.575  -0.029  0.00  0.00    +0.037 C 
ENDBRANCH   1  37
TORSDOF 7
