REMARK  Name = ZINC21650428
REMARK  10 active torsions:
REMARK  status: ('A' for Active; 'I' for Inactive)
REMARK    1  A    between atoms: C_1  and  C_2
REMARK    2  A    between atoms: C_2  and  N_3
REMARK    3  A    between atoms: C_7  and  C_9
REMARK    4  A    between atoms: C_9  and  N_10
REMARK    5  A    between atoms: C_11  and  C_13
REMARK    6  A    between atoms: N_16  and  C_19
REMARK    7  A    between atoms: C_20  and  N_31
REMARK    8  A    between atoms: C_21  and  C_30
REMARK    9  A    between atoms: N_23  and  C_24
REMARK   10  A    between atoms: C_32  and  C_34
REMARK                            x       y       z     vdW  Elec       q    Type
REMARK                         _______ _______ _______ _____ _____    ______ ____
ROOT
ATOM      1  C   UNL     1      -1.239   0.904  -4.825  0.00  0.00    +0.078 C 
ATOM      2  C   UNL     1       0.285   1.053  -4.845  0.00  0.00    +0.031 C 
ATOM      3  C   UNL     1       0.782   1.345  -3.427  0.00  0.00    +0.107 C 
ATOM      4  N   UNL     1       0.158   2.578  -2.932  0.00  0.00    -0.314 N 
ATOM      5  C   UNL     1      -1.302   2.442  -2.859  0.00  0.00    +0.107 C 
ATOM      6  C   UNL     1      -1.862   2.183  -4.260  0.00  0.00    +0.031 C 
ENDROOT
BRANCH   4   7
ATOM      7  C   UNL     1       0.688   2.945  -1.695  0.00  0.00    +0.147 A 
ATOM      8  C   UNL     1       1.232   4.155  -1.375  0.00  0.00    +0.097 A 
ATOM      9  C   UNL     1       1.642   4.100  -0.037  0.00  0.00    +0.083 A 
ATOM     10  N   UNL     1       1.354   2.914   0.437  0.00  0.00    -0.168 NA
ATOM     11  N   UNL     1       0.759   2.160  -0.583  0.00  0.00    -0.216 N 
ATOM     12  C   UNL     1       2.296   5.220   0.731  0.00  0.00    +0.069 C 
BRANCH  11  13
ATOM     13  C   UNL     1       0.309   0.837  -0.476  0.00  0.00    +0.067 A 
ATOM     14  C   UNL     1      -1.027   0.576  -0.205  0.00  0.00    +0.028 A 
ATOM     15  C   UNL     1      -1.468  -0.729  -0.106  0.00  0.00    +0.002 A 
ATOM     16  C   UNL     1      -0.578  -1.775  -0.265  0.00  0.00    +0.000 A 
ATOM     17  C   UNL     1       0.755  -1.518  -0.529  0.00  0.00    +0.002 A 
ATOM     18  C   UNL     1       1.201  -0.215  -0.635  0.00  0.00    +0.028 A 
ENDBRANCH  11  13
BRANCH   8  19
ATOM     19  N   UNL     1       1.360   5.264  -2.239  0.00  0.00    -0.282 N 
ATOM     20  C   UNL     1       1.979   5.125  -3.428  0.00  0.00    +0.214 C 
ATOM     21  O   UNL     1       2.365   4.032  -3.786  0.00  0.00    -0.276 OA
ATOM     22  C   UNL     1       2.193   6.326  -4.311  0.00  0.00    +0.109 C 
ATOM     23  H   UNL     1       0.953   6.242  -1.942  0.00  0.00    +0.155 HD
ENDBRANCH   8  19
ENDBRANCH   4   7
BRANCH   1  25
ATOM     24  N   UNL     1      -3.060   0.516  -6.453  0.00  0.00    -0.317 N 
ATOM     25  C   UNL     1      -1.741   0.676  -6.227  0.00  0.00    +0.216 C 
ATOM     26  O   UNL     1      -0.958   0.637  -7.153  0.00  0.00    -0.276 OA
ATOM     27  H   UNL     1      -3.770   0.552  -5.614  0.00  0.00    +0.149 HD
BRANCH  24  28
ATOM     28  C   UNL     1      -3.548   0.295  -7.817  0.00  0.00    +0.089 C 
BRANCH  28  33
ATOM     29  N   UNL     1      -5.597   0.095  -9.193  0.00  0.00    +0.382 N 
ATOM     30  C   UNL     1      -6.964  -0.459  -9.006  0.00  0.00    -0.078 C 
ATOM     31  C   UNL     1      -6.824  -1.460  -7.840  0.00  0.00    -0.020 C 
ATOM     32  C   UNL     1      -5.583  -0.990  -7.054  0.00  0.00    -0.016 C 
ATOM     33  C   UNL     1      -5.078   0.257  -7.811  0.00  0.00    -0.051 C 
ATOM     34  H   UNL     1      -4.959  -0.549  -9.816  0.00  0.00    -0.081 HD
BRANCH  29  36
ATOM     35  C   UNL     1      -5.932   1.149 -11.378  0.00  0.00    -0.017 C 
ATOM     36  C   UNL     1      -5.640   1.385  -9.895  0.00  0.00    -0.082 C 
ENDBRANCH  29  36
ENDBRANCH  28  33
ENDBRANCH  24  28
ENDBRANCH   1  25
TORSDOF 7
