REMARK  Name = ZINC01214237
REMARK  5 active torsions:
REMARK  status: ('A' for Active; 'I' for Inactive)
REMARK    1  A    between atoms: C_1  and  C_2
REMARK    2  A    between atoms: C_5  and  C_8
REMARK    3  A    between atoms: C_11  and  C_30
REMARK    4  A    between atoms: C_16  and  C_18
REMARK    5  A    between atoms: N_20  and  C_21
REMARK                            x       y       z     vdW  Elec       q    Type
REMARK                         _______ _______ _______ _____ _____    ______ ____
ROOT
ATOM      1  C   UNL     1       0.028  -4.293  -0.065  0.00  0.00    +0.104 C 
ATOM      2  C   UNL     1       1.458  -4.784   0.183  0.00  0.00    +0.063 C 
ATOM      3  C   UNL     1       1.503  -6.315   0.117  0.00  0.00    +0.215 C 
ATOM      4  N   UNL     1       0.443  -6.858   0.971  0.00  0.00    -0.238 N 
ATOM      5  C   UNL     1      -0.641  -6.136   1.384  0.00  0.00    +0.119 A 
ATOM      6  C   UNL     1      -1.409  -6.934   2.153  0.00  0.00    +0.078 A 
ATOM      7  C   UNL     1      -0.778  -8.198   2.218  0.00  0.00    +0.149 A 
ATOM      8  N   UNL     1       0.333  -8.141   1.505  0.00  0.00    -0.164 NA
ATOM      9  N   UNL     1      -0.841  -4.802   1.014  0.00  0.00    -0.322 N 
ATOM     10  H   UNL     1      -1.508  -4.243   1.443  0.00  0.00    +0.148 HD
ENDROOT
BRANCH   1  15
ATOM     11  C   UNL     1      -0.070   1.485  -0.071  0.00  0.00    +0.044 C 
ATOM     12  C   UNL     1      -0.044  -0.022  -0.070  0.00  0.00    -0.050 A 
ATOM     13  C   UNL     1      -0.042  -0.715  -1.266  0.00  0.00    +0.004 A 
ATOM     14  C   UNL     1      -0.019  -2.097  -1.265  0.00  0.00    +0.006 A 
ATOM     15  C   UNL     1       0.003  -2.786  -0.067  0.00  0.00    -0.027 A 
ATOM     16  C   UNL     1       0.002  -2.094   1.129  0.00  0.00    +0.006 A 
ATOM     17  C   UNL     1      -0.017  -0.711   1.128  0.00  0.00    +0.004 A 
ENDBRANCH   1  15
BRANCH   7  18
ATOM     18  C   UNL     1      -1.276  -9.377   2.956  0.00  0.00    +0.268 C 
ATOM     19  O   UNL     1      -2.316  -9.309   3.581  0.00  0.00    -0.268 OA
ATOM     20  N   UNL     1      -0.575 -10.528   2.937  0.00  0.00    -0.278 N 
ATOM     21  H   UNL     1       0.220 -10.603   2.387  0.00  0.00    +0.155 HD
BRANCH  20  22
ATOM     22  C   UNL     1      -0.996 -11.617   3.711  0.00  0.00    +0.069 A 
ATOM     23  C   UNL     1      -2.351 -11.849   3.906  0.00  0.00    +0.029 A 
ATOM     24  C   UNL     1      -2.764 -12.924   4.670  0.00  0.00    +0.040 A 
ATOM     25  C   UNL     1      -1.829 -13.770   5.241  0.00  0.00    +0.126 A 
ATOM     26  C   UNL     1      -0.477 -13.541   5.050  0.00  0.00    +0.078 A 
ATOM     27  C   UNL     1      -0.058 -12.470   4.281  0.00  0.00    +0.147 A 
ATOM     28  F   UNL     1       1.261 -12.250   4.089  0.00  0.00    -0.203 F 
ATOM     29  F   UNL     1      -2.236 -14.820   5.987  0.00  0.00    -0.205 F 
ENDBRANCH  20  22
ENDBRANCH   7  18
BRANCH   3  30
ATOM     30  C   UNL     1       2.865  -6.809   0.610  0.00  0.00    +0.412 C 
ATOM     31  F   UNL     1       3.061  -6.394   1.932  0.00  0.00    -0.168 F 
ATOM     32  F   UNL     1       2.904  -8.206   0.550  0.00  0.00    -0.168 F 
ATOM     33  F   UNL     1       3.875  -6.279  -0.200  0.00  0.00    -0.168 F 
ENDBRANCH   3  30
TORSDOF 4
