REMARK  Name = ZINC02374181
REMARK  9 active torsions:
REMARK  status: ('A' for Active; 'I' for Inactive)
REMARK    1  A    between atoms: C_1  and  C_2
REMARK    2  A    between atoms: C_2  and  N_3
REMARK    3  A    between atoms: C_7  and  C_27
REMARK    4  A    between atoms: C_8  and  C_26
REMARK    5  A    between atoms: C_12  and  S_13
REMARK    6  A    between atoms: S_13  and  C_14
REMARK    7  A    between atoms: C_14  and  C_15
REMARK    8  A    between atoms: N_17  and  C_18
REMARK    9  A    between atoms: C_23  and  C_24
REMARK                            x       y       z     vdW  Elec       q    Type
REMARK                         _______ _______ _______ _____ _____    ______ ____
ROOT
ATOM      1  N   UNL     1      -0.137   1.132   4.053  0.00  0.00    -0.288 N 
ATOM      2  C   UNL     1       0.624   0.598   5.026  0.00  0.00    +0.263 A 
ATOM      3  O   UNL     1       0.347   0.785   6.199  0.00  0.00    -0.267 OA
ATOM      4  C   UNL     1       1.761  -0.192   4.667  0.00  0.00    +0.075 A 
ATOM      5  C   UNL     1       2.721  -0.864   5.525  0.00  0.00    -0.026 A 
ATOM      6  C   UNL     1       3.724  -1.559   4.967  0.00  0.00    -0.008 A 
ATOM      7  S   UNL     1       3.445  -1.357   3.218  0.00  0.00    -0.073 S 
ATOM      8  C   UNL     1       1.989  -0.344   3.286  0.00  0.00    +0.117 A 
ATOM      9  N   UNL     1       1.196   0.207   2.376  0.00  0.00    -0.216 NA
ATOM     10  C   UNL     1       0.158   0.934   2.735  0.00  0.00    +0.173 A 
ATOM     11  C   UNL     1       4.823  -2.327   5.654  0.00  0.00    +0.052 C 
ATOM     12  C   UNL     1       2.592  -0.783   7.024  0.00  0.00    +0.045 C 
ENDROOT
BRANCH   1  14
ATOM     13  C   UNL     1      -2.533   1.041   4.535  0.00  0.00    +0.027 C 
ATOM     14  C   UNL     1      -1.303   1.942   4.415  0.00  0.00    +0.124 C 
ENDBRANCH   1  14
BRANCH  10  15
ATOM     15  S   UNL     1      -0.869   1.655   1.497  0.00  0.00    -0.078 S 
BRANCH  15  16
ATOM     16  C   UNL     1      -0.021   1.073   0.008  0.00  0.00    +0.173 C 
BRANCH  16  17
ATOM     17  C   UNL     1      -0.743   1.582  -1.213  0.00  0.00    +0.227 C 
ATOM     18  O   UNL     1      -1.734   2.271  -1.088  0.00  0.00    -0.275 OA
ATOM     19  N   UNL     1      -0.288   1.272  -2.443  0.00  0.00    -0.285 N 
ATOM     20  H   UNL     1       0.547   0.790  -2.544  0.00  0.00    +0.155 HD
BRANCH  19  21
ATOM     21  C   UNL     1      -1.022   1.647  -3.575  0.00  0.00    +0.036 A 
ATOM     22  C   UNL     1      -2.392   1.853  -3.479  0.00  0.00    +0.024 A 
ATOM     23  C   UNL     1      -3.113   2.222  -4.598  0.00  0.00    +0.017 A 
ATOM     24  C   UNL     1      -2.471   2.387  -5.813  0.00  0.00    +0.018 A 
ATOM     25  C   UNL     1      -1.107   2.182  -5.911  0.00  0.00    +0.020 A 
ATOM     26  C   UNL     1      -0.380   1.818  -4.794  0.00  0.00    -0.028 A 
ATOM     27  C   UNL     1       1.108   1.601  -4.900  0.00  0.00    +0.046 C 
ATOM     28 BR   UNL     1      -3.462   2.893  -7.342  0.00  0.00    -0.050 Br
ENDBRANCH  19  21
ENDBRANCH  16  17
ENDBRANCH  15  16
ENDBRANCH  10  15
TORSDOF 5
