REMARK  Name = ZINC38703373
REMARK  10 active torsions:
REMARK  status: ('A' for Active; 'I' for Inactive)
REMARK    1  A    between atoms: C_1  and  C_2
REMARK    2  A    between atoms: C_2  and  C_3
REMARK    3  A    between atoms: C_3  and  C_4
REMARK    4  A    between atoms: C_4  and  O_5
REMARK    5  A    between atoms: O_5  and  C_6
REMARK    6  A    between atoms: C_9  and  C_14
REMARK    7  A    between atoms: C_11  and  O_12
REMARK    8  A    between atoms: O_12  and  C_13
REMARK    9  A    between atoms: C_20  and  C_31
REMARK   10  A    between atoms: C_22  and  C_30
REMARK                            x       y       z     vdW  Elec       q    Type
REMARK                         _______ _______ _______ _____ _____    ______ ____
ROOT
ATOM      1  C   UNL     1      -3.411  -8.156  -0.009  0.00  0.00    +0.142 C 
ATOM      2  C   UNL     1      -3.210  -8.692  -1.388  0.00  0.00    +0.072 A 
ATOM      3  C   UNL     1      -3.934  -8.439  -2.638  0.00  0.00    +0.199 A 
ATOM      4  O   UNL     1      -4.768  -7.559  -2.760  0.00  0.00    -0.287 OA
ATOM      5  C   UNL     1      -3.553  -9.357  -3.741  0.00  0.00    +0.067 A 
ATOM      6  C   UNL     1      -4.286  -9.378  -4.928  0.00  0.00    -0.036 A 
ATOM      7  C   UNL     1      -3.926 -10.232  -5.932  0.00  0.00    +0.007 A 
ATOM      8  C   UNL     1      -2.836 -11.077  -5.774  0.00  0.00    -0.047 A 
ATOM      9  C   UNL     1      -2.100 -11.068  -4.611  0.00  0.00    +0.050 A 
ATOM     10  C   UNL     1      -2.446 -10.204  -3.572  0.00  0.00    +0.140 A 
ATOM     11  O   UNL     1      -1.703 -10.205  -2.441  0.00  0.00    -0.450 OA
ATOM     12  C   UNL     1      -2.150  -9.553  -1.350  0.00  0.00    +0.199 A 
ATOM     13  C   UNL     1      -1.646  -9.604   0.034  0.00  0.00    +0.281 C 
ATOM     14  O   UNL     1      -0.709 -10.280   0.408  0.00  0.00    -0.267 OA
ATOM     15  N   UNL     1      -2.377  -8.790   0.825  0.00  0.00    -0.298 N 
ATOM     16  C   UNL     1      -2.453 -12.015  -6.890  0.00  0.00    +0.044 C 
ATOM     17  C   UNL     1      -5.471  -8.463  -5.101  0.00  0.00    +0.044 C 
ATOM     18  H   UNL     1      -2.245  -8.648   1.776  0.00  0.00    +0.150 HD
ENDROOT
BRANCH   1  22
ATOM     19  C   UNL     1      -2.913  -3.909   0.009  0.00  0.00    +0.162 A 
ATOM     20  C   UNL     1      -1.804  -4.739  -0.000  0.00  0.00    +0.050 A 
ATOM     21  C   UNL     1      -1.968  -6.112  -0.006  0.00  0.00    +0.009 A 
ATOM     22  C   UNL     1      -3.238  -6.659  -0.002  0.00  0.00    -0.019 A 
ATOM     23  C   UNL     1      -4.348  -5.836   0.006  0.00  0.00    +0.055 A 
ATOM     24  C   UNL     1      -4.191  -4.460   0.018  0.00  0.00    +0.162 A 
BRANCH  24  25
ATOM     25  O   UNL     1      -5.282  -3.649   0.033  0.00  0.00    -0.491 OA
ATOM     26  C   UNL     1      -6.562  -4.284   0.042  0.00  0.00    +0.277 C 
ENDBRANCH  24  25
BRANCH  19  27
ATOM     27  O   UNL     1      -2.753  -2.558   0.015  0.00  0.00    -0.488 OA
BRANCH  27  28
ATOM     28  C   UNL     1      -1.413  -2.063   0.004  0.00  0.00    +0.229 C 
BRANCH  28  29
ATOM     29  C   UNL     1      -1.433  -0.534   0.013  0.00  0.00    +0.041 C 
BRANCH  29  31
ATOM     30  C   UNL     1      -0.019   1.526   0.010  0.00  0.00    +0.004 C 
ATOM     31  C   UNL     1       0.002  -0.004   0.002  0.00  0.00    -0.000 C 
ENDBRANCH  29  31
ENDBRANCH  28  29
ENDBRANCH  27  28
ENDBRANCH  19  27
ENDBRANCH   1  22
TORSDOF 6
