REMARK  Name = ZINC37763779
REMARK  5 active torsions:
REMARK  status: ('A' for Active; 'I' for Inactive)
REMARK    1  A    between atoms: C_1  and  C_2
REMARK    2  A    between atoms: C_2  and  C_3
REMARK    3  A    between atoms: C_7  and  C_20
REMARK    4  A    between atoms: C_8  and  N_9
REMARK    5  A    between atoms: N_9  and  C_10
REMARK                            x       y       z     vdW  Elec       q    Type
REMARK                         _______ _______ _______ _____ _____    ______ ____
ROOT
ATOM      1  N   UNL     1       2.872   0.638  -1.498  0.00  0.00    -0.341 N 
ATOM      2  H   UNL     1       2.603   1.257  -2.195  0.00  0.00    +0.146 HD
ENDROOT
BRANCH   1   3
ATOM      3  C   UNL     1       4.116   0.864  -0.757  0.00  0.00    +0.071 C 
ATOM      4  C   UNL     1       3.852   0.704   0.741  0.00  0.00    +0.027 C 
ATOM      5  C   UNL     1       5.152   0.936   1.515  0.00  0.00    +0.067 C 
ATOM      6  C   UNL     1       5.668   2.348   1.231  0.00  0.00    +0.170 C 
ATOM      7  C   UNL     1       5.928   2.513  -0.268  0.00  0.00    +0.067 C 
ATOM      8  C   UNL     1       4.627   2.278  -1.039  0.00  0.00    +0.027 C 
ATOM      9  O   UNL     1       4.687   3.309   1.654  0.00  0.00    -0.346 OA
ATOM     10  C   UNL     1       5.100   3.696   2.986  0.00  0.00    +0.191 C 
ATOM     11  C   UNL     1       6.644   3.677   2.855  0.00  0.00    +0.191 C 
ATOM     12  O   UNL     1       6.881   2.573   1.958  0.00  0.00    -0.346 OA
ENDBRANCH   1   3
BRANCH   1  18
ATOM     13  C   UNL     1       0.709  -0.309  -0.999  0.00  0.00    -0.027 A 
ATOM     14  C   UNL     1      -0.078  -1.407  -0.712  0.00  0.00    +0.005 A 
ATOM     15  C   UNL     1       0.492  -2.664  -0.620  0.00  0.00    +0.001 A 
ATOM     16  C   UNL     1       1.851  -2.826  -0.815  0.00  0.00    +0.005 A 
ATOM     17  C   UNL     1       2.644  -1.733  -1.103  0.00  0.00    -0.029 A 
ATOM     18  C   UNL     1       2.074  -0.470  -1.202  0.00  0.00    +0.033 A 
ATOM     19  C   UNL     1       4.126  -1.910  -1.316  0.00  0.00    +0.045 C 
BRANCH  13  21
ATOM     20  C   UNL     1      -0.243   1.365  -2.561  0.00  0.00    +0.009 C 
ATOM     21  C   UNL     1       0.087   1.060  -1.098  0.00  0.00    +0.033 C 
ENDBRANCH  13  21
ENDBRANCH   1  18
TORSDOF 3
