REMARK  Name = ZINC23192420
REMARK  5 active torsions:
REMARK  status: ('A' for Active; 'I' for Inactive)
REMARK    1  A    between atoms: C_1  and  N_2
REMARK    2  A    between atoms: N_5  and  C_8
REMARK    3  A    between atoms: C_11  and  N_14
REMARK    4  A    between atoms: C_17  and  N_20
REMARK    5  A    between atoms: N_20  and  C_21
REMARK                            x       y       z     vdW  Elec       q    Type
REMARK                         _______ _______ _______ _____ _____    ______ ____
ROOT
ATOM      1  N   UNL     1       6.590  -0.443  -3.293  0.00  0.00    -0.330 N 
ATOM      2  C   UNL     1       6.494   1.022  -3.276  0.00  0.00    +0.103 C 
ATOM      3  C   UNL     1       5.745   1.471  -2.019  0.00  0.00    +0.003 C 
ATOM      4  C   UNL     1       4.346   0.849  -2.015  0.00  0.00    -0.069 C 
ATOM      5  C   UNL     1       4.472  -0.675  -2.084  0.00  0.00    +0.003 C 
ATOM      6  C   UNL     1       5.259  -1.062  -3.338  0.00  0.00    +0.103 C 
ENDROOT
BRANCH   1  10
ATOM      7  C   UNL     1       8.951  -1.748  -6.471  0.00  0.00    +0.038 A 
ATOM      8  C   UNL     1       8.381  -2.671  -5.605  0.00  0.00    +0.025 A 
ATOM      9  C   UNL     1       7.599  -2.239  -4.552  0.00  0.00    +0.025 A 
ATOM     10  C   UNL     1       7.383  -0.881  -4.359  0.00  0.00    +0.030 A 
ATOM     11  C   UNL     1       7.949   0.043  -5.229  0.00  0.00    +0.025 A 
ATOM     12  C   UNL     1       8.736  -0.390  -6.278  0.00  0.00    +0.025 A 
BRANCH   7  17
ATOM     13  C   UNL     1      11.415  -4.890  -9.332  0.00  0.00    +0.133 C 
ATOM     14  N   UNL     1      10.874  -3.615  -8.854  0.00  0.00    -0.287 N 
ATOM     15  C   UNL     1      11.081  -2.308  -9.495  0.00  0.00    +0.128 C 
ATOM     16  C   UNL     1      10.301  -1.328  -8.597  0.00  0.00    +0.134 C 
ATOM     17  N   UNL     1       9.745  -2.186  -7.540  0.00  0.00    -0.254 N 
ATOM     18  C   UNL     1      10.114  -3.455  -7.763  0.00  0.00    +0.309 C 
ATOM     19  O   UNL     1       9.786  -4.377  -7.042  0.00  0.00    -0.252 OA
ENDBRANCH   7  17
ENDBRANCH   1  10
BRANCH   4  20
ATOM     20  N   UNL     1       3.642   1.229  -0.783  0.00  0.00    +0.383 N 
ATOM     21  H   UNL     1       3.915   0.533   0.024  0.00  0.00    -0.085 HD
ATOM     22  H   UNL     1       3.929   2.252  -0.497  0.00  0.00    -0.085 HD
BRANCH  20  23
ATOM     23  C   UNL     1       2.186   1.183  -0.972  0.00  0.00    -0.061 C 
ATOM     24  C   UNL     1       1.514   2.170  -0.002  0.00  0.00    -0.004 C 
ATOM     25  C   UNL     1      -0.014   1.879   0.002  0.00  0.00    +0.067 C 
ATOM     26  S   UNL     1      -0.007   0.037  -0.021  0.00  0.00    -0.162 S 
ATOM     27  C   UNL     1       1.678  -0.253  -0.701  0.00  0.00    +0.053 C 
ENDBRANCH  20  23
ENDBRANCH   4  20
TORSDOF 4
