REMARK  Name = ZINC14780089
REMARK  4 active torsions:
REMARK  status: ('A' for Active; 'I' for Inactive)
REMARK    1  A    between atoms: C_4  and  O_26
REMARK    2  A    between atoms: C_5  and  N_7
REMARK    3  A    between atoms: C_8  and  C_10
REMARK    4  A    between atoms: N_13  and  C_15
REMARK                            x       y       z     vdW  Elec       q    Type
REMARK                         _______ _______ _______ _____ _____    ______ ____
ROOT
ATOM      1  C   UNL     1      -3.620   1.424   2.385  0.00  0.00    +0.151 A 
ATOM      2  C   UNL     1      -2.802   1.909   1.350  0.00  0.00    +0.006 A 
ATOM      3  C   UNL     1      -3.400   1.531   0.193  0.00  0.00    +0.049 A 
ATOM      4  N   UNL     1      -4.520   0.852   0.527  0.00  0.00    -0.236 N 
ATOM      5  N   UNL     1      -4.634   0.799   1.810  0.00  0.00    -0.161 NA
ATOM      6  C   UNL     1      -2.857   1.847  -1.176  0.00  0.00    +0.056 C 
ATOM      7  C   UNL     1      -1.821   2.970  -1.037  0.00  0.00    +0.006 C 
ATOM      8  C   UNL     1      -0.822   2.614   0.067  0.00  0.00    +0.005 C 
ATOM      9  C   UNL     1      -1.518   2.688   1.432  0.00  0.00    +0.039 C 
ENDROOT
BRANCH   4  10
ATOM     10  C   UNL     1      -5.422   0.289  -0.386  0.00  0.00    +0.066 A 
ATOM     11  C   UNL     1      -6.789   0.397  -0.168  0.00  0.00    +0.030 A 
ATOM     12  C   UNL     1      -7.677  -0.154  -1.071  0.00  0.00    +0.040 A 
ATOM     13  C   UNL     1      -7.204  -0.823  -2.188  0.00  0.00    +0.124 A 
ATOM     14  C   UNL     1      -5.841  -0.936  -2.404  0.00  0.00    +0.040 A 
ATOM     15  C   UNL     1      -4.950  -0.382  -1.506  0.00  0.00    +0.030 A 
ATOM     16  F   UNL     1      -8.074  -1.366  -3.067  0.00  0.00    -0.205 F 
ENDBRANCH   4  10
BRANCH   1  18
ATOM     17  N   UNL     1      -4.268   1.061   4.716  0.00  0.00    -0.277 N 
ATOM     18  C   UNL     1      -3.392   1.582   3.835  0.00  0.00    +0.269 C 
ATOM     19  O   UNL     1      -2.413   2.183   4.234  0.00  0.00    -0.268 OA
ATOM     20  H   UNL     1      -5.003   0.511   4.401  0.00  0.00    +0.155 HD
BRANCH  17  25
ATOM     21  C   UNL     1      -3.204   2.631   7.868  0.00  0.00    +0.002 A 
ATOM     22  C   UNL     1      -3.819   1.809   8.794  0.00  0.00    +0.004 A 
ATOM     23  C   UNL     1      -4.585   0.737   8.373  0.00  0.00    +0.047 A 
ATOM     24  C   UNL     1      -4.737   0.484   7.019  0.00  0.00    +0.138 A 
ATOM     25  C   UNL     1      -4.118   1.312   6.085  0.00  0.00    +0.076 A 
ATOM     26  C   UNL     1      -3.347   2.382   6.516  0.00  0.00    +0.027 A 
BRANCH  24  27
ATOM     27  O   UNL     1      -5.489  -0.570   6.604  0.00  0.00    -0.505 OA
ATOM     28  H   UNL     1      -4.990  -1.392   6.500  0.00  0.00    +0.292 HD
ENDBRANCH  24  27
ENDBRANCH  17  25
ENDBRANCH   1  18
TORSDOF 4
