REMARK  Name = ZINC61949920
REMARK  8 active torsions:
REMARK  status: ('A' for Active; 'I' for Inactive)
REMARK    1  A    between atoms: C_1  and  C_2
REMARK    2  A    between atoms: C_2  and  C_4
REMARK    3  A    between atoms: C_2  and  N_22
REMARK    4  A    between atoms: C_4  and  C_6
REMARK    5  A    between atoms: C_4  and  N_12
REMARK    6  A    between atoms: N_12  and  C_13
REMARK    7  A    between atoms: N_12  and  C_14
REMARK    8  A    between atoms: C_17  and  C_20
REMARK                            x       y       z     vdW  Elec       q    Type
REMARK                         _______ _______ _______ _____ _____    ______ ____
ROOT
ATOM      1  C   UNL     1       0.746  -0.525   1.249  0.00  0.00    +0.095 C 
ENDROOT
BRANCH   1   2
ATOM      2  C   UNL     1       0.756  -2.032   1.253  0.00  0.00    +0.010 A 
ATOM      3  C   UNL     1       1.752  -2.880   0.897  0.00  0.00    +0.014 A 
ATOM      4  C   UNL     1       1.535  -4.243   0.982  0.00  0.00    +0.023 A 
ATOM      5  C   UNL     1       0.332  -4.691   1.420  0.00  0.00    +0.055 A 
ATOM      6  S   UNL     1      -0.538  -3.164   1.736  0.00  0.00    -0.085 S 
ATOM      7 BR   UNL     1      -0.266  -6.470   1.645  0.00  0.00    -0.043 Br
ENDBRANCH   1   2
BRANCH   1   9
ATOM      8  C   UNL     1       0.006   1.507  -0.002  0.00  0.00    -0.012 C 
ATOM      9  C   UNL     1       0.017  -0.023   0.002  0.00  0.00    -0.053 C 
BRANCH   9  10
ATOM     10  N   UNL     1       0.708  -0.511  -1.199  0.00  0.00    +0.381 N 
ATOM     11  H   UNL     1       1.657  -0.169  -1.204  0.00  0.00    -0.090 HD
ATOM     12  H   UNL     1       0.715  -1.520  -1.197  0.00  0.00    -0.090 HD
ATOM     13  H   UNL     1       0.227  -0.180  -2.022  0.00  0.00    -0.090 HD
ENDBRANCH   9  10
ENDBRANCH   1   9
BRANCH   1  14
ATOM     14  N   UNL     1       0.056  -0.038   2.447  0.00  0.00    -0.327 N 
ATOM     15  C   UNL     1      -1.373  -0.306   2.629  0.00  0.00    +0.130 C 
BRANCH  14  16
ATOM     16  C   UNL     1       0.759   0.678   3.412  0.00  0.00    +0.030 A 
ATOM     17  C   UNL     1       2.083   1.040   3.180  0.00  0.00    +0.024 A 
ATOM     18  C   UNL     1       2.780   1.749   4.132  0.00  0.00    +0.020 A 
ATOM     19  C   UNL     1       2.157   2.105   5.332  0.00  0.00    +0.052 A 
ATOM     20  C   UNL     1       0.827   1.740   5.561  0.00  0.00    +0.020 A 
ATOM     21  C   UNL     1       0.134   1.036   4.602  0.00  0.00    +0.024 A 
BRANCH  19  22
ATOM     22  C   UNL     1       2.880   2.842   6.325  0.00  0.00    +0.099 C 
ATOM     23  N   UNL     1       3.454   3.426   7.112  0.00  0.00    -0.191 NA
ENDBRANCH  19  22
ENDBRANCH  14  16
ENDBRANCH   1  14
TORSDOF 6
