REMARK  Name = ZINC43043984
REMARK  8 active torsions:
REMARK  status: ('A' for Active; 'I' for Inactive)
REMARK    1  A    between atoms: C_1  and  C_2
REMARK    2  A    between atoms: C_8  and  N_10
REMARK    3  A    between atoms: N_13  and  C_14
REMARK    4  A    between atoms: C_20  and  O_22
REMARK    5  A    between atoms: O_22  and  C_23
REMARK    6  A    between atoms: C_23  and  C_24
REMARK    7  A    between atoms: C_23  and  C_25
REMARK    8  A    between atoms: C_23  and  C_26
REMARK                            x       y       z     vdW  Elec       q    Type
REMARK                         _______ _______ _______ _____ _____    ______ ____
ROOT
ATOM      1  N   UNL     1       2.116  -0.004   1.231  0.00  0.00    -0.296 N 
ATOM      2  C   UNL     1       2.795   0.128   2.388  0.00  0.00    +0.300 C 
ATOM      3  O   UNL     1       2.266  -0.174   3.441  0.00  0.00    -0.253 OA
ATOM      4  N   UNL     1       4.059   0.594   2.379  0.00  0.00    -0.296 N 
ATOM      5  H   UNL     1       2.538   0.237   0.392  0.00  0.00    +0.151 HD
ATOM      6  H   UNL     1       4.481   0.835   1.539  0.00  0.00    +0.151 HD
ENDROOT
BRANCH   4   7
ATOM      7  C   UNL     1       4.797   0.737   3.636  0.00  0.00    +0.077 C 
ATOM      8  C   UNL     1       5.447  -0.599   4.001  0.00  0.00    +0.041 C 
ATOM      9  C   UNL     1       6.188  -0.455   5.334  0.00  0.00    +0.113 C 
ATOM     10  N   UNL     1       7.132   0.666   5.231  0.00  0.00    -0.267 N 
ATOM     11  C   UNL     1       6.627   1.977   4.800  0.00  0.00    +0.113 C 
ATOM     12  C   UNL     1       5.880   1.806   3.473  0.00  0.00    +0.041 C 
ATOM     13  C   UNL     1       8.435   0.496   5.528  0.00  0.00    +0.403 C 
ATOM     14  O   UNL     1       8.841  -0.593   5.884  0.00  0.00    -0.226 OA
BRANCH  13  15
ATOM     15  O   UNL     1       9.289   1.533   5.430  0.00  0.00    -0.445 OA
BRANCH  15  16
ATOM     16  C   UNL     1      10.656   1.281   5.759  0.00  0.00    +0.107 C 
ATOM     17  C   UNL     1      11.214   0.200   4.831  0.00  0.00    +0.055 C 
ATOM     18  C   UNL     1      11.467   2.567   5.589  0.00  0.00    +0.055 C 
ATOM     19  C   UNL     1      10.752   0.806   7.210  0.00  0.00    +0.055 C 
ENDBRANCH  15  16
ENDBRANCH  13  15
ENDBRANCH   4   7
BRANCH   1  26
ATOM     20  C   UNL     1      -0.019   1.526   0.010  0.00  0.00    +0.009 C 
ATOM     21  C   UNL     1       0.002  -0.004   0.002  0.00  0.00    +0.006 C 
ATOM     22  C   UNL     1      -1.433  -0.534   0.013  0.00  0.00    +0.005 C 
ATOM     23  C   UNL     1      -1.413  -2.063   0.004  0.00  0.00    +0.000 C 
ATOM     24  C   UNL     1      -0.673  -2.570   1.244  0.00  0.00    +0.002 C 
ATOM     25  C   UNL     1       0.763  -2.041   1.233  0.00  0.00    +0.022 C 
ATOM     26  C   UNL     1       0.742  -0.511   1.242  0.00  0.00    +0.077 C 
ENDBRANCH   1  26
TORSDOF 4
