REMARK  Name = ZINC04400202
REMARK  8 active torsions:
REMARK  status: ('A' for Active; 'I' for Inactive)
REMARK    1  A    between atoms: C_1  and  C_2
REMARK    2  A    between atoms: C_6  and  C_13
REMARK    3  A    between atoms: C_13  and  O_14
REMARK    4  A    between atoms: O_14  and  C_15
REMARK    5  A    between atoms: C_15  and  C_17
REMARK    6  A    between atoms: C_22  and  N_23
REMARK    7  A    between atoms: N_23  and  C_24
REMARK    8  A    between atoms: C_24  and  C_25
REMARK                            x       y       z     vdW  Elec       q    Type
REMARK                         _______ _______ _______ _____ _____    ______ ____
ROOT
ATOM      1  C   UNL     1      -0.015   1.468   0.037  0.00  0.00    +0.341 C 
ATOM      2  O   UNL     1      -1.075   2.063   0.038  0.00  0.00    -0.245 OA
ENDROOT
BRANCH   1   3
ATOM      3  C   UNL     1       0.003  -0.004   0.015  0.00  0.00    +0.080 A 
ATOM      4  C   UNL     1       1.215  -0.691  -0.112  0.00  0.00    +0.017 A 
ATOM      5  C   UNL     1       1.226  -2.068  -0.126  0.00  0.00    +0.001 A 
ATOM      6  C   UNL     1       0.040  -2.779  -0.027  0.00  0.00    +0.002 A 
ATOM      7  C   UNL     1      -1.164  -2.117   0.093  0.00  0.00    +0.024 A 
ATOM      8  C   UNL     1      -1.196  -0.728   0.115  0.00  0.00    +0.042 A 
BRANCH   8   9
ATOM      9  N   UNL     1      -2.406  -0.059   0.236  0.00  0.00    -0.336 N 
ATOM     10  H   UNL     1      -2.435   0.909   0.169  0.00  0.00    +0.147 HD
BRANCH   9  11
ATOM     11  C   UNL     1      -3.641  -0.814   0.463  0.00  0.00    +0.176 C 
BRANCH  11  12
ATOM     12  C   UNL     1      -4.804   0.141   0.556  0.00  0.00    +0.122 A 
ATOM     13  C   UNL     1      -5.561   0.560  -0.473  0.00  0.00    +0.046 A 
ATOM     14  C   UNL     1      -6.529   1.440   0.063  0.00  0.00    +0.041 A 
ATOM     15  C   UNL     1      -6.306   1.505   1.387  0.00  0.00    +0.195 A 
ATOM     16  O   UNL     1      -5.263   0.712   1.681  0.00  0.00    -0.466 OA
ENDBRANCH  11  12
ENDBRANCH   9  11
ENDBRANCH   8   9
ENDBRANCH   1   3
BRANCH   1  17
ATOM     17  O   UNL     1       1.143   2.157   0.050  0.00  0.00    -0.456 OA
BRANCH  17  18
ATOM     18  C   UNL     1       1.049   3.606   0.071  0.00  0.00    +0.269 C 
BRANCH  18  24
ATOM     19  C   UNL     1       3.262   9.875   0.172  0.00  0.00    +0.044 C 
ATOM     20  C   UNL     1       3.047   8.384   0.149  0.00  0.00    -0.047 A 
ATOM     21  C   UNL     1       1.755   7.877   0.137  0.00  0.00    +0.004 A 
ATOM     22  C   UNL     1       1.540   6.527   0.116  0.00  0.00    +0.012 A 
ATOM     23  C   UNL     1       2.631   5.652   0.099  0.00  0.00    +0.024 A 
ATOM     24  C   UNL     1       2.434   4.199   0.083  0.00  0.00    +0.007 A 
ATOM     25  C   UNL     1       3.533   3.404   0.074  0.00  0.00    +0.099 A 
ATOM     26  C   UNL     1       4.820   3.985   0.086  0.00  0.00    +0.338 A 
ATOM     27  O   UNL     1       5.798   3.260   0.077  0.00  0.00    -0.245 OA
ATOM     28  O   UNL     1       4.992   5.316   0.106  0.00  0.00    -0.422 OA
ATOM     29  C   UNL     1       3.941   6.162   0.117  0.00  0.00    +0.140 A 
ATOM     30  C   UNL     1       4.135   7.537   0.138  0.00  0.00    +0.050 A 
ENDBRANCH  18  24
ENDBRANCH  17  18
ENDBRANCH   1  17
TORSDOF 7
