REMARK  Name = ZINC33734644
REMARK  9 active torsions:
REMARK  status: ('A' for Active; 'I' for Inactive)
REMARK    1  A    between atoms: C_1  and  C_2
REMARK    2  A    between atoms: C_2  and  C_3
REMARK    3  A    between atoms: C_3  and  C_5
REMARK    4  A    between atoms: C_3  and  C_11
REMARK    5  A    between atoms: N_13  and  C_14
REMARK    6  A    between atoms: C_18  and  C_20
REMARK    7  A    between atoms: C_22  and  C_32
REMARK    8  A    between atoms: C_23  and  C_31
REMARK    9  A    between atoms: N_34  and  C_35
REMARK                            x       y       z     vdW  Elec       q    Type
REMARK                         _______ _______ _______ _____ _____    ______ ____
ROOT
ATOM      1  C   UNL     1       3.302   1.266   0.177  0.00  0.00    +0.143 C 
ATOM      2  C   UNL     1       1.843   1.554  -0.086  0.00  0.00    +0.058 C 
ATOM      3  C   UNL     1       1.439   2.844  -0.257  0.00  0.00    +0.025 C 
ATOM      4  N   UNL     1       2.322   3.842  -0.235  0.00  0.00    -0.341 N 
ATOM      5  C   UNL     1       3.619   3.616  -0.334  0.00  0.00    +0.135 C 
ATOM      6  N   UNL     1       4.096   2.341  -0.464  0.00  0.00    -0.300 N 
ATOM      7  C   UNL     1       5.307   1.988  -1.175  0.00  0.00    +0.109 C 
ATOM      8  C   UNL     1       6.422   3.007  -1.105  0.00  0.00    +0.030 C 
ATOM      9  C   UNL     1       5.943   4.401  -1.504  0.00  0.00    +0.078 C 
ATOM     10  S   UNL     1       4.751   4.970  -0.260  0.00  0.00    -0.092 S 
ATOM     11  C   UNL     1      -0.022   3.146  -0.474  0.00  0.00    +0.064 C 
ATOM     12  H   UNL     1       1.950   4.872  -0.132  0.00  0.00    +0.167 HD
ENDROOT
BRANCH   1  17
ATOM     13  C   UNL     1       3.884   0.035   3.703  0.00  0.00    +0.034 A 
ATOM     14  C   UNL     1       4.035   1.232   4.390  0.00  0.00    +0.023 A 
ATOM     15  C   UNL     1       3.948   2.432   3.711  0.00  0.00    +0.002 A 
ATOM     16  C   UNL     1       3.717   2.441   2.347  0.00  0.00    +0.006 A 
ATOM     17  C   UNL     1       3.560   1.251   1.661  0.00  0.00    -0.021 A 
ATOM     18  C   UNL     1       3.646   0.048   2.335  0.00  0.00    +0.029 A 
BRANCH  13  21
ATOM     19  C   UNL     1       4.844  -1.323   5.404  0.00  0.00    +0.225 C 
ATOM     20  O   UNL     1       5.495  -0.371   5.780  0.00  0.00    -0.275 OA
ATOM     21  N   UNL     1       3.970  -1.182   4.388  0.00  0.00    -0.285 N 
ATOM     22  H   UNL     1       3.326  -2.025   4.096  0.00  0.00    +0.155 HD
BRANCH  19  23
ATOM     23  C   UNL     1       5.012  -2.662   6.074  0.00  0.00    +0.105 C 
BRANCH  23  24
ATOM     24  C   UNL     1       6.040  -2.550   7.170  0.00  0.00    -0.036 A 
ATOM     25  C   UNL     1       7.334  -2.168   6.868  0.00  0.00    +0.004 A 
ATOM     26  C   UNL     1       8.276  -2.061   7.874  0.00  0.00    +0.000 A 
ATOM     27  C   UNL     1       7.926  -2.345   9.181  0.00  0.00    +0.000 A 
ATOM     28  C   UNL     1       6.634  -2.732   9.483  0.00  0.00    +0.000 A 
ATOM     29  C   UNL     1       5.691  -2.834   8.477  0.00  0.00    +0.004 A 
ENDBRANCH  23  24
BRANCH  23  31
ATOM     30  C   UNL     1       5.527  -5.077   5.694  0.00  0.00    +0.005 C 
ATOM     31  C   UNL     1       5.476  -3.693   5.043  0.00  0.00    +0.014 C 
ENDBRANCH  23  31
ENDBRANCH  19  23
ENDBRANCH  13  21
ENDBRANCH   1  17
BRANCH   2  32
ATOM     32  C   UNL     1       0.910   0.502  -0.147  0.00  0.00    +0.248 C 
ATOM     33  O   UNL     1      -0.248   0.732  -0.449  0.00  0.00    -0.270 OA
ATOM     34  N   UNL     1       1.298  -0.760   0.123  0.00  0.00    -0.282 N 
ATOM     35  H   UNL     1       2.360  -0.980   0.309  0.00  0.00    +0.155 HD
BRANCH  34  36
ATOM     36  C   UNL     1       0.352  -1.788   0.166  0.00  0.00    +0.034 A 
ATOM     37  C   UNL     1       0.699  -3.071  -0.240  0.00  0.00    +0.023 A 
ATOM     38  C   UNL     1      -0.236  -4.086  -0.191  0.00  0.00    +0.002 A 
ATOM     39  C   UNL     1      -1.520  -3.824   0.251  0.00  0.00    +0.000 A 
ATOM     40  C   UNL     1      -1.870  -2.547   0.651  0.00  0.00    +0.002 A 
ATOM     41  C   UNL     1      -0.938  -1.529   0.610  0.00  0.00    +0.023 A 
ENDBRANCH  34  36
ENDBRANCH   2  32
TORSDOF 7
