REMARK  Name = ZINC09505225
REMARK  4 active torsions:
REMARK  status: ('A' for Active; 'I' for Inactive)
REMARK    1  A    between atoms: C_6  and  C_7
REMARK    2  A    between atoms: C_13  and  C_15
REMARK    3  A    between atoms: N_18  and  S_21
REMARK    4  A    between atoms: S_21  and  C_24
REMARK                            x       y       z     vdW  Elec       q    Type
REMARK                         _______ _______ _______ _____ _____    ______ ____
ROOT
ATOM      1  C   UNL     1       6.891  -0.709   4.626  0.00  0.00    +0.250 A 
ATOM      2  N   UNL     1       5.871  -1.432   5.022  0.00  0.00    -0.106 NA
ATOM      3  N   UNL     1       4.873  -1.228   4.237  0.00  0.00    -0.092 NA
ATOM      4  C   UNL     1       5.218  -0.374   3.304  0.00  0.00    +0.314 A 
ATOM      5  O   UNL     1       6.498  -0.024   3.530  0.00  0.00    -0.405 OA
ATOM      6  N   UNL     1       4.411   0.089   2.277  0.00  0.00    -0.238 N 
ATOM      7  C   UNL     1       3.140  -0.347   2.169  0.00  0.00    +0.224 C 
ATOM      8  O   UNL     1       2.703  -1.145   2.971  0.00  0.00    -0.275 OA
ATOM      9  H   UNL     1       4.760   0.728   1.636  0.00  0.00    +0.159 HD
ENDROOT
BRANCH   1  15
ATOM     10  C   UNL     1       9.222   0.162   4.726  0.00  0.00    +0.016 A 
ATOM     11  C   UNL     1      10.463   0.213   5.325  0.00  0.00    +0.039 A 
ATOM     12  C   UNL     1      10.722  -0.550   6.453  0.00  0.00    +0.123 A 
ATOM     13  C   UNL     1       9.736  -1.365   6.987  0.00  0.00    +0.039 A 
ATOM     14  C   UNL     1       8.491  -1.420   6.398  0.00  0.00    +0.016 A 
ATOM     15  C   UNL     1       8.224  -0.653   5.262  0.00  0.00    +0.039 A 
ATOM     16  F   UNL     1      11.941  -0.500   7.033  0.00  0.00    -0.205 F 
ENDBRANCH   1  15
BRANCH   7  17
ATOM     17  C   UNL     1       2.263   0.156   1.052  0.00  0.00    +0.078 C 
ATOM     18  C   UNL     1       0.880  -0.492   1.159  0.00  0.00    +0.030 C 
ATOM     19  C   UNL     1       0.002  -0.004   0.002  0.00  0.00    +0.110 C 
ATOM     20  N   UNL     1      -0.018   1.465   0.010  0.00  0.00    -0.176 NA
ATOM     21  C   UNL     1       1.261   2.189   0.002  0.00  0.00    +0.110 C 
ATOM     22  C   UNL     1       2.125   1.677   1.158  0.00  0.00    +0.030 C 
BRANCH  20  23
ATOM     23  S   UNL     1      -1.454   2.289   0.021  0.00  0.00    +0.067 S 
ATOM     24  O   UNL     1      -1.189   3.575  -0.524  0.00  0.00    -0.152 OA
ATOM     25  O   UNL     1      -2.429   1.414  -0.530  0.00  0.00    -0.152 OA
BRANCH  23  26
ATOM     26  C   UNL     1      -1.898   2.539   1.708  0.00  0.00    +0.144 A 
ATOM     27  C   UNL     1      -1.589   3.574   2.527  0.00  0.00    +0.038 A 
ATOM     28  C   UNL     1      -2.052   3.559   3.830  0.00  0.00    +0.030 A 
ATOM     29  C   UNL     1      -2.802   2.509   4.249  0.00  0.00    +0.080 A 
ATOM     30  S   UNL     1      -2.878   1.500   2.779  0.00  0.00    -0.057 S 
ATOM     31 CL   UNL     1      -3.510   2.225   5.808  0.00  0.00    -0.076 Cl
ENDBRANCH  23  26
ENDBRANCH  20  23
ENDBRANCH   7  17
TORSDOF 4
