REMARK  Name = ZINC41606836
REMARK  7 active torsions:
REMARK  status: ('A' for Active; 'I' for Inactive)
REMARK    1  A    between atoms: C_1  and  C_2
REMARK    2  A    between atoms: C_2  and  C_3
REMARK    3  A    between atoms: C_6  and  N_9
REMARK    4  A    between atoms: C_10  and  C_12
REMARK    5  A    between atoms: C_12  and  C_14
REMARK    6  A    between atoms: C_12  and  S_15
REMARK    7  A    between atoms: S_15  and  C_16
REMARK                            x       y       z     vdW  Elec       q    Type
REMARK                         _______ _______ _______ _____ _____    ______ ____
ROOT
ATOM      1  C   UNL     1       2.836  -2.423   7.010  0.00  0.00    +0.137 C 
ATOM      2  C   UNL     1       3.418  -1.171   7.669  0.00  0.00    +0.029 C 
ENDROOT
BRANCH   1   4
ATOM      3  N   UNL     1       2.746  -1.883   4.598  0.00  0.00    -0.285 N 
ATOM      4  C   UNL     1       2.085  -2.032   5.763  0.00  0.00    +0.230 C 
ATOM      5  O   UNL     1       0.887  -1.852   5.809  0.00  0.00    -0.274 OA
ATOM      6  H   UNL     1       3.689  -2.102   4.544  0.00  0.00    +0.155 HD
BRANCH   3  10
ATOM      7  C   UNL     1       0.736  -0.485   1.228  0.00  0.00    -0.048 A 
ATOM      8  C   UNL     1       0.375  -0.033   2.483  0.00  0.00    +0.005 A 
ATOM      9  C   UNL     1       1.039  -0.494   3.603  0.00  0.00    +0.023 A 
ATOM     10  C   UNL     1       2.071  -1.414   3.466  0.00  0.00    +0.033 A 
ATOM     11  C   UNL     1       2.431  -1.866   2.204  0.00  0.00    +0.023 A 
ATOM     12  C   UNL     1       1.759  -1.404   1.089  0.00  0.00    +0.005 A 
BRANCH   7  14
ATOM     13  C   UNL     1      -1.189  -0.885  -0.284  0.00  0.00    +0.009 C 
ATOM     14  C   UNL     1       0.009   0.021   0.008  0.00  0.00    +0.032 C 
ENDBRANCH   7  14
ENDBRANCH   3  10
ENDBRANCH   1   4
BRANCH   1  15
ATOM     15  S   UNL     1       1.703  -3.244   8.166  0.00  0.00    -0.073 S 
BRANCH  15  16
ATOM     16  C   UNL     1       2.746  -3.765   9.487  0.00  0.00    +0.193 A 
ATOM     17  N   UNL     1       4.043  -3.499   9.436  0.00  0.00    -0.183 NA
ATOM     18  C   UNL     1       4.839  -3.882  10.419  0.00  0.00    +0.278 A 
ATOM     19  O   UNL     1       6.165  -3.608  10.362  0.00  0.00    -0.265 OA
ATOM     20  C   UNL     1       4.311  -4.574  11.525  0.00  0.00    +0.051 A 
ATOM     21  C   UNL     1       2.964  -4.831  11.542  0.00  0.00    +0.063 A 
ATOM     22  N   UNL     1       2.220  -4.407  10.512  0.00  0.00    -0.226 NA
ATOM     23  C   UNL     1       2.420  -5.583  12.755  0.00  0.00    +0.125 C 
ATOM     24  S   UNL     1       3.959  -6.258  13.502  0.00  0.00    -0.150 S 
ATOM     25  C   UNL     1       5.124  -5.068  12.720  0.00  0.00    +0.112 C 
ENDBRANCH  15  16
ENDBRANCH   1  15
TORSDOF 5
