REMARK  Name = ZINC17015509
REMARK  9 active torsions:
REMARK  status: ('A' for Active; 'I' for Inactive)
REMARK    1  A    between atoms: C_1  and  C_2
REMARK    2  A    between atoms: C_9  and  N_39
REMARK    3  A    between atoms: C_16  and  C_19
REMARK    4  A    between atoms: N_25  and  C_28
REMARK    5  A    between atoms: C_28  and  C_29
REMARK    6  A    between atoms: C_31  and  O_37
REMARK    7  A    between atoms: C_33  and  O_35
REMARK    8  A    between atoms: O_35  and  C_36
REMARK    9  A    between atoms: O_37  and  C_38
REMARK                            x       y       z     vdW  Elec       q    Type
REMARK                         _______ _______ _______ _____ _____    ______ ____
ROOT
ATOM      1  C   UNL     1      -3.175  -0.208  -4.890  0.00  0.00    +0.039 C 
ATOM      2  C   UNL     1      -2.303   0.181  -3.695  0.00  0.00    +0.133 C 
ATOM      3  C   UNL     1      -2.907  -0.397  -2.411  0.00  0.00    +0.136 C 
ATOM      4  N   UNL     1      -2.111   0.053  -1.263  0.00  0.00    -0.320 N 
ATOM      5  C   UNL     1      -2.517  -0.549  -0.076  0.00  0.00    +0.033 A 
ATOM      6  C   UNL     1      -3.001  -1.857  -0.140  0.00  0.00    +0.025 A 
ATOM      7  C   UNL     1      -3.399  -2.510   1.006  0.00  0.00    +0.034 A 
ATOM      8  C   UNL     1      -3.319  -1.870   2.229  0.00  0.00    +0.127 A 
ATOM      9  C   UNL     1      -2.844  -0.575   2.299  0.00  0.00    +0.038 A 
ATOM     10  C   UNL     1      -2.446   0.090   1.150  0.00  0.00    -0.023 A 
ATOM     11  C   UNL     1      -1.945   1.506   1.286  0.00  0.00    +0.064 C 
ATOM     12  C   UNL     1      -1.210   1.923   0.009  0.00  0.00    +0.148 C 
ATOM     13  C   UNL     1      -2.079   1.516  -1.187  0.00  0.00    +0.126 C 
ATOM     14  C   UNL     1      -1.478   2.077  -2.478  0.00  0.00    +0.137 C 
ATOM     15  O   UNL     1      -2.243   1.606  -3.591  0.00  0.00    -0.370 OA
ATOM     16  C   UNL     1      -1.516   3.606  -2.438  0.00  0.00    +0.040 C 
ATOM     17  C   UNL     1       0.111   1.213  -0.068  0.00  0.00    +0.238 C 
ATOM     18  O   UNL     1       0.129   0.001  -0.074  0.00  0.00    -0.274 OA
ATOM     19  N   UNL     1       1.271   1.882  -0.135  0.00  0.00    -0.239 N 
ATOM     20  C   UNL     1       1.318   3.222  -0.130  0.00  0.00    +0.315 C 
ATOM     21  O   UNL     1       2.398   3.777  -0.191  0.00  0.00    -0.252 OA
ATOM     22  N   UNL     1       0.204   3.966  -0.059  0.00  0.00    -0.220 N 
ATOM     23  C   UNL     1      -1.015   3.412   0.009  0.00  0.00    +0.241 C 
ATOM     24  O   UNL     1      -1.987   4.134   0.067  0.00  0.00    -0.274 OA
ATOM     25  H   UNL     1       2.221   1.330  -0.197  0.00  0.00    +0.159 HD
ENDROOT
BRANCH   8  26
ATOM     26  N   UNL     1      -3.741  -2.571   3.462  0.00  0.00    +0.056 N 
ATOM     27  O   UNL     1      -3.670  -2.006   4.539  0.00  0.00    -0.126 OA
ATOM     28  O   UNL     1      -4.160  -3.713   3.401  0.00  0.00    -0.126 OA
ENDBRANCH   8  26
BRANCH  22  29
ATOM     29  C   UNL     1       0.323   5.426  -0.055  0.00  0.00    +0.153 C 
BRANCH  29  30
ATOM     30  C   UNL     1       0.281   5.937  -1.472  0.00  0.00    -0.023 A 
ATOM     31  C   UNL     1       1.453   6.079  -2.190  0.00  0.00    +0.051 A 
ATOM     32  C   UNL     1       1.416   6.544  -3.497  0.00  0.00    +0.124 A 
ATOM     33  C   UNL     1       0.202   6.877  -4.079  0.00  0.00    +0.091 A 
ATOM     34  C   UNL     1      -0.972   6.739  -3.355  0.00  0.00    +0.124 A 
ATOM     35  C   UNL     1      -0.930   6.268  -2.050  0.00  0.00    +0.051 A 
BRANCH  34  36
ATOM     36  O   UNL     1      -2.163   7.064  -3.923  0.00  0.00    -0.495 OA
ATOM     37  C   UNL     1      -2.131   7.542  -5.269  0.00  0.00    +0.277 C 
ENDBRANCH  34  36
BRANCH  32  38
ATOM     38  O   UNL     1       2.568   6.678  -4.204  0.00  0.00    -0.495 OA
ATOM     39  C   UNL     1       2.456   7.168  -5.542  0.00  0.00    +0.277 C 
ENDBRANCH  32  38
ENDBRANCH  29  30
ENDBRANCH  22  29
TORSDOF 5
