REMARK  Name = ZINC20704161
REMARK  4 active torsions:
REMARK  status: ('A' for Active; 'I' for Inactive)
REMARK    1  A    between atoms: C_1  and  C_2
REMARK    2  A    between atoms: C_5  and  O_28
REMARK    3  A    between atoms: C_15  and  C_18
REMARK    4  A    between atoms: C_22  and  N_24
REMARK                            x       y       z     vdW  Elec       q    Type
REMARK                         _______ _______ _______ _____ _____    ______ ____
ROOT
ATOM      1  C   UNL     1       1.233  -2.179  -0.010  0.00  0.00    +0.044 C 
ATOM      2  C   UNL     1       1.212  -0.672  -0.007  0.00  0.00    -0.045 A 
ATOM      3  C   UNL     1       0.027  -0.004   0.238  0.00  0.00    +0.007 A 
ATOM      4  C   UNL     1       0.009   1.379   0.245  0.00  0.00    +0.047 A 
ATOM      5  C   UNL     1       1.169   2.089   0.003  0.00  0.00    +0.138 A 
ATOM      6  C   UNL     1       2.374   1.425  -0.255  0.00  0.00    +0.074 A 
ATOM      7  C   UNL     1       2.376   0.029  -0.248  0.00  0.00    -0.013 A 
ATOM      8  C   UNL     1       3.662  -0.660  -0.492  0.00  0.00    +0.049 C 
ATOM      9  C   UNL     1       3.744  -1.996  -1.131  0.00  0.00    -0.023 C 
ATOM     10  C   UNL     1       4.875  -2.063  -1.826  0.00  0.00    -0.030 C 
ATOM     11  C   UNL     1       5.627  -0.734  -1.728  0.00  0.00    +0.033 C 
ATOM     12  C   UNL     1       4.469   0.235  -1.484  0.00  0.00    +0.029 C 
ATOM     13  C   UNL     1       4.774   1.495  -0.700  0.00  0.00    +0.105 C 
ATOM     14  N   UNL     1       3.500   2.208  -0.515  0.00  0.00    -0.334 N 
ATOM     15  H   UNL     1       3.469   3.305  -0.585  0.00  0.00    +0.147 HD
ENDROOT
BRANCH  13  16
ATOM     16  C   UNL     1       5.739   2.358  -1.469  0.00  0.00    -0.025 A 
ATOM     17  C   UNL     1       5.281   3.159  -2.499  0.00  0.00    +0.007 A 
ATOM     18  C   UNL     1       6.166   3.951  -3.205  0.00  0.00    +0.022 A 
ATOM     19  C   UNL     1       7.511   3.943  -2.882  0.00  0.00    +0.071 A 
ATOM     20  C   UNL     1       7.970   3.142  -1.851  0.00  0.00    +0.145 A 
ATOM     21  C   UNL     1       7.082   2.354  -1.142  0.00  0.00    +0.039 A 
ATOM     22 CL   UNL     1       8.624   4.938  -3.768  0.00  0.00    -0.081 Cl
BRANCH  20  23
ATOM     23  N   UNL     1       9.408   3.133  -1.504  0.00  0.00    +0.058 N 
ATOM     24  O   UNL     1       9.812   2.427  -0.597  0.00  0.00    -0.126 OA
ATOM     25  O   UNL     1      10.189   3.831  -2.126  0.00  0.00    -0.126 OA
ENDBRANCH  20  23
ENDBRANCH  13  16
BRANCH   5  26
ATOM     26  O   UNL     1       1.139   3.449   0.015  0.00  0.00    -0.505 OA
ATOM     27  H   UNL     1       2.059   4.021  -0.176  0.00  0.00    +0.292 HD
ENDBRANCH   5  26
TORSDOF 3
