REMARK  Name = ZINC00422113
REMARK  5 active torsions:
REMARK  status: ('A' for Active; 'I' for Inactive)
REMARK    1  A    between atoms: C_1  and  C_2
REMARK    2  A    between atoms: C_4  and  C_22
REMARK    3  A    between atoms: C_8  and  N_21
REMARK    4  A    between atoms: C_9  and  C_11
REMARK    5  A    between atoms: C_17  and  C_20
REMARK                            x       y       z     vdW  Elec       q    Type
REMARK                         _______ _______ _______ _____ _____    ______ ____
ROOT
ATOM      1  C   UNL     1      -1.197   2.204  -0.402  0.00  0.00    +0.044 C 
ATOM      2  C   UNL     1       0.011   1.446   0.085  0.00  0.00    -0.037 A 
ATOM      3  C   UNL     1       1.184   2.108   0.364  0.00  0.00    +0.027 A 
ATOM      4  C   UNL     1       2.297   1.408   0.805  0.00  0.00    +0.040 A 
ATOM      5  N   UNL     1       2.244   0.099   0.964  0.00  0.00    -0.245 NA
ATOM      6  C   UNL     1       1.145  -0.579   0.711  0.00  0.00    +0.111 A 
ATOM      7  C   UNL     1      -0.042   0.041   0.256  0.00  0.00    +0.032 A 
ATOM      8  C   UNL     1      -1.160  -0.861   0.026  0.00  0.00    +0.054 A 
ATOM      9  C   UNL     1      -0.976  -2.205   0.264  0.00  0.00    +0.097 A 
ATOM     10  S   UNL     1       0.719  -2.300   0.808  0.00  0.00    -0.062 S 
ATOM     11  C   UNL     1       3.575   2.147   1.107  0.00  0.00    +0.065 C 
ENDROOT
BRANCH   9  12
ATOM     12  C   UNL     1      -1.910  -3.260   0.113  0.00  0.00    +0.255 C 
ATOM     13  O   UNL     1      -3.078  -3.010  -0.123  0.00  0.00    -0.269 OA
ATOM     14  N   UNL     1      -1.506  -4.540   0.230  0.00  0.00    -0.297 N 
ATOM     15  C   UNL     1      -0.076  -4.878   0.214  0.00  0.00    +0.108 C 
ATOM     16  C   UNL     1       0.167  -5.944  -0.859  0.00  0.00    +0.019 C 
ATOM     17  C   UNL     1      -0.758  -7.137  -0.606  0.00  0.00    +0.006 C 
ATOM     18  C   UNL     1      -2.216  -6.683  -0.697  0.00  0.00    +0.003 C 
ATOM     19  C   UNL     1      -2.486  -5.624   0.384  0.00  0.00    +0.111 C 
ATOM     20  C   UNL     1      -3.140  -7.882  -0.476  0.00  0.00    +0.009 C 
ENDBRANCH   9  12
BRANCH   8  21
ATOM     21  N   UNL     1      -2.382  -0.379  -0.421  0.00  0.00    -0.356 N 
ATOM     22  H   UNL     1      -2.984  -0.962  -0.910  0.00  0.00    +0.142 HD
ATOM     23  H   UNL     1      -2.635   0.541  -0.244  0.00  0.00    +0.142 HD
ENDBRANCH   8  21
TORSDOF 2
