REMARK  Name = ZINC13465011
REMARK  7 active torsions:
REMARK  status: ('A' for Active; 'I' for Inactive)
REMARK    1  A    between atoms: C_1  and  C_2
REMARK    2  A    between atoms: C_5  and  S_9
REMARK    3  A    between atoms: C_6  and  C_8
REMARK    4  A    between atoms: S_9  and  N_12
REMARK    5  A    between atoms: N_12  and  C_13
REMARK    6  A    between atoms: C_16  and  N_21
REMARK    7  A    between atoms: C_18  and  C_19
REMARK                            x       y       z     vdW  Elec       q    Type
REMARK                         _______ _______ _______ _____ _____    ______ ____
ROOT
ATOM      1  N   UNL     1       2.531   1.110  -0.023  0.00  0.00    -0.215 N 
ATOM      2  H   UNL     1       3.301   1.387   0.498  0.00  0.00    +0.174 HD
ENDROOT
BRANCH   1   3
ATOM      3  C   UNL     1       1.445   1.963  -0.164  0.00  0.00    +0.062 A 
ATOM      4  C   UNL     1       0.154   1.449  -0.207  0.00  0.00    +0.027 A 
ATOM      5  C   UNL     1      -0.923   2.299  -0.353  0.00  0.00    +0.034 A 
ATOM      6  C   UNL     1      -0.730   3.668  -0.448  0.00  0.00    +0.127 A 
ATOM      7  C   UNL     1       0.541   4.196  -0.407  0.00  0.00    +0.049 A 
ATOM      8  C   UNL     1       1.644   3.349  -0.265  0.00  0.00    +0.088 A 
BRANCH   8   9
ATOM      9  C   UNL     1       3.007   3.907  -0.222  0.00  0.00    +0.388 C 
ATOM     10  O   UNL     1       3.963   3.167  -0.099  0.00  0.00    -0.241 OA
ATOM     11  O   UNL     1       3.193   5.238  -0.319  0.00  0.00    -0.241 OA
ENDBRANCH   8   9
BRANCH   6  12
ATOM     12  N   UNL     1      -1.896   4.567  -0.599  0.00  0.00    +0.056 N 
ATOM     13  O   UNL     1      -1.730   5.770  -0.687  0.00  0.00    -0.126 OA
ATOM     14  O   UNL     1      -3.022   4.104  -0.635  0.00  0.00    -0.126 OA
ENDBRANCH   6  12
ENDBRANCH   1   3
BRANCH   1  15
ATOM     15  S   UNL     1       2.512  -0.381  -0.744  0.00  0.00    +0.073 S 
ATOM     16  O   UNL     1       3.797  -0.951  -0.531  0.00  0.00    -0.150 OA
ATOM     17  O   UNL     1       1.316  -1.021  -0.322  0.00  0.00    -0.150 OA
BRANCH  15  22
ATOM     18  C   UNL     1       1.984   0.519  -6.686  0.00  0.00    +0.044 C 
ATOM     19  C   UNL     1       2.116   0.294  -5.202  0.00  0.00    -0.050 A 
ATOM     20  C   UNL     1       1.102  -0.338  -4.506  0.00  0.00    +0.005 A 
ATOM     21  C   UNL     1       1.223  -0.544  -3.144  0.00  0.00    +0.029 A 
ATOM     22  C   UNL     1       2.358  -0.119  -2.479  0.00  0.00    +0.111 A 
ATOM     23  C   UNL     1       3.369   0.517  -3.174  0.00  0.00    -0.024 A 
ATOM     24  C   UNL     1       3.251   0.719  -4.537  0.00  0.00    +0.008 A 
ATOM     25  C   UNL     1       4.604   0.987  -2.448  0.00  0.00    +0.046 C 
ENDBRANCH  15  22
ENDBRANCH   1  15
TORSDOF 5
