REMARK  Name = ZINC15732559
REMARK  5 active torsions:
REMARK  status: ('A' for Active; 'I' for Inactive)
REMARK    1  A    between atoms: C_1  and  C_2
REMARK    2  A    between atoms: C_12  and  C_14
REMARK    3  A    between atoms: C_14  and  S_15
REMARK    4  A    between atoms: S_15  and  C_16
REMARK    5  A    between atoms: C_18  and  C_27
REMARK                            x       y       z     vdW  Elec       q    Type
REMARK                         _______ _______ _______ _____ _____    ______ ____
ROOT
ATOM      1  C   UNL     1      -3.601  -1.030   0.012  0.00  0.00    +0.192 A 
ATOM      2  N   UNL     1      -2.478  -0.330   0.005  0.00  0.00    -0.202 NA
ATOM      3  C   UNL     1      -2.504   1.006   0.019  0.00  0.00    +0.168 A 
ATOM      4  N   UNL     1      -3.653   1.669   0.028  0.00  0.00    -0.208 NA
ATOM      5  C   UNL     1      -4.812   1.003   0.029  0.00  0.00    +0.162 A 
ATOM      6  N   UNL     1      -4.800  -0.377   0.021  0.00  0.00    -0.210 N 
ATOM      7  N   UNL     1      -6.127  -0.818   0.025  0.00  0.00    -0.256 N 
ATOM      8  H   UNL     1      -6.416  -1.743   0.020  0.00  0.00    +0.191 HD
ATOM      9  C   UNL     1      -6.935   0.261   0.035  0.00  0.00    +0.267 A 
ATOM     10  O   UNL     1      -8.155   0.237   0.040  0.00  0.00    -0.266 OA
ATOM     11  C   UNL     1      -6.140   1.408   0.038  0.00  0.00    +0.119 A 
ENDROOT
BRANCH   3  12
ATOM     12  C   UNL     1      -1.230   1.758   0.017  0.00  0.00    +0.054 A 
ATOM     13  C   UNL     1      -0.013   1.076   0.008  0.00  0.00    +0.014 A 
ATOM     14  C   UNL     1       1.171   1.783   0.000  0.00  0.00    +0.001 A 
ATOM     15  C   UNL     1       1.156   3.167   0.008  0.00  0.00    +0.003 A 
ATOM     16  C   UNL     1      -0.044   3.851   0.023  0.00  0.00    +0.039 A 
ATOM     17  C   UNL     1      -1.240   3.155   0.030  0.00  0.00    +0.134 A 
ATOM     18  F   UNL     1      -2.413   3.825   0.044  0.00  0.00    -0.205 F 
ENDBRANCH   3  12
BRANCH   1  19
ATOM     19  S   UNL     1      -3.549  -2.791   0.002  0.00  0.00    -0.077 S 
BRANCH  19  20
ATOM     20  C   UNL     1      -1.758  -3.053  -0.008  0.00  0.00    +0.173 C 
BRANCH  20  31
ATOM     21  C   UNL     1      -0.311  -7.076  -1.283  0.00  0.00    +0.029 C 
ATOM     22  C   UNL     1       0.215  -6.375  -0.029  0.00  0.00    +0.083 C 
ATOM     23  C   UNL     1       1.752  -6.350  -0.041  0.00  0.00    +0.059 C 
ATOM     24  C   UNL     1       2.109  -4.880  -0.035  0.00  0.00    -0.024 A 
ATOM     25  C   UNL     1       3.337  -4.246  -0.036  0.00  0.00    +0.005 A 
ATOM     26  C   UNL     1       3.406  -2.866  -0.028  0.00  0.00    +0.000 A 
ATOM     27  C   UNL     1       2.241  -2.119  -0.019  0.00  0.00    +0.002 A 
ATOM     28  C   UNL     1       1.014  -2.748  -0.019  0.00  0.00    +0.024 A 
ATOM     29  C   UNL     1       0.937  -4.142  -0.026  0.00  0.00    +0.040 A 
ATOM     30  N   UNL     1      -0.192  -4.967  -0.026  0.00  0.00    -0.267 N 
ATOM     31  C   UNL     1      -1.467  -4.532  -0.017  0.00  0.00    +0.230 C 
ATOM     32  O   UNL     1      -2.380  -5.330  -0.017  0.00  0.00    -0.274 OA
ENDBRANCH  20  31
ENDBRANCH  19  20
ENDBRANCH   1  19
TORSDOF 4
