REMARK  Name = ZINC66081241
REMARK  8 active torsions:
REMARK  status: ('A' for Active; 'I' for Inactive)
REMARK    1  A    between atoms: C_1  and  C_2
REMARK    2  A    between atoms: C_5  and  C_7
REMARK    3  A    between atoms: C_9  and  N_13
REMARK    4  A    between atoms: C_14  and  C_16
REMARK    5  A    between atoms: C_16  and  C_17
REMARK    6  A    between atoms: C_17  and  C_19
REMARK    7  A    between atoms: C_17  and  N_20
REMARK    8  A    between atoms: C_21  and  C_23
REMARK                            x       y       z     vdW  Elec       q    Type
REMARK                         _______ _______ _______ _____ _____    ______ ____
ROOT
ATOM      1  N   UNL     1       3.630  -6.525  -0.040  0.00  0.00    -0.271 N 
ATOM      2  C   UNL     1       4.835  -5.921  -0.036  0.00  0.00    +0.220 C 
ATOM      3  O   UNL     1       4.906  -4.710  -0.029  0.00  0.00    -0.275 OA
ATOM      4  H   UNL     1       3.572  -7.493  -0.046  0.00  0.00    +0.156 HD
ENDROOT
BRANCH   1   7
ATOM      5  C   UNL     1       1.039  -4.035  -0.024  0.00  0.00    +0.101 A 
ATOM      6  C   UNL     1       2.400  -4.401  -0.026  0.00  0.00    +0.074 A 
ATOM      7  C   UNL     1       2.465  -5.757  -0.034  0.00  0.00    +0.121 A 
ATOM      8  N   UNL     1       1.192  -6.233  -0.037  0.00  0.00    -0.263 N 
ATOM      9  H   UNL     1       0.933  -7.168  -0.043  0.00  0.00    +0.190 HD
ATOM     10  N   UNL     1       0.319  -5.138  -0.025  0.00  0.00    -0.172 NA
BRANCH   5  15
ATOM     11  C   UNL     1      -0.018   1.503   0.010  0.00  0.00    +0.051 C 
ATOM     12  C   UNL     1       0.002  -0.004   0.002  0.00  0.00    -0.013 A 
ATOM     13  C   UNL     1      -1.042  -0.872   0.002  0.00  0.00    +0.011 A 
ATOM     14  C   UNL     1      -0.789  -2.227  -0.007  0.00  0.00    +0.018 A 
ATOM     15  C   UNL     1       0.512  -2.653  -0.015  0.00  0.00    +0.040 A 
ATOM     16  S   UNL     1       1.405  -1.107  -0.018  0.00  0.00    -0.092 S 
ENDBRANCH   5  15
ENDBRANCH   1   7
BRANCH   2  17
ATOM     17  C   UNL     1       6.093  -6.750  -0.042  0.00  0.00    +0.118 C 
BRANCH  17  18
ATOM     18  C   UNL     1       7.312  -5.827  -0.036  0.00  0.00    +0.079 C 
ATOM     19  C   UNL     1       8.587  -6.663  -0.168  0.00  0.00    +0.028 C 
BRANCH  18  20
ATOM     20  N   UNL     1       7.350  -5.074   1.220  0.00  0.00    -0.312 N 
ATOM     21  C   UNL     1       7.982  -3.885   1.275  0.00  0.00    +0.216 C 
ATOM     22  O   UNL     1       8.520  -3.438   0.285  0.00  0.00    -0.276 OA
ATOM     23  H   UNL     1       6.919  -5.432   2.013  0.00  0.00    +0.149 HD
BRANCH  21  24
ATOM     24  C   UNL     1       8.020  -3.111   2.568  0.00  0.00    +0.075 C 
ATOM     25  C   UNL     1       6.589  -2.721   2.992  0.00  0.00    +0.013 C 
ATOM     26  C   UNL     1       6.747  -1.307   3.605  0.00  0.00    +0.001 C 
ATOM     27  C   UNL     1       7.808  -0.653   2.685  0.00  0.00    +0.001 C 
ATOM     28  C   UNL     1       8.795  -1.797   2.372  0.00  0.00    +0.013 C 
ENDBRANCH  21  24
ENDBRANCH  18  20
ENDBRANCH  17  18
ENDBRANCH   2  17
TORSDOF 6
