REMARK  Name = ZINC04696389
REMARK  4 active torsions:
REMARK  status: ('A' for Active; 'I' for Inactive)
REMARK    1  A    between atoms: C_1  and  C_2
REMARK    2  A    between atoms: C_5  and  C_11
REMARK    3  A    between atoms: C_7  and  N_8
REMARK    4  A    between atoms: C_14  and  C_16
REMARK                            x       y       z     vdW  Elec       q    Type
REMARK                         _______ _______ _______ _____ _____    ______ ____
ROOT
ATOM      1  C   UNL     1      -0.585   7.156  -0.009  0.00  0.00    +0.136 A 
ATOM      2  C   UNL     1      -1.957   7.406   0.230  0.00  0.00    +0.050 A 
ATOM      3  C   UNL     1      -2.614   6.222   0.121  0.00  0.00    +0.050 A 
ATOM      4  C   UNL     1      -1.595   5.212  -0.197  0.00  0.00    +0.130 A 
ATOM      5  O   UNL     1      -0.404   5.848  -0.252  0.00  0.00    -0.455 OA
ENDROOT
BRANCH   4   6
ATOM      6  C   UNL     1      -1.815   3.857  -0.398  0.00  0.00    +0.066 C 
ATOM      7  C   UNL     1      -0.739   3.009  -0.696  0.00  0.00    +0.082 C 
ATOM      8  C   UNL     1      -0.738   1.536  -0.954  0.00  0.00    +0.258 C 
ATOM      9  O   UNL     1      -1.757   0.878  -0.926  0.00  0.00    -0.269 OA
ATOM     10  N   UNL     1       0.441   0.991  -1.211  0.00  0.00    -0.243 N 
ATOM     11  C   UNL     1       1.551   1.755  -1.238  0.00  0.00    +0.283 C 
ATOM     12  O   UNL     1       2.694   1.410  -1.462  0.00  0.00    -0.262 OA
ATOM     13  S   UNL     1       0.946   3.392  -0.871  0.00  0.00    -0.026 S 
ATOM     14  H   UNL     1       0.506   0.039  -1.383  0.00  0.00    +0.159 HD
ENDBRANCH   4   6
BRANCH   1  19
ATOM     15  C   UNL     1       3.557  11.124   0.079  0.00  0.00    +0.046 C 
ATOM     16  C   UNL     1       2.471  10.079   0.056  0.00  0.00    -0.020 A 
ATOM     17  C   UNL     1       1.157  10.446   0.306  0.00  0.00    +0.006 A 
ATOM     18  C   UNL     1       0.162   9.511   0.282  0.00  0.00    +0.012 A 
ATOM     19  C   UNL     1       0.472   8.165   0.013  0.00  0.00    +0.019 A 
ATOM     20  C   UNL     1       1.807   7.798  -0.240  0.00  0.00    +0.044 A 
ATOM     21  C   UNL     1       2.793   8.758  -0.216  0.00  0.00    +0.130 A 
BRANCH  21  22
ATOM     22  N   UNL     1       4.199   8.379  -0.482  0.00  0.00    +0.057 N 
ATOM     23  O   UNL     1       4.984   9.195  -1.154  0.00  0.00    -0.126 OA
ATOM     24  O   UNL     1       4.665   7.227  -0.046  0.00  0.00    -0.126 OA
ENDBRANCH  21  22
ENDBRANCH   1  19
TORSDOF 3
