REMARK  Name = ZINC22077817
REMARK  6 active torsions:
REMARK  status: ('A' for Active; 'I' for Inactive)
REMARK    1  A    between atoms: C_1  and  C_2
REMARK    2  A    between atoms: C_2  and  C_4
REMARK    3  A    between atoms: C_2  and  N_12
REMARK    4  A    between atoms: C_4  and  C_5
REMARK    5  A    between atoms: N_12  and  C_13
REMARK    6  A    between atoms: C_25  and  N_28
REMARK                            x       y       z     vdW  Elec       q    Type
REMARK                         _______ _______ _______ _____ _____    ______ ____
ROOT
ATOM      1  C   UNL     1       0.061   1.005  -0.184  0.00  0.00    +0.101 C 
ATOM      2  C   UNL     1      -0.896   1.526   0.893  0.00  0.00    +0.025 C 
ATOM      3  C   UNL     1      -2.328   1.085   0.554  0.00  0.00    +0.007 C 
ATOM      4  C   UNL     1      -2.817   1.852  -0.679  0.00  0.00    +0.037 C 
ATOM      5  C   UNL     1      -1.768   1.749  -1.756  0.00  0.00    -0.018 A 
ATOM      6  C   UNL     1      -0.488   1.373  -1.542  0.00  0.00    +0.037 A 
ATOM      7  N   UNL     1       0.202   1.382  -2.726  0.00  0.00    -0.356 N 
ATOM      8  H   UNL     1       1.266   1.101  -2.744  0.00  0.00    +0.166 HD
ATOM      9  C   UNL     1      -0.625   1.768  -3.741  0.00  0.00    +0.047 A 
ATOM     10  C   UNL     1      -1.902   2.017  -3.173  0.00  0.00    +0.005 A 
ATOM     11  C   UNL     1      -2.978   2.433  -3.962  0.00  0.00    +0.043 A 
ATOM     12  C   UNL     1      -2.740   2.587  -5.306  0.00  0.00    +0.127 A 
ATOM     13  C   UNL     1      -1.496   2.346  -5.865  0.00  0.00    +0.035 A 
ATOM     14  C   UNL     1      -0.413   1.933  -5.107  0.00  0.00    +0.028 A 
ENDROOT
BRANCH  12  15
ATOM     15  N   UNL     1      -3.848   3.026  -6.184  0.00  0.00    +0.056 N 
ATOM     16  O   UNL     1      -4.949   3.244  -5.713  0.00  0.00    -0.126 OA
ATOM     17  O   UNL     1      -3.657   3.169  -7.379  0.00  0.00    -0.126 OA
ENDBRANCH  12  15
BRANCH   1  18
ATOM     18  N   UNL     1       1.385   1.616  -0.005  0.00  0.00    -0.305 NA
ATOM     19  H   UNL     1       1.255   2.612   0.445  0.00  0.00    +0.123 HD
BRANCH  18  21
ATOM     20  C   UNL     1       2.031   1.216   2.323  0.00  0.00    +0.024 C 
ATOM     21  C   UNL     1       2.232   0.792   0.867  0.00  0.00    +0.056 C 
BRANCH  21  22
ATOM     22  C   UNL     1       3.700   0.981   0.478  0.00  0.00    +0.056 C 
BRANCH  22  23
ATOM     23  C   UNL     1       3.924   0.450  -0.914  0.00  0.00    -0.011 A 
ATOM     24  C   UNL     1       3.972   1.320  -1.987  0.00  0.00    +0.006 A 
ATOM     25  C   UNL     1       4.178   0.833  -3.264  0.00  0.00    +0.000 A 
ATOM     26  C   UNL     1       4.336  -0.525  -3.470  0.00  0.00    +0.003 A 
ATOM     27  C   UNL     1       4.288  -1.397  -2.399  0.00  0.00    +0.038 A 
ATOM     28  C   UNL     1       4.087  -0.910  -1.119  0.00  0.00    +0.127 A 
ATOM     29  F   UNL     1       4.045  -1.761  -0.070  0.00  0.00    -0.205 F 
ENDBRANCH  22  23
ENDBRANCH  21  22
ENDBRANCH  18  21
ENDBRANCH   1  18
TORSDOF 5
