REMARK  Name = ZINC39671780
REMARK  10 active torsions:
REMARK  status: ('A' for Active; 'I' for Inactive)
REMARK    1  A    between atoms: C_1  and  C_2
REMARK    2  A    between atoms: C_4  and  C_39
REMARK    3  A    between atoms: N_5  and  C_7
REMARK    4  A    between atoms: C_7  and  C_8
REMARK    5  A    between atoms: C_8  and  C_9
REMARK    6  A    between atoms: C_9  and  N_10
REMARK    7  A    between atoms: C_11  and  C_13
REMARK    8  A    between atoms: C_24  and  C_26
REMARK    9  A    between atoms: C_31  and  S_32
REMARK   10  A    between atoms: S_32  and  C_33
REMARK                            x       y       z     vdW  Elec       q    Type
REMARK                         _______ _______ _______ _____ _____    ______ ____
ROOT
ATOM      1  C   UNL     1       4.994  -6.605   4.478  0.00  0.00    +0.100 C 
ATOM      2  C   UNL     1       5.483  -7.058   3.084  0.00  0.00    +0.121 C 
ATOM      3  N   UNL     1       6.262  -8.292   3.344  0.00  0.00    -0.296 N 
ATOM      4  C   UNL     1       5.490  -9.002   4.392  0.00  0.00    +0.115 C 
ATOM      5  C   UNL     1       4.998  -7.884   5.333  0.00  0.00    -0.004 C 
ATOM      6  C   UNL     1       3.589  -8.194   5.828  0.00  0.00    -0.010 C 
ATOM      7  C   UNL     1       3.629  -9.436   6.723  0.00  0.00    -0.082 C 
ATOM      8  N   UNL     1       4.527  -9.194   7.860  0.00  0.00    +0.379 N 
ATOM      9  C   UNL     1       5.899  -8.988   7.379  0.00  0.00    -0.082 C 
ATOM     10  C   UNL     1       5.954  -7.728   6.512  0.00  0.00    -0.010 C 
ATOM     11  C   UNL     1       7.412  -8.681   2.759  0.00  0.00    +0.249 C 
ATOM     12  O   UNL     1       7.884  -9.773   3.012  0.00  0.00    -0.270 OA
ATOM     13  H   UNL     1       4.221  -8.373   8.359  0.00  0.00    -0.086 HD
ATOM     14  H   UNL     1       4.505  -9.989   8.480  0.00  0.00    -0.086 HD
ENDROOT
BRANCH  11  15
ATOM     15  C   UNL     1       8.099  -7.782   1.813  0.00  0.00    +0.069 A 
ATOM     16  C   UNL     1       7.365  -6.954   0.957  0.00  0.00    +0.017 A 
ATOM     17  C   UNL     1       8.057  -6.128   0.088  0.00  0.00    +0.020 A 
ATOM     18  C   UNL     1       9.441  -6.144   0.090  0.00  0.00    +0.112 A 
ATOM     19  N   UNL     1      10.115  -6.931   0.904  0.00  0.00    -0.248 NA
ATOM     20  C   UNL     1       9.503  -7.737   1.760  0.00  0.00    +0.114 A 
BRANCH  20  21
ATOM     21  S   UNL     1      10.454  -8.763   2.831  0.00  0.00    -0.069 S 
BRANCH  21  22
ATOM     22  C   UNL     1      12.117  -8.498   2.310  0.00  0.00    +0.014 A 
ATOM     23  C   UNL     1      12.906  -7.552   2.953  0.00  0.00    +0.015 A 
ATOM     24  C   UNL     1      14.208  -7.347   2.542  0.00  0.00    +0.001 A 
ATOM     25  C   UNL     1      14.727  -8.082   1.491  0.00  0.00    +0.000 A 
ATOM     26  C   UNL     1      13.944  -9.023   0.848  0.00  0.00    +0.001 A 
ATOM     27  C   UNL     1      12.643  -9.238   1.258  0.00  0.00    +0.015 A 
ENDBRANCH  21  22
ENDBRANCH  20  21
ENDBRANCH  11  15
BRANCH   1  29
ATOM     28  N   UNL     1       3.193  -5.102   5.264  0.00  0.00    -0.315 N 
ATOM     29  C   UNL     1       3.599  -6.041   4.387  0.00  0.00    +0.218 C 
ATOM     30  O   UNL     1       2.842  -6.432   3.524  0.00  0.00    -0.275 OA
ATOM     31  H   UNL     1       3.799  -4.789   5.954  0.00  0.00    +0.149 HD
BRANCH  28  32
ATOM     32  C   UNL     1       1.838  -4.553   5.175  0.00  0.00    +0.106 C 
BRANCH  32  33
ATOM     33  C   UNL     1       1.635  -3.513   6.279  0.00  0.00    +0.042 C 
BRANCH  33  34
ATOM     34  C   UNL     1       0.220  -2.940   6.186  0.00  0.00    +0.145 C 
BRANCH  34  39
ATOM     35  C   UNL     1      -0.945  -0.875  10.610  0.00  0.00    +0.067 C 
ATOM     36  C   UNL     1      -0.490  -1.062   9.186  0.00  0.00    +0.060 A 
ATOM     37  C   UNL     1      -0.029  -0.054   8.333  0.00  0.00    +0.047 A 
ATOM     38  C   UNL     1       0.281  -0.623   7.145  0.00  0.00    +0.036 A 
ATOM     39  N   UNL     1       0.026  -1.944   7.243  0.00  0.00    -0.268 N 
ATOM     40  N   UNL     1      -0.453  -2.196   8.535  0.00  0.00    -0.176 NA
ATOM     41  C   UNL     1       0.816   0.092   5.931  0.00  0.00    +0.065 C 
ENDBRANCH  34  39
ENDBRANCH  33  34
ENDBRANCH  32  33
ENDBRANCH  28  32
ENDBRANCH   1  29
TORSDOF 8
