REMARK  Name = ZINC24105160
REMARK  6 active torsions:
REMARK  status: ('A' for Active; 'I' for Inactive)
REMARK    1  A    between atoms: C_4  and  C_7
REMARK    2  A    between atoms: C_7  and  N_8
REMARK    3  A    between atoms: C_9  and  C_26
REMARK    4  A    between atoms: C_12  and  S_13
REMARK    5  A    between atoms: S_13  and  C_14
REMARK    6  A    between atoms: C_14  and  C_15
REMARK                            x       y       z     vdW  Elec       q    Type
REMARK                         _______ _______ _______ _____ _____    ______ ____
ROOT
ATOM      1  N   UNL     1      -2.447   0.897  -2.772  0.00  0.00    -0.301 N 
ATOM      2  C   UNL     1      -2.164   0.907  -1.435  0.00  0.00    +0.137 A 
ATOM      3  N   UNL     1      -2.929   0.016  -0.869  0.00  0.00    -0.133 NA
ATOM      4  N   UNL     1      -3.678  -0.546  -1.750  0.00  0.00    -0.122 NA
ATOM      5  C   UNL     1      -3.421  -0.046  -2.937  0.00  0.00    +0.192 A 
ENDROOT
BRANCH   2   6
ATOM      6  C   UNL     1      -1.150   1.781  -0.743  0.00  0.00    +0.057 C 
ATOM      7  C   UNL     1      -0.013   1.086   0.008  0.00  0.00    +0.012 C 
ATOM      8  C   UNL     1      -1.136   1.773   0.788  0.00  0.00    +0.012 C 
ENDBRANCH   2   6
BRANCH   1   9
ATOM      9  C   UNL     1      -1.833   1.726  -3.813  0.00  0.00    +0.160 C 
BRANCH   9  13
ATOM     10  C   UNL     1       1.585  -0.284  -5.402  0.00  0.00    +0.000 A 
ATOM     11  C   UNL     1       0.341  -0.482  -5.969  0.00  0.00    +0.000 A 
ATOM     12  C   UNL     1      -0.766   0.168  -5.455  0.00  0.00    +0.005 A 
ATOM     13  C   UNL     1      -0.627   1.016  -4.373  0.00  0.00    -0.028 A 
ATOM     14  C   UNL     1       0.618   1.219  -3.808  0.00  0.00    +0.005 A 
ATOM     15  C   UNL     1       1.723   0.565  -4.319  0.00  0.00    +0.000 A 
ENDBRANCH   9  13
ENDBRANCH   1   9
BRANCH   5  16
ATOM     16  S   UNL     1      -4.190  -0.504  -4.455  0.00  0.00    -0.081 S 
BRANCH  16  17
ATOM     17  C   UNL     1      -5.334  -1.773  -3.858  0.00  0.00    +0.112 C 
BRANCH  17  18
ATOM     18  C   UNL     1      -6.122  -2.325  -5.018  0.00  0.00    -0.032 A 
ATOM     19  C   UNL     1      -7.325  -1.744  -5.373  0.00  0.00    +0.054 A 
ATOM     20  C   UNL     1      -8.051  -2.247  -6.442  0.00  0.00    +0.164 A 
ATOM     21  C   UNL     1      -7.570  -3.342  -7.151  0.00  0.00    +0.180 A 
ATOM     22  C   UNL     1      -6.364  -3.924  -6.786  0.00  0.00    +0.086 A 
ATOM     23  C   UNL     1      -5.644  -3.415  -5.720  0.00  0.00    +0.028 A 
ATOM     24 CL   UNL     1      -5.761  -5.293  -7.667  0.00  0.00    -0.080 Cl
ATOM     25  O   UNL     1      -8.267  -3.851  -8.203  0.00  0.00    -0.483 OA
ATOM     26  C   UNL     1      -9.645  -3.476  -8.305  0.00  0.00    +0.270 C 
ATOM     27  C   UNL     1      -9.748  -1.961  -8.083  0.00  0.00    +0.270 C 
ATOM     28  O   UNL     1      -9.233  -1.663  -6.780  0.00  0.00    -0.485 OA
ENDBRANCH  17  18
ENDBRANCH  16  17
ENDBRANCH   5  16
TORSDOF 6
