REMARK  Name = ZINC07715628
REMARK  3 active torsions:
REMARK  status: ('A' for Active; 'I' for Inactive)
REMARK    1  A    between atoms: C_4  and  C_11
REMARK    2  A    between atoms: C_11  and  S_12
REMARK    3  A    between atoms: S_12  and  C_13
REMARK                            x       y       z     vdW  Elec       q    Type
REMARK                         _______ _______ _______ _____ _____    ______ ____
ROOT
ATOM      1  C   UNL     1      -1.401   4.954  -0.007  0.00  0.00    +0.029 A 
ATOM      2  C   UNL     1      -1.759   5.555  -1.201  0.00  0.00    +0.042 A 
ATOM      3  C   UNL     1      -1.762   4.820  -2.373  0.00  0.00    +0.028 A 
ATOM      4  C   UNL     1      -1.411   3.485  -2.353  0.00  0.00    +0.006 A 
ATOM      5  C   UNL     1      -1.053   2.879  -1.156  0.00  0.00    +0.133 A 
ATOM      6  C   UNL     1      -1.047   3.618   0.017  0.00  0.00    +0.022 A 
ATOM      7  C   UNL     1      -0.653   2.974   1.323  0.00  0.00    +0.202 C 
ATOM      8  O   UNL     1      -0.690   1.551   1.182  0.00  0.00    -0.339 OA
ATOM      9  C   UNL     1      -0.013   1.086   0.008  0.00  0.00    +0.394 C 
ATOM     10  O   UNL     1      -0.711   1.563  -1.146  0.00  0.00    -0.466 OA
ATOM     11 CL   UNL     1      -2.203   7.233  -1.227  0.00  0.00    -0.084 Cl
ENDROOT
BRANCH   4  12
ATOM     12  C   UNL     1      -1.416   2.685  -3.630  0.00  0.00    +0.116 C 
BRANCH  12  13
ATOM     13  S   UNL     1      -3.048   1.940  -3.869  0.00  0.00    -0.088 S 
BRANCH  13  14
ATOM     14  C   UNL     1      -2.777   1.090  -5.388  0.00  0.00    +0.123 C 
ATOM     15  N   UNL     1      -1.612   1.151  -5.971  0.00  0.00    -0.382 N 
ATOM     16  N   UNL     1      -3.795   0.361  -5.959  0.00  0.00    -0.340 N 
ATOM     17  H   UNL     1      -1.442   0.620  -6.919  0.00  0.00    +0.158 HD
ATOM     18  H   UNL     1      -3.625  -0.170  -6.908  0.00  0.00    +0.144 HD
ATOM     19  H   UNL     1      -4.777   0.310  -5.468  0.00  0.00    +0.144 HD
ATOM     20  H   UNL     1      -0.798   1.733  -5.513  0.00  0.00    +0.158 HD
ENDBRANCH  13  14
ENDBRANCH  12  13
ENDBRANCH   4  12
TORSDOF 3
