REMARK  Name = ZINC20388060
REMARK  0 active torsions:
REMARK  status: ('A' for Active; 'I' for Inactive)
REMARK                            x       y       z     vdW  Elec       q    Type
REMARK                         _______ _______ _______ _____ _____    ______ ____
ROOT
ATOM      1  C   UNL     1      -2.950  -1.655  -1.295  0.00  0.00    +0.020 C 
ATOM      2  C   UNL     1      -2.066  -2.830  -0.821  0.00  0.00    +0.020 C 
ATOM      3  C   UNL     1      -0.936  -2.179  -0.001  0.00  0.00    +0.108 C 
ATOM      4  N   UNL     1      -1.193  -0.722   0.009  0.00  0.00    -0.299 N 
ATOM      5  C   UNL     1      -1.989  -0.443  -1.213  0.00  0.00    +0.108 C 
ATOM      6  C   UNL     1       0.002  -0.004   0.002  0.00  0.00    +0.227 A 
ATOM      7  N   UNL     1      -0.016   1.312   0.009  0.00  0.00    -0.191 NA
ATOM      8  C   UNL     1       1.139   1.963   0.002  0.00  0.00    +0.177 A 
ATOM      9  S   UNL     1       2.278   0.654  -0.016  0.00  0.00    +0.050 S 
ATOM     10  N   UNL     1       1.155  -0.638  -0.012  0.00  0.00    -0.173 NA
ATOM     11  N   UNL     1       1.375   3.326   0.006  0.00  0.00    -0.336 N 
ATOM     12  H   UNL     1       2.407   3.706  -0.001  0.00  0.00    +0.144 HD
ATOM     13  H   UNL     1       0.529   4.030   0.018  0.00  0.00    +0.144 HD
ENDROOT
TORSDOF 0
