REMARK  Name = ZINC17028927
REMARK  6 active torsions:
REMARK  status: ('A' for Active; 'I' for Inactive)
REMARK    1  A    between atoms: C_1  and  C_2
REMARK    2  A    between atoms: C_5  and  O_32
REMARK    3  A    between atoms: C_18  and  C_31
REMARK    4  A    between atoms: C_19  and  O_30
REMARK    5  A    between atoms: C_22  and  C_24
REMARK    6  A    between atoms: O_32  and  N_33
REMARK                            x       y       z     vdW  Elec       q    Type
REMARK                         _______ _______ _______ _____ _____    ______ ____
ROOT
ATOM      1  C   UNL     1       3.404  -3.605  -1.260  0.00  0.00    +0.012 C 
ATOM      2  C   UNL     1       3.535  -3.425   0.254  0.00  0.00    -0.026 C 
ATOM      3  C   UNL     1       4.996  -3.616   0.667  0.00  0.00    +0.011 C 
ATOM      4  C   UNL     1       5.455  -5.024   0.283  0.00  0.00    +0.048 C 
ATOM      5  C   UNL     1       4.583  -6.058   0.999  0.00  0.00    +0.209 C 
ATOM      6  C   UNL     1       3.123  -5.867   0.584  0.00  0.00    +0.051 C 
ATOM      7  C   UNL     1       2.663  -4.460   0.968  0.00  0.00    -0.001 C 
ATOM      8  C   UNL     1       1.202  -4.270   0.557  0.00  0.00    +0.004 C 
ATOM      9  C   UNL     1       0.742  -2.861   0.938  0.00  0.00    +0.007 C 
ATOM     10  C   UNL     1       1.604  -1.837   0.234  0.00  0.00    +0.025 C 
ATOM     11  C   UNL     1       3.075  -2.019   0.642  0.00  0.00    +0.001 C 
ATOM     12  C   UNL     1       3.984  -0.977  -0.001  0.00  0.00    +0.005 C 
ATOM     13  C   UNL     1       3.495   0.452   0.293  0.00  0.00    +0.010 C 
ATOM     14  C   UNL     1       2.071   0.555  -0.219  0.00  0.00    +0.004 C 
ATOM     15  C   UNL     1       1.204  -0.424   0.617  0.00  0.00    +0.075 C 
ATOM     16  C   UNL     1      -0.214   0.001   0.220  0.00  0.00    +0.036 C 
ATOM     17  C   UNL     1      -0.120   1.551   0.205  0.00  0.00    +0.011 C 
ATOM     18  C   UNL     1       1.373   1.897  -0.024  0.00  0.00    +0.027 C 
ATOM     19  C   UNL     1       2.023   0.157  -1.696  0.00  0.00    +0.014 C 
ENDROOT
BRANCH  18  20
ATOM     20  C   UNL     1       1.528   2.751  -1.256  0.00  0.00    -0.022 C 
ATOM     21  C   UNL     1       0.627   2.924  -2.219  0.00  0.00    +0.094 C 
ATOM     22  C   UNL     1       1.165   3.831  -3.236  0.00  0.00    +0.332 C 
ATOM     23  O   UNL     1       0.575   4.184  -4.238  0.00  0.00    -0.246 OA
ATOM     24  O   UNL     1       2.412   4.211  -2.899  0.00  0.00    -0.457 OA
ATOM     25  C   UNL     1       2.741   3.568  -1.636  0.00  0.00    +0.264 C 
ENDBRANCH  18  20
BRANCH  15  26
ATOM     26  O   UNL     1       1.415  -0.210   2.014  0.00  0.00    -0.388 OA
ATOM     27  H   UNL     1       0.823  -0.720   2.584  0.00  0.00    +0.210 HD
ENDBRANCH  15  26
BRANCH   5  28
ATOM     28  O   UNL     1       5.013  -7.373   0.641  0.00  0.00    -0.348 OA
BRANCH  28  29
ATOM     29  N   UNL     1       6.086  -7.862   1.425  0.00  0.00    +0.218 N 
ATOM     30  O   UNL     1       6.556  -7.172   2.312  0.00  0.00    -0.090 OA
ATOM     31  O   UNL     1       6.538  -8.972   1.213  0.00  0.00    -0.090 OA
ENDBRANCH  28  29
ENDBRANCH   5  28
TORSDOF 4
