REMARK  Name = ZINC05868263
REMARK  10 active torsions:
REMARK  status: ('A' for Active; 'I' for Inactive)
REMARK    1  A    between atoms: C_1  and  C_2
REMARK    2  A    between atoms: C_2  and  N_3
REMARK    3  A    between atoms: C_4  and  C_6
REMARK    4  A    between atoms: C_6  and  N_7
REMARK    5  A    between atoms: N_15  and  N_16
REMARK    6  A    between atoms: C_17  and  C_19
REMARK    7  A    between atoms: C_22  and  C_25
REMARK    8  A    between atoms: C_25  and  C_26
REMARK    9  A    between atoms: C_25  and  C_27
REMARK   10  A    between atoms: C_25  and  C_28
REMARK                            x       y       z     vdW  Elec       q    Type
REMARK                         _______ _______ _______ _____ _____    ______ ____
ROOT
ATOM      1  N   UNL     1       1.552  -3.749  -2.673  0.00  0.00    -0.257 N 
ATOM      2  C   UNL     1       2.560  -4.522  -2.107  0.00  0.00    +0.047 A 
ATOM      3  C   UNL     1       3.727  -4.171  -1.437  0.00  0.00    +0.024 A 
ATOM      4  C   UNL     1       4.576  -5.152  -0.965  0.00  0.00    +0.002 A 
ATOM      5  C   UNL     1       4.280  -6.491  -1.152  0.00  0.00    +0.001 A 
ATOM      6  C   UNL     1       3.127  -6.859  -1.815  0.00  0.00    +0.012 A 
ATOM      7  C   UNL     1       2.264  -5.878  -2.294  0.00  0.00    +0.028 A 
ATOM      8  C   UNL     1       0.979  -5.929  -3.028  0.00  0.00    +0.153 C 
ATOM      9  N   UNL     1       0.322  -6.995  -3.417  0.00  0.00    -0.174 NA
ATOM     10  C   UNL     1       0.595  -4.516  -3.223  0.00  0.00    +0.272 C 
ATOM     11  O   UNL     1      -0.408  -4.117  -3.784  0.00  0.00    -0.268 OA
ENDROOT
BRANCH   9  12
ATOM     12  N   UNL     1      -0.889  -6.860  -4.106  0.00  0.00    -0.202 N 
ATOM     13  C   UNL     1      -1.564  -7.956  -4.506  0.00  0.00    +0.263 C 
ATOM     14  O   UNL     1      -1.121  -9.062  -4.267  0.00  0.00    -0.268 OA
ATOM     15  H   UNL     1      -1.243  -5.977  -4.297  0.00  0.00    +0.178 HD
BRANCH  13  16
ATOM     16  C   UNL     1      -2.842  -7.813  -5.233  0.00  0.00    +0.038 A 
ATOM     17  C   UNL     1      -3.351  -6.543  -5.514  0.00  0.00    +0.013 A 
ATOM     18  C   UNL     1      -4.544  -6.416  -6.193  0.00  0.00    +0.005 A 
ATOM     19  C   UNL     1      -5.238  -7.544  -6.596  0.00  0.00    -0.042 A 
ATOM     20  C   UNL     1      -4.739  -8.805  -6.321  0.00  0.00    +0.005 A 
ATOM     21  C   UNL     1      -3.544  -8.946  -5.648  0.00  0.00    +0.013 A 
BRANCH  19  22
ATOM     22  C   UNL     1      -6.541  -7.398  -7.338  0.00  0.00    -0.013 C 
ATOM     23  C   UNL     1      -6.306  -6.623  -8.636  0.00  0.00    +0.015 C 
ATOM     24  C   UNL     1      -7.100  -8.784  -7.666  0.00  0.00    +0.015 C 
ATOM     25  C   UNL     1      -7.542  -6.638  -6.465  0.00  0.00    +0.015 C 
ENDBRANCH  19  22
ENDBRANCH  13  16
ENDBRANCH   9  12
BRANCH   1  26
ATOM     26  C   UNL     1       1.532  -2.285  -2.665  0.00  0.00    +0.209 C 
BRANCH  26  28
ATOM     27  N   UNL     1       0.688  -0.476  -1.203  0.00  0.00    -0.314 N 
ATOM     28  C   UNL     1       0.827  -1.799  -1.425  0.00  0.00    +0.231 C 
ATOM     29  O   UNL     1       0.384  -2.597  -0.627  0.00  0.00    -0.274 OA
ATOM     30  H   UNL     1       1.042   0.162  -1.842  0.00  0.00    +0.149 HD
BRANCH  27  32
ATOM     31  C   UNL     1      -0.019   1.526   0.010  0.00  0.00    +0.024 C 
ATOM     32  C   UNL     1       0.002  -0.004   0.002  0.00  0.00    +0.101 C 
ENDBRANCH  27  32
ENDBRANCH  26  28
ENDBRANCH   1  26
TORSDOF 6
