REMARK  Name = ZINC05777240
REMARK  4 active torsions:
REMARK  status: ('A' for Active; 'I' for Inactive)
REMARK    1  A    between atoms: C_11  and  C_19
REMARK    2  A    between atoms: C_13  and  C_17
REMARK    3  A    between atoms: C_14  and  N_16
REMARK    4  A    between atoms: C_22  and  C_25
REMARK                            x       y       z     vdW  Elec       q    Type
REMARK                         _______ _______ _______ _____ _____    ______ ____
ROOT
ATOM      1  C   UNL     1       3.607   3.445  -0.011  0.00  0.00    +0.001 A 
ATOM      2  C   UNL     1       2.399   4.141   0.001  0.00  0.00    +0.001 A 
ATOM      3  C   UNL     1       1.209   3.480   0.007  0.00  0.00    +0.009 A 
ATOM      4  C   UNL     1       1.195   2.074   0.002  0.00  0.00    -0.010 A 
ATOM      5  C   UNL     1       2.423   1.367  -0.012  0.00  0.00    -0.017 A 
ATOM      6  C   UNL     1       3.631   2.084  -0.017  0.00  0.00    +0.008 A 
ATOM      7  C   UNL     1       2.408  -0.038  -0.021  0.00  0.00    +0.012 A 
ATOM      8  C   UNL     1       1.220  -0.698  -0.013  0.00  0.00    +0.047 A 
ATOM      9  C   UNL     1       0.002  -0.004   0.002  0.00  0.00    +0.135 A 
ATOM     10  C   UNL     1      -0.016   1.360   0.009  0.00  0.00    +0.015 A 
ATOM     11  C   UNL     1      -1.319   2.115   0.032  0.00  0.00    +0.098 C 
ATOM     12  C   UNL     1      -2.449   1.213  -0.383  0.00  0.00    +0.098 C 
ATOM     13  C   UNL     1      -2.304  -0.134  -0.368  0.00  0.00    +0.199 C 
ATOM     14  O   UNL     1      -1.154  -0.715   0.010  0.00  0.00    -0.441 OA
ENDROOT
BRANCH  11  15
ATOM     15  C   UNL     1      -1.569   2.637   1.424  0.00  0.00    -0.035 A 
ATOM     16  C   UNL     1      -1.678   1.756   2.483  0.00  0.00    +0.005 A 
ATOM     17  C   UNL     1      -1.902   2.235   3.760  0.00  0.00    +0.012 A 
ATOM     18  C   UNL     1      -2.028   3.594   3.977  0.00  0.00    +0.055 A 
ATOM     19  C   UNL     1      -1.924   4.475   2.916  0.00  0.00    +0.012 A 
ATOM     20  C   UNL     1      -1.694   3.997   1.640  0.00  0.00    +0.005 A 
BRANCH  18  21
ATOM     21  C   UNL     1      -2.279   4.116   5.368  0.00  0.00    +0.417 C 
ATOM     22  F   UNL     1      -3.657   4.190   5.597  0.00  0.00    -0.166 F 
ATOM     23  F   UNL     1      -1.696   3.253   6.302  0.00  0.00    -0.166 F 
ATOM     24  F   UNL     1      -1.716   5.391   5.496  0.00  0.00    -0.166 F 
ENDBRANCH  18  21
ENDBRANCH  11  15
BRANCH  13  25
ATOM     25  N   UNL     1      -3.360  -0.925  -0.749  0.00  0.00    -0.328 N 
ATOM     26  H   UNL     1      -3.269  -1.891  -0.743  0.00  0.00    +0.145 HD
ATOM     27  H   UNL     1      -4.196  -0.518  -1.025  0.00  0.00    +0.145 HD
ENDBRANCH  13  25
BRANCH  12  28
ATOM     28  C   UNL     1      -3.696   1.785  -0.793  0.00  0.00    +0.101 C 
ATOM     29  N   UNL     1      -4.685   2.239  -1.119  0.00  0.00    -0.191 NA
ENDBRANCH  12  28
TORSDOF 4
