REMARK  Name = ZINC25589151
REMARK  12 active torsions:
REMARK  status: ('A' for Active; 'I' for Inactive)
REMARK    1  A    between atoms: C_1  and  C_2
REMARK    2  A    between atoms: C_2  and  C_3
REMARK    3  A    between atoms: C_4  and  C_25
REMARK    4  A    between atoms: C_5  and  N_24
REMARK    5  A    between atoms: C_7  and  S_9
REMARK    6  A    between atoms: S_9  and  C_10
REMARK    7  A    between atoms: C_10  and  C_12
REMARK    8  A    between atoms: C_10  and  C_13
REMARK    9  A    between atoms: N_15  and  C_16
REMARK   10  A    between atoms: C_17  and  C_23
REMARK   11  A    between atoms: N_19  and  C_22
REMARK   12  A    between atoms: C_20  and  C_21
REMARK                            x       y       z     vdW  Elec       q    Type
REMARK                         _______ _______ _______ _____ _____    ______ ____
ROOT
ATOM      1  C   UNL     1      -3.412   2.077  -0.100  0.00  0.00    +0.055 A 
ATOM      2  C   UNL     1      -2.444   1.558  -0.957  0.00  0.00    +0.043 A 
ATOM      3  C   UNL     1      -2.787   0.454  -1.759  0.00  0.00    +0.129 A 
ATOM      4  N   UNL     1      -4.009  -0.056  -1.660  0.00  0.00    -0.207 NA
ATOM      5  C   UNL     1      -4.898   0.471  -0.830  0.00  0.00    +0.191 A 
ATOM      6  N   UNL     1      -4.609   1.515  -0.064  0.00  0.00    -0.226 NA
ENDROOT
BRANCH   2   7
ATOM      7  C   UNL     1      -1.090   2.158  -1.028  0.00  0.00    -0.013 A 
ATOM      8  C   UNL     1      -0.687   2.842  -2.174  0.00  0.00    +0.010 A 
ATOM      9  C   UNL     1       0.573   3.403  -2.232  0.00  0.00    +0.020 A 
ATOM     10  C   UNL     1       1.437   3.283  -1.157  0.00  0.00    +0.041 A 
ATOM     11  C   UNL     1       1.043   2.601  -0.019  0.00  0.00    +0.020 A 
ATOM     12  C   UNL     1      -0.214   2.036   0.050  0.00  0.00    +0.010 A 
ATOM     13 CL   UNL     1       3.020   3.992  -1.237  0.00  0.00    -0.084 Cl
ENDBRANCH   2   7
BRANCH   3  14
ATOM     14  N   UNL     1      -1.865  -0.096  -2.632  0.00  0.00    -0.343 N 
ATOM     15  H   UNL     1      -2.143  -0.959  -3.254  0.00  0.00    +0.144 HD
ATOM     16  H   UNL     1      -0.854   0.331  -2.703  0.00  0.00    +0.144 HD
ENDBRANCH   3  14
BRANCH   1  18
ATOM     17  C   UNL     1      -3.547   4.547   0.076  0.00  0.00    +0.010 C 
ATOM     18  C   UNL     1      -3.099   3.263   0.776  0.00  0.00    +0.053 C 
ENDBRANCH   1  18
BRANCH   5  19
ATOM     19  S   UNL     1      -6.509  -0.235  -0.740  0.00  0.00    -0.074 S 
BRANCH  19  20
ATOM     20  C   UNL     1      -6.335  -1.569  -1.951  0.00  0.00    +0.137 C 
ATOM     21  C   UNL     1      -5.304  -2.582  -1.449  0.00  0.00    +0.029 C 
BRANCH  20  22
ATOM     22  C   UNL     1      -7.664  -2.256  -2.136  0.00  0.00    +0.230 C 
ATOM     23  O   UNL     1      -8.526  -2.149  -1.289  0.00  0.00    -0.274 OA
ATOM     24  N   UNL     1      -7.895  -2.989  -3.243  0.00  0.00    -0.282 N 
ATOM     25  H   UNL     1      -7.087  -3.158  -3.970  0.00  0.00    +0.155 HD
BRANCH  24  26
ATOM     26  C   UNL     1      -9.171  -3.538  -3.470  0.00  0.00    +0.077 A 
ATOM     27  C   UNL     1      -9.954  -4.226  -2.531  0.00  0.00    +0.081 A 
ATOM     28  N   UNL     1     -11.072  -4.582  -3.109  0.00  0.00    -0.175 NA
ATOM     29  N   UNL     1     -11.045  -4.135  -4.436  0.00  0.00    -0.270 N 
ATOM     30  C   UNL     1      -9.867  -3.490  -4.635  0.00  0.00    +0.057 A 
ATOM     31  C   UNL     1      -9.412  -2.842  -5.918  0.00  0.00    +0.067 C 
ATOM     32  C   UNL     1     -12.103  -4.325  -5.432  0.00  0.00    +0.172 C 
ATOM     33  C   UNL     1      -9.571  -4.506  -1.101  0.00  0.00    +0.069 C 
ENDBRANCH  24  26
ENDBRANCH  20  22
ENDBRANCH  19  20
ENDBRANCH   5  19
TORSDOF 7
