REMARK  Name = ZINC51173076
REMARK  2 active torsions:
REMARK  status: ('A' for Active; 'I' for Inactive)
REMARK    1  A    between atoms: C_6  and  C_7
REMARK    2  A    between atoms: C_7  and  C_9
REMARK                            x       y       z     vdW  Elec       q    Type
REMARK                         _______ _______ _______ _____ _____    ______ ____
ROOT
ATOM      1  C   UNL     1      -0.017   1.379   0.010  0.00  0.00    +0.007 A 
ATOM      2  C   UNL     1       1.168   2.090   0.002  0.00  0.00    +0.030 A 
ATOM      3  C   UNL     1       2.377   1.414  -0.013  0.00  0.00    +0.087 A 
ATOM      4  C   UNL     1       2.397   0.019  -0.021  0.00  0.00    +0.157 A 
ATOM      5  C   UNL     1       1.204  -0.685  -0.013  0.00  0.00    +0.054 A 
ATOM      6  C   UNL     1       0.002  -0.004   0.002  0.00  0.00    -0.021 A 
ATOM      7  O   UNL     1       3.697  -0.364  -0.036  0.00  0.00    -0.408 OA
ATOM      8  C   UNL     1       4.479   0.727  -0.038  0.00  0.00    +0.419 A 
ATOM      9  O   UNL     1       5.695   0.719  -0.050  0.00  0.00    -0.223 OA
ATOM     10  N   UNL     1       3.708   1.832  -0.024  0.00  0.00    -0.288 N 
ATOM     11  H   UNL     1       4.021   2.750  -0.022  0.00  0.00    +0.172 HD
ENDROOT
BRANCH   6  12
ATOM     12  C   UNL     1      -1.295  -0.772   0.010  0.00  0.00    +0.147 C 
ATOM     13 CL   UNL     1      -2.295  -0.246   1.415  0.00  0.00    -0.111 Cl
BRANCH  12  14
ATOM     14  C   UNL     1      -2.045  -0.504  -1.269  0.00  0.00    +0.013 A 
ATOM     15  C   UNL     1      -2.366  -1.364  -2.266  0.00  0.00    +0.014 A 
ATOM     16  C   UNL     1      -3.067  -0.891  -3.360  0.00  0.00    +0.028 A 
ATOM     17  C   UNL     1      -3.414   0.420  -3.401  0.00  0.00    +0.078 A 
ATOM     18  S   UNL     1      -2.749   1.027  -1.860  0.00  0.00    -0.080 S 
ATOM     19 CL   UNL     1      -4.284   1.282  -4.632  0.00  0.00    -0.076 Cl
ENDBRANCH  12  14
ENDBRANCH   6  12
TORSDOF 2
