REMARK  Name = ZINC06446394
REMARK  6 active torsions:
REMARK  status: ('A' for Active; 'I' for Inactive)
REMARK    1  A    between atoms: C_4  and  C_7
REMARK    2  A    between atoms: C_7  and  C_8
REMARK    3  A    between atoms: C_13  and  C_15
REMARK    4  A    between atoms: C_13  and  C_30
REMARK    5  A    between atoms: C_13  and  N_70
REMARK    6  A    between atoms: N_34  and  C_35
REMARK                            x       y       z     vdW  Elec       q    Type
REMARK                         _______ _______ _______ _____ _____    ______ ____
ROOT
ATOM      1  C   UNL     1       2.467   1.063  -0.015  0.00  0.00    +0.039 C 
ENDROOT
BRANCH   1   2
ATOM      2  C   UNL     1       1.235   1.923   0.100  0.00  0.00    +0.011 A 
ATOM      3  C   UNL     1       1.055   2.702   1.197  0.00  0.00    +0.017 A 
ATOM      4  C   UNL     1      -0.154   3.520   1.282  0.00  0.00    +0.002 A 
ATOM      5  C   UNL     1      -0.394   4.340   2.392  0.00  0.00    +0.059 A 
ATOM      6  C   UNL     1      -1.542   5.099   2.444  0.00  0.00    +0.167 A 
ATOM      7  C   UNL     1      -2.467   5.053   1.393  0.00  0.00    +0.168 A 
ATOM      8  C   UNL     1      -2.233   4.254   0.289  0.00  0.00    +0.075 A 
ATOM      9  C   UNL     1      -1.082   3.480   0.223  0.00  0.00    +0.053 A 
ATOM     10  N   UNL     1      -0.838   2.666  -0.865  0.00  0.00    -0.322 N 
ATOM     11  H   UNL     1      -1.479   2.637  -1.593  0.00  0.00    +0.169 HD
ATOM     12  C   UNL     1       0.274   1.915  -0.931  0.00  0.00    +0.251 A 
ATOM     13  O   UNL     1       0.457   1.208  -1.908  0.00  0.00    -0.268 OA
ATOM     14  O   UNL     1      -3.504   5.889   1.693  0.00  0.00    -0.453 OA
ATOM     15  C   UNL     1      -3.409   6.129   3.109  0.00  0.00    +0.466 C 
ATOM     16  O   UNL     1      -2.008   5.964   3.394  0.00  0.00    -0.453 OA
ENDBRANCH   1   2
BRANCH   1  22
ATOM     17  C   UNL     1       5.444   2.483  -2.737  0.00  0.00    -0.010 C 
ATOM     18  C   UNL     1       5.142   0.983  -2.665  0.00  0.00    -0.015 C 
ATOM     19  C   UNL     1       4.461   0.669  -1.331  0.00  0.00    -0.077 C 
ATOM     20  C   UNL     1       3.487   2.886  -1.240  0.00  0.00    -0.077 C 
ATOM     21  C   UNL     1       4.139   3.266  -2.571  0.00  0.00    -0.015 C 
ATOM     22  N   UNL     1       3.200   1.435  -1.243  0.00  0.00    +0.389 N 
ATOM     23  H   UNL     1       2.618   1.213  -2.059  0.00  0.00    -0.080 HD
BRANCH  17  24
ATOM     24  C   UNL     1       6.069   2.813  -4.094  0.00  0.00    +0.038 C 
BRANCH  24  28
ATOM     25  C   UNL     1       7.228   6.924  -4.165  0.00  0.00    +0.000 A 
ATOM     26  C   UNL     1       8.119   5.963  -3.727  0.00  0.00    +0.000 A 
ATOM     27  C   UNL     1       7.744   4.632  -3.705  0.00  0.00    +0.003 A 
ATOM     28  C   UNL     1       6.478   4.264  -4.119  0.00  0.00    -0.047 A 
ATOM     29  C   UNL     1       5.588   5.225  -4.560  0.00  0.00    +0.003 A 
ATOM     30  C   UNL     1       5.961   6.556  -4.579  0.00  0.00    +0.000 A 
ENDBRANCH  24  28
ENDBRANCH  17  24
ENDBRANCH   1  22
BRANCH   1  31
ATOM     31  C   UNL     1       3.335   1.263   1.201  0.00  0.00    +0.143 A 
ATOM     32  N   UNL     1       4.094   2.300   1.459  0.00  0.00    -0.115 NA
ATOM     33  N   UNL     1       4.674   2.096   2.591  0.00  0.00    -0.023 NA
ATOM     34  N   UNL     1       4.311   0.953   3.058  0.00  0.00    -0.044 NA
ATOM     35  N   UNL     1       3.485   0.408   2.230  0.00  0.00    -0.227 N 
BRANCH  35  36
ATOM     36  C   UNL     1       2.834  -0.895   2.381  0.00  0.00    +0.111 C 
ATOM     37  C   UNL     1       2.020  -0.931   3.690  0.00  0.00    +0.027 C 
ATOM     38  C   UNL     1       2.212  -2.376   4.216  0.00  0.00    +0.002 C 
ATOM     39  C   UNL     1       3.690  -2.676   3.864  0.00  0.00    +0.002 C 
ATOM     40  C   UNL     1       3.895  -2.005   2.491  0.00  0.00    +0.027 C 
ENDBRANCH  35  36
ENDBRANCH   1  31
TORSDOF 6
