REMARK  Name = ZINC06405507
REMARK  11 active torsions:
REMARK  status: ('A' for Active; 'I' for Inactive)
REMARK    1  A    between atoms: C_1  and  C_2
REMARK    2  A    between atoms: C_5  and  C_41
REMARK    3  A    between atoms: C_9  and  C_14
REMARK    4  A    between atoms: C_14  and  C_16
REMARK    5  A    between atoms: C_14  and  N_76
REMARK    6  A    between atoms: N_20  and  C_21
REMARK    7  A    between atoms: C_26  and  C_27
REMARK    8  A    between atoms: C_26  and  N_76
REMARK    9  A    between atoms: C_27  and  C_28
REMARK   10  A    between atoms: C_34  and  C_35
REMARK   11  A    between atoms: C_34  and  N_76
REMARK                            x       y       z     vdW  Elec       q    Type
REMARK                         _______ _______ _______ _____ _____    ______ ____
ROOT
ATOM      1  C   UNL     1      -0.312   0.392  -0.045  0.00  0.00    +0.039 C 
ENDROOT
BRANCH   1  10
ATOM      2  C   UNL     1      -4.216   3.334   1.747  0.00  0.00    +0.044 C 
ATOM      3  C   UNL     1      -2.959   4.161   1.827  0.00  0.00    -0.041 A 
ATOM      4  C   UNL     1      -3.008   5.439   2.309  0.00  0.00    +0.004 A 
ATOM      5  C   UNL     1      -1.856   6.209   2.386  0.00  0.00    +0.005 A 
ATOM      6  C   UNL     1      -0.641   5.701   1.978  0.00  0.00    -0.026 A 
ATOM      7  C   UNL     1      -0.567   4.403   1.484  0.00  0.00    +0.052 A 
ATOM      8  C   UNL     1      -1.738   3.624   1.408  0.00  0.00    +0.002 A 
ATOM      9  C   UNL     1      -1.650   2.261   0.882  0.00  0.00    +0.018 A 
ATOM     10  C   UNL     1      -0.438   1.792   0.496  0.00  0.00    +0.011 A 
ATOM     11  C   UNL     1       0.706   2.614   0.593  0.00  0.00    +0.251 A 
ATOM     12  O   UNL     1       1.785   2.174   0.236  0.00  0.00    -0.268 OA
ATOM     13  N   UNL     1       0.635   3.869   1.070  0.00  0.00    -0.322 N 
ATOM     14  H   UNL     1       1.440   4.407   1.123  0.00  0.00    +0.169 HD
ATOM     15  C   UNL     1       0.602   6.548   2.067  0.00  0.00    +0.046 C 
ENDBRANCH   1  10
BRANCH   1  16
ATOM     16  C   UNL     1       0.505  -0.443   0.906  0.00  0.00    +0.143 A 
ATOM     17  N   UNL     1       1.810  -0.572   0.913  0.00  0.00    -0.115 NA
ATOM     18  N   UNL     1       2.127  -1.366   1.877  0.00  0.00    -0.023 NA
ATOM     19  N   UNL     1       1.058  -1.754   2.480  0.00  0.00    -0.044 NA
ATOM     20  N   UNL     1       0.037  -1.207   1.911  0.00  0.00    -0.227 N 
BRANCH  20  21
ATOM     21  C   UNL     1      -1.368  -1.384   2.288  0.00  0.00    +0.111 C 
ATOM     22  C   UNL     1      -1.586  -0.929   3.745  0.00  0.00    +0.027 C 
ATOM     23  C   UNL     1      -2.617  -1.940   4.308  0.00  0.00    +0.002 C 
ATOM     24  C   UNL     1      -2.179  -3.275   3.655  0.00  0.00    +0.002 C 
ATOM     25  C   UNL     1      -1.745  -2.875   2.230  0.00  0.00    +0.027 C 
ENDBRANCH  20  21
ENDBRANCH   1  16
BRANCH   1  26
ATOM     26  N   UNL     1       0.378   0.441  -1.352  0.00  0.00    +0.392 N 
ATOM     27  H   UNL     1       1.322   0.820  -1.216  0.00  0.00    -0.080 HD
BRANCH  26  28
ATOM     28  C   UNL     1      -0.363   1.320  -2.281  0.00  0.00    -0.072 C 
BRANCH  28  29
ATOM     29  C   UNL     1       0.506   1.579  -3.513  0.00  0.00    +0.016 C 
BRANCH  29  30
ATOM     30  C   UNL     1      -0.183   2.569  -4.416  0.00  0.00    -0.049 A 
ATOM     31  C   UNL     1      -1.039   2.123  -5.405  0.00  0.00    +0.003 A 
ATOM     32  C   UNL     1      -1.676   3.032  -6.230  0.00  0.00    +0.000 A 
ATOM     33  C   UNL     1      -1.448   4.386  -6.072  0.00  0.00    +0.000 A 
ATOM     34  C   UNL     1      -0.588   4.832  -5.086  0.00  0.00    +0.000 A 
ATOM     35  C   UNL     1       0.044   3.923  -4.258  0.00  0.00    +0.003 A 
ENDBRANCH  29  30
ENDBRANCH  28  29
ENDBRANCH  26  28
BRANCH  26  36
ATOM     36  C   UNL     1       0.482  -0.920  -1.920  0.00  0.00    -0.042 C 
BRANCH  36  37
ATOM     37  C   UNL     1      -0.888  -1.501  -2.156  0.00  0.00    -0.064 A 
ATOM     38  C   UNL     1      -1.489  -2.272  -1.179  0.00  0.00    +0.002 A 
ATOM     39  C   UNL     1      -2.748  -2.800  -1.394  0.00  0.00    +0.000 A 
ATOM     40  C   UNL     1      -3.401  -2.567  -2.590  0.00  0.00    +0.000 A 
ATOM     41  C   UNL     1      -2.797  -1.801  -3.569  0.00  0.00    +0.000 A 
ATOM     42  C   UNL     1      -1.540  -1.267  -3.352  0.00  0.00    +0.002 A 
ENDBRANCH  36  37
ENDBRANCH  26  36
ENDBRANCH   1  26
TORSDOF 9
