REMARK  Name = ZINC09347113
REMARK  7 active torsions:
REMARK  status: ('A' for Active; 'I' for Inactive)
REMARK    1  A    between atoms: C_1  and  C_2
REMARK    2  A    between atoms: C_2  and  C_3
REMARK    3  A    between atoms: C_3  and  C_5
REMARK    4  A    between atoms: C_3  and  S_21
REMARK    5  A    between atoms: C_11  and  C_13
REMARK    6  A    between atoms: S_21  and  C_22
REMARK    7  A    between atoms: N_26  and  C_27
REMARK                            x       y       z     vdW  Elec       q    Type
REMARK                         _______ _______ _______ _____ _____    ______ ____
ROOT
ATOM      1  C   UNL     1       5.141   3.256  -0.247  0.00  0.00    +0.232 C 
ATOM      2  O   UNL     1       5.693   2.189  -0.079  0.00  0.00    -0.274 OA
ATOM      3  N   UNL     1       5.845   4.317  -0.689  0.00  0.00    -0.262 N 
ATOM      4  C   UNL     1       7.204   4.189  -0.952  0.00  0.00    +0.188 A 
ATOM      5  N   UNL     1       7.997   3.132  -0.839  0.00  0.00    -0.125 NA
ATOM      6  N   UNL     1       9.225   3.187  -1.123  0.00  0.00    -0.140 NA
ATOM      7  C   UNL     1       9.796   4.306  -1.552  0.00  0.00    +0.135 A 
ATOM      8  S   UNL     1       8.380   5.401  -1.545  0.00  0.00    -0.030 S 
ATOM      9  H   UNL     1       5.404   5.170  -0.823  0.00  0.00    +0.157 HD
ENDROOT
BRANCH   7  10
ATOM     10  C   UNL     1      11.200   4.571  -1.931  0.00  0.00    +0.027 A 
ATOM     11  C   UNL     1      11.581   5.841  -2.365  0.00  0.00    +0.013 A 
ATOM     12  C   UNL     1      12.893   6.084  -2.713  0.00  0.00    +0.021 A 
ATOM     13  C   UNL     1      13.831   5.067  -2.643  0.00  0.00    +0.042 A 
ATOM     14  C   UNL     1      13.460   3.803  -2.218  0.00  0.00    +0.040 A 
ATOM     15  C   UNL     1      12.150   3.549  -1.862  0.00  0.00    +0.052 A 
ATOM     16 CL   UNL     1      11.685   1.963  -1.331  0.00  0.00    -0.083 Cl
ATOM     17 CL   UNL     1      15.479   5.380  -3.089  0.00  0.00    -0.083 Cl
ENDBRANCH   7  10
BRANCH   1  18
ATOM     18  C   UNL     1       3.668   3.395   0.038  0.00  0.00    +0.140 C 
BRANCH  18  20
ATOM     19  C   UNL     1       1.984   4.316   1.638  0.00  0.00    +0.005 C 
ATOM     20  C   UNL     1       3.473   4.047   1.408  0.00  0.00    +0.020 C 
ENDBRANCH  18  20
BRANCH  18  21
ATOM     21  S   UNL     1       2.895   1.758   0.032  0.00  0.00    -0.073 S 
BRANCH  21  22
ATOM     22  C   UNL     1       3.056   1.350  -1.674  0.00  0.00    +0.192 A 
ATOM     23  N   UNL     1       3.516   2.131  -2.624  0.00  0.00    -0.123 NA
ATOM     24  N   UNL     1       3.493   1.510  -3.749  0.00  0.00    -0.137 NA
ATOM     25  C   UNL     1       3.025   0.305  -3.585  0.00  0.00    +0.225 A 
ATOM     26  N   UNL     1       2.725   0.161  -2.259  0.00  0.00    -0.312 N 
ATOM     27  C   UNL     1       2.170  -1.024  -1.601  0.00  0.00    +0.152 C 
ENDBRANCH  21  22
ENDBRANCH  18  21
ENDBRANCH   1  18
TORSDOF 5
