REMARK  Name = ZINC11639946
REMARK  7 active torsions:
REMARK  status: ('A' for Active; 'I' for Inactive)
REMARK    1  A    between atoms: C_1  and  C_2
REMARK    2  A    between atoms: C_6  and  N_9
REMARK    3  A    between atoms: C_7  and  C_8
REMARK    4  A    between atoms: N_9  and  C_10
REMARK    5  A    between atoms: C_15  and  C_16
REMARK    6  A    between atoms: N_18  and  N_19
REMARK    7  A    between atoms: C_20  and  C_22
REMARK                            x       y       z     vdW  Elec       q    Type
REMARK                         _______ _______ _______ _____ _____    ______ ____
ROOT
ATOM      1  C   UNL     1       0.130  -4.180   2.282  0.00  0.00    +0.044 A 
ATOM      2  C   UNL     1       0.206  -4.779   1.031  0.00  0.00    +0.024 A 
ATOM      3  C   UNL     1       0.231  -6.155   0.923  0.00  0.00    +0.002 A 
ATOM      4  C   UNL     1       0.181  -6.948   2.058  0.00  0.00    +0.001 A 
ATOM      5  C   UNL     1       0.106  -6.373   3.308  0.00  0.00    +0.015 A 
ATOM      6  C   UNL     1       0.085  -4.981   3.434  0.00  0.00    +0.059 A 
ENDROOT
BRANCH   6   7
ATOM      7  C   UNL     1       0.011  -4.358   4.768  0.00  0.00    +0.262 C 
ATOM      8  O   UNL     1      -0.127  -3.155   4.870  0.00  0.00    -0.269 OA
ATOM      9  N   UNL     1       0.095  -5.123   5.875  0.00  0.00    -0.230 N 
ATOM     10  H   UNL     1       0.205  -6.084   5.793  0.00  0.00    +0.173 HD
BRANCH   9  11
ATOM     11  N   UNL     1       0.024  -4.532   7.143  0.00  0.00    -0.230 N 
ATOM     12  C   UNL     1       0.108  -5.296   8.249  0.00  0.00    +0.262 C 
ATOM     13  O   UNL     1       0.246  -6.500   8.147  0.00  0.00    -0.269 OA
ATOM     14  H   UNL     1      -0.085  -3.571   7.224  0.00  0.00    +0.173 HD
BRANCH  12  15
ATOM     15  C   UNL     1       0.034  -4.672   9.587  0.00  0.00    +0.056 A 
ATOM     16  C   UNL     1       0.126  -5.455  10.744  0.00  0.00    +0.016 A 
ATOM     17  C   UNL     1       0.051  -4.821  11.972  0.00  0.00    +0.020 A 
ATOM     18  C   UNL     1      -0.111  -3.448  12.017  0.00  0.00    +0.111 A 
ATOM     19  N   UNL     1      -0.195  -2.736  10.909  0.00  0.00    -0.263 NA
ATOM     20  C   UNL     1      -0.124  -3.292   9.718  0.00  0.00    +0.123 A 
ENDBRANCH  12  15
ENDBRANCH   9  11
ENDBRANCH   6   7
BRANCH   1  21
ATOM     21  N   UNL     1       0.105  -2.796   2.393  0.00  0.00    -0.314 N 
ATOM     22  H   UNL     1      -0.713  -2.309   2.205  0.00  0.00    +0.152 HD
BRANCH  21  28
ATOM     23  C   UNL     1       2.403   1.472   3.212  0.00  0.00    +0.044 C 
ATOM     24  C   UNL     1       2.400  -0.035   3.181  0.00  0.00    -0.046 A 
ATOM     25  C   UNL     1       3.540  -0.735   3.533  0.00  0.00    +0.004 A 
ATOM     26  C   UNL     1       3.542  -2.118   3.506  0.00  0.00    +0.002 A 
ATOM     27  C   UNL     1       2.404  -2.804   3.129  0.00  0.00    +0.023 A 
ATOM     28  C   UNL     1       1.258  -2.104   2.776  0.00  0.00    +0.035 A 
ATOM     29  C   UNL     1       1.258  -0.715   2.808  0.00  0.00    -0.026 A 
ATOM     30  C   UNL     1       0.014   0.048   2.432  0.00  0.00    +0.046 C 
ENDBRANCH  21  28
ENDBRANCH   1  21
TORSDOF 5
