REMARK  Name = ZINC12499559
REMARK  3 active torsions:
REMARK  status: ('A' for Active; 'I' for Inactive)
REMARK    1  A    between atoms: C_4  and  N_7
REMARK    2  A    between atoms: C_19  and  N_21
REMARK    3  A    between atoms: C_22  and  C_24
REMARK                            x       y       z     vdW  Elec       q    Type
REMARK                         _______ _______ _______ _____ _____    ______ ____
ROOT
ATOM      1  N   UNL     1      -7.399  -1.997  -2.788  0.00  0.00    -0.296 N 
ATOM      2  C   UNL     1      -6.358  -1.941  -3.643  0.00  0.00    +0.303 C 
ATOM      3  O   UNL     1      -5.854  -2.968  -4.054  0.00  0.00    -0.253 OA
ATOM      4  N   UNL     1      -5.876  -0.747  -4.041  0.00  0.00    -0.279 N 
ATOM      5  C   UNL     1      -4.678  -0.635  -4.894  0.00  0.00    +0.080 C 
ATOM      6  C   UNL     1      -5.090   0.079  -6.187  0.00  0.00    +0.023 C 
ATOM      7  C   UNL     1      -5.726   1.428  -5.854  0.00  0.00    +0.004 C 
ATOM      8  C   UNL     1      -6.941   1.241  -4.946  0.00  0.00    +0.023 C 
ATOM      9  C   UNL     1      -6.522   0.522  -3.657  0.00  0.00    +0.080 C 
ATOM     10  C   UNL     1      -5.492   1.382  -2.918  0.00  0.00    +0.045 C 
ATOM     11  C   UNL     1      -4.176   0.615  -2.781  0.00  0.00    +0.076 C 
ATOM     12  C   UNL     1      -3.643   0.223  -4.158  0.00  0.00    +0.045 C 
ATOM     13  H   UNL     1      -7.908  -1.071  -2.481  0.00  0.00    +0.151 HD
ENDROOT
BRANCH   1  17
ATOM     14  C   UNL     1     -10.006  -5.067  -1.383  0.00  0.00    +0.000 C 
ATOM     15  C   UNL     1      -9.034  -4.431  -0.387  0.00  0.00    +0.002 C 
ATOM     16  C   UNL     1      -8.560  -3.081  -0.929  0.00  0.00    +0.022 C 
ATOM     17  C   UNL     1      -7.853  -3.289  -2.270  0.00  0.00    +0.074 C 
ATOM     18  C   UNL     1      -8.826  -3.925  -3.265  0.00  0.00    +0.022 C 
ATOM     19  C   UNL     1      -9.300  -5.276  -2.724  0.00  0.00    +0.002 C 
ENDBRANCH   1  17
BRANCH  11  20
ATOM     20  N   UNL     1      -3.190   1.467  -2.107  0.00  0.00    -0.312 N 
ATOM     21  C   UNL     1      -2.168   0.908  -1.429  0.00  0.00    +0.216 C 
ATOM     22  O   UNL     1      -2.064  -0.299  -1.376  0.00  0.00    -0.276 OA
ATOM     23  H   UNL     1      -3.285   2.562  -2.155  0.00  0.00    +0.149 HD
BRANCH  21  24
ATOM     24  C   UNL     1      -1.155   1.783  -0.737  0.00  0.00    +0.075 C 
ATOM     25  C   UNL     1      -0.018   1.088   0.016  0.00  0.00    +0.013 C 
ATOM     26  C   UNL     1      -1.143   1.775   0.794  0.00  0.00    +0.013 C 
ENDBRANCH  21  24
ENDBRANCH  11  20
TORSDOF 3
