REMARK  Name = ZINC40143224
REMARK  4 active torsions:
REMARK  status: ('A' for Active; 'I' for Inactive)
REMARK    1  A    between atoms: C_1  and  C_2
REMARK    2  A    between atoms: C_7  and  C_13
REMARK    3  A    between atoms: N_14  and  C_15
REMARK    4  A    between atoms: C_20  and  O_21
REMARK                            x       y       z     vdW  Elec       q    Type
REMARK                         _______ _______ _______ _____ _____    ______ ____
ROOT
ATOM      1  C   UNL     1       1.005   1.434  -0.066  0.00  0.00    +0.044 C 
ATOM      2  C   UNL     1       0.784  -0.057  -0.056  0.00  0.00    -0.048 A 
ATOM      3  C   UNL     1       0.515  -0.717  -1.253  0.00  0.00    +0.004 A 
ATOM      4  C   UNL     1       0.310  -2.063  -1.277  0.00  0.00    +0.010 A 
ATOM      5  C   UNL     1       0.372  -2.796  -0.079  0.00  0.00    +0.001 A 
ATOM      6  C   UNL     1       0.167  -4.186  -0.066  0.00  0.00    +0.022 A 
ATOM      7  C   UNL     1       0.244  -4.846   1.158  0.00  0.00    +0.030 A 
ATOM      8  C   UNL     1       0.521  -4.107   2.326  0.00  0.00    +0.138 A 
ATOM      9  N   UNL     1       0.708  -2.812   2.287  0.00  0.00    -0.235 NA
ATOM     10  C   UNL     1       0.646  -2.126   1.140  0.00  0.00    +0.073 A 
ATOM     11  C   UNL     1       0.856  -0.737   1.121  0.00  0.00    +0.031 A 
ATOM     12 CL   UNL     1       0.616  -4.933   3.850  0.00  0.00    -0.061 Cl
ENDROOT
BRANCH   7  13
ATOM     13  C   UNL     1       0.037  -6.301   1.231  0.00  0.00    +0.122 C 
ATOM     14  N   UNL     1       0.110  -6.912   2.379  0.00  0.00    -0.251 NA
BRANCH  14  15
ATOM     15  C   UNL     1       0.026  -8.276   2.434  0.00  0.00    +0.105 A 
ATOM     16  C   UNL     1       0.792  -9.062   1.571  0.00  0.00    +0.031 A 
ATOM     17  C   UNL     1       0.703 -10.437   1.632  0.00  0.00    +0.002 A 
ATOM     18  C   UNL     1      -0.145 -11.042   2.544  0.00  0.00    +0.004 A 
ATOM     19  C   UNL     1      -0.908 -10.275   3.404  0.00  0.00    +0.047 A 
ATOM     20  C   UNL     1      -0.826  -8.893   3.361  0.00  0.00    +0.142 A 
BRANCH  20  21
ATOM     21  O   UNL     1      -1.571  -8.138   4.209  0.00  0.00    -0.505 OA
ATOM     22  H   UNL     1      -2.443  -7.903   3.863  0.00  0.00    +0.292 HD
ENDBRANCH  20  21
ENDBRANCH  14  15
ENDBRANCH   7  13
TORSDOF 3
