REMARK  Name = ZINC08713693
REMARK  12 active torsions:
REMARK  status: ('A' for Active; 'I' for Inactive)
REMARK    1  A    between atoms: C_1  and  C_2
REMARK    2  A    between atoms: C_7  and  C_8
REMARK    3  A    between atoms: C_8  and  N_9
REMARK    4  A    between atoms: N_9  and  C_10
REMARK    5  A    between atoms: C_10  and  C_12
REMARK    6  A    between atoms: C_10  and  C_21
REMARK    7  A    between atoms: N_23  and  C_24
REMARK    8  A    between atoms: C_33  and  C_35
REMARK    9  A    between atoms: C_35  and  S_36
REMARK   10  A    between atoms: S_36  and  C_37
REMARK   11  A    between atoms: C_39  and  C_44
REMARK   12  A    between atoms: C_41  and  C_43
REMARK                            x       y       z     vdW  Elec       q    Type
REMARK                         _______ _______ _______ _____ _____    ______ ____
ROOT
ATOM      1  C   UNL     1       5.183   8.302  -0.300  0.00  0.00    +0.193 C 
ENDROOT
BRANCH   1   2
ATOM      2  C   UNL     1       6.647   8.389  -0.646  0.00  0.00    -0.014 A 
ATOM      3  C   UNL     1       7.544   7.501  -0.080  0.00  0.00    +0.010 A 
ATOM      4  C   UNL     1       8.888   7.577  -0.395  0.00  0.00    +0.050 A 
ATOM      5  C   UNL     1       9.340   8.544  -1.278  0.00  0.00    +0.166 A 
ATOM      6  C   UNL     1       8.437   9.438  -1.847  0.00  0.00    +0.167 A 
ATOM      7  C   UNL     1       7.091   9.353  -1.532  0.00  0.00    +0.055 A 
ATOM      8  O   UNL     1       9.121  10.282  -2.673  0.00  0.00    -0.453 OA
ATOM      9  C   UNL     1      10.386   9.639  -2.919  0.00  0.00    +0.466 C 
ATOM     10  O   UNL     1      10.590   8.828  -1.747  0.00  0.00    -0.453 OA
ENDBRANCH   1   2
BRANCH   1  11
ATOM     11  C   UNL     1       4.988   8.658   1.151  0.00  0.00    +0.242 C 
ATOM     12  O   UNL     1       4.498   7.851   1.913  0.00  0.00    -0.273 OA
ATOM     13  N   UNL     1       5.357   9.873   1.603  0.00  0.00    -0.284 N 
ATOM     14  H   UNL     1       5.670  10.547   0.980  0.00  0.00    +0.155 HD
BRANCH  13  15
ATOM     15  C   UNL     1       5.291  10.161   2.972  0.00  0.00    +0.037 A 
ATOM     16  C   UNL     1       4.989  11.448   3.396  0.00  0.00    +0.027 A 
ATOM     17  C   UNL     1       4.918  11.734   4.747  0.00  0.00    +0.051 A 
ATOM     18  C   UNL     1       5.158  10.739   5.681  0.00  0.00    +0.166 A 
ATOM     19  C   UNL     1       5.466   9.448   5.258  0.00  0.00    +0.168 A 
ATOM     20  C   UNL     1       5.532   9.162   3.905  0.00  0.00    +0.072 A 
ATOM     21  O   UNL     1       5.657   8.662   6.358  0.00  0.00    -0.453 OA
ATOM     22  C   UNL     1       5.864   9.576   7.452  0.00  0.00    +0.466 C 
ATOM     23  O   UNL     1       5.155  10.762   7.046  0.00  0.00    -0.453 OA
ENDBRANCH  13  15
ENDBRANCH   1  11
BRANCH   1  24
ATOM     24  N   UNL     1       4.706   6.937  -0.536  0.00  0.00    -0.281 N 
ATOM     25  C   UNL     1       3.463   6.582  -0.155  0.00  0.00    +0.227 C 
ATOM     26  O   UNL     1       2.709   7.414   0.305  0.00  0.00    -0.275 OA
BRANCH  24  27
ATOM     27  C   UNL     1       5.580   5.958  -1.188  0.00  0.00    +0.144 C 
BRANCH  27  34
ATOM     28  C   UNL     1       5.404   7.825  -3.385  0.00  0.00    +0.044 C 
ATOM     29  C   UNL     1       4.882   6.421  -3.546  0.00  0.00    -0.046 A 
ATOM     30  C   UNL     1       4.319   6.026  -4.745  0.00  0.00    +0.003 A 
ATOM     31  C   UNL     1       3.840   4.738  -4.893  0.00  0.00    +0.000 A 
ATOM     32  C   UNL     1       3.924   3.844  -3.842  0.00  0.00    +0.000 A 
ATOM     33  C   UNL     1       4.492   4.237  -2.644  0.00  0.00    +0.005 A 
ATOM     34  C   UNL     1       4.966   5.528  -2.495  0.00  0.00    -0.027 A 
ENDBRANCH  27  34
ENDBRANCH  24  27
BRANCH  25  35
ATOM     35  C   UNL     1       3.009   5.152  -0.300  0.00  0.00    +0.173 C 
BRANCH  35  36
ATOM     36  S   UNL     1       1.419   4.936   0.537  0.00  0.00    -0.077 S 
BRANCH  36  37
ATOM     37  C   UNL     1       1.136   3.226   0.217  0.00  0.00    +0.189 A 
ATOM     38  N   UNL     1       0.032   2.656   0.680  0.00  0.00    -0.227 NA
ATOM     39  C   UNL     1      -0.211   1.375   0.457  0.00  0.00    +0.043 A 
ATOM     40  C   UNL     1       0.705   0.629  -0.269  0.00  0.00    +0.046 A 
ATOM     41  C   UNL     1       1.848   1.257  -0.739  0.00  0.00    +0.043 A 
ATOM     42  N   UNL     1       2.030   2.541  -0.481  0.00  0.00    -0.227 NA
ATOM     43  C   UNL     1       2.870   0.485  -1.532  0.00  0.00    +0.066 C 
ATOM     44  C   UNL     1      -1.467   0.734   0.988  0.00  0.00    +0.066 C 
ENDBRANCH  36  37
ENDBRANCH  35  36
ENDBRANCH  25  35
ENDBRANCH   1  24
TORSDOF 9
