REMARK  Name = ZINC59310889
REMARK  10 active torsions:
REMARK  status: ('A' for Active; 'I' for Inactive)
REMARK    1  A    between atoms: C_1  and  N_2
REMARK    2  A    between atoms: C_4  and  C_7
REMARK    3  A    between atoms: N_8  and  N_9
REMARK    4  A    between atoms: C_12  and  S_15
REMARK    5  A    between atoms: S_15  and  C_16
REMARK    6  A    between atoms: C_16  and  C_17
REMARK    7  A    between atoms: N_19  and  C_20
REMARK    8  A    between atoms: C_25  and  S_26
REMARK    9  A    between atoms: S_26  and  C_27
REMARK   10  A    between atoms: C_27  and  C_28
REMARK                            x       y       z     vdW  Elec       q    Type
REMARK                         _______ _______ _______ _____ _____    ______ ____
ROOT
ATOM      1  C   UNL     1       0.169 -11.857   2.660  0.00  0.00    +0.228 C 
ATOM      2  O   UNL     1       0.164 -11.304   3.740  0.00  0.00    -0.275 OA
ATOM      3  N   UNL     1       0.197 -13.203   2.592  0.00  0.00    -0.284 N 
ATOM      4  H   UNL     1       0.136 -13.646   1.732  0.00  0.00    +0.155 HD
ENDROOT
BRANCH   3   5
ATOM      5  C   UNL     1       0.316 -13.961   3.764  0.00  0.00    +0.047 A 
ATOM      6  C   UNL     1      -0.280 -13.526   4.938  0.00  0.00    +0.024 A 
ATOM      7  C   UNL     1      -0.162 -14.276   6.093  0.00  0.00    +0.002 A 
ATOM      8  C   UNL     1       0.551 -15.461   6.084  0.00  0.00    +0.001 A 
ATOM      9  C   UNL     1       1.149 -15.903   4.919  0.00  0.00    +0.016 A 
ATOM     10  C   UNL     1       1.030 -15.160   3.753  0.00  0.00    +0.029 A 
BRANCH  10  11
ATOM     11  S   UNL     1       1.786 -15.724   2.264  0.00  0.00    -0.119 S 
BRANCH  11  12
ATOM     12  C   UNL     1       2.578 -17.285   2.739  0.00  0.00    +0.109 C 
BRANCH  12  13
ATOM     13  C   UNL     1       3.271 -17.882   1.541  0.00  0.00    -0.037 A 
ATOM     14  C   UNL     1       2.586 -18.744   0.705  0.00  0.00    +0.006 A 
ATOM     15  C   UNL     1       3.220 -19.292  -0.394  0.00  0.00    +0.020 A 
ATOM     16  C   UNL     1       4.541 -18.976  -0.658  0.00  0.00    +0.041 A 
ATOM     17  C   UNL     1       5.226 -18.113   0.179  0.00  0.00    +0.020 A 
ATOM     18  C   UNL     1       4.589 -17.562   1.274  0.00  0.00    +0.006 A 
ATOM     19 CL   UNL     1       5.340 -19.663  -2.038  0.00  0.00    -0.084 Cl
ENDBRANCH  12  13
ENDBRANCH  11  12
ENDBRANCH  10  11
ENDBRANCH   3   5
BRANCH   1  20
ATOM     20  C   UNL     1       0.143 -11.039   1.395  0.00  0.00    +0.173 C 
BRANCH  20  21
ATOM     21  S   UNL     1       0.108  -9.275   1.816  0.00  0.00    -0.075 S 
BRANCH  21  25
ATOM     22  N   UNL     1       0.006  -5.618  -1.798  0.00  0.00    -0.205 N 
ATOM     23  C   UNL     1       0.037  -6.876  -1.226  0.00  0.00    +0.232 A 
ATOM     24  N   UNL     1       0.050  -7.140   0.064  0.00  0.00    -0.186 NA
ATOM     25  C   UNL     1       0.080  -8.463   0.252  0.00  0.00    +0.211 A 
ATOM     26  N   UNL     1       0.086  -9.060  -0.916  0.00  0.00    -0.144 NA
ATOM     27  N   UNL     1       0.052  -8.051  -1.891  0.00  0.00    -0.245 N 
ATOM     28  H   UNL     1      -0.006  -5.525  -2.763  0.00  0.00    +0.177 HD
ATOM     29  H   UNL     1       0.044  -8.173  -2.854  0.00  0.00    +0.192 HD
BRANCH  22  31
ATOM     30  C   UNL     1      -0.036  -3.298  -1.521  0.00  0.00    +0.141 C 
ATOM     31  N   UNL     1      -0.007  -4.478  -0.984  0.00  0.00    -0.187 NA
BRANCH  30  35
ATOM     32  C   UNL     1      -0.110   1.460   0.016  0.00  0.00    +0.172 C 
ATOM     33  N   UNL     1      -0.083  -0.004   0.008  0.00  0.00    -0.274 N 
ATOM     34  C   UNL     1      -0.080  -0.787  -1.090  0.00  0.00    +0.117 A 
ATOM     35  C   UNL     1      -0.050  -2.097  -0.662  0.00  0.00    +0.032 A 
ATOM     36  C   UNL     1      -0.035  -2.076   0.749  0.00  0.00    +0.143 A 
ATOM     37  N   UNL     1      -0.049  -0.830   1.137  0.00  0.00    -0.179 NA
ENDBRANCH  30  35
ENDBRANCH  22  31
ENDBRANCH  21  25
ENDBRANCH  20  21
ENDBRANCH   1  20
TORSDOF 9
