REMARK  Name = ZINC08586215
REMARK  14 active torsions:
REMARK  status: ('A' for Active; 'I' for Inactive)
REMARK    1  A    between atoms: C_1  and  C_2
REMARK    2  A    between atoms: C_2  and  N_63
REMARK    3  A    between atoms: C_3  and  C_4
REMARK    4  A    between atoms: C_3  and  N_63
REMARK    5  A    between atoms: C_10  and  C_12
REMARK    6  A    between atoms: C_10  and  C_25
REMARK    7  A    between atoms: C_10  and  N_63
REMARK    8  A    between atoms: C_16  and  C_24
REMARK    9  A    between atoms: C_18  and  C_23
REMARK   10  A    between atoms: C_21  and  O_22
REMARK   11  A    between atoms: N_29  and  C_30
REMARK   12  A    between atoms: C_30  and  C_31
REMARK   13  A    between atoms: C_31  and  O_32
REMARK   14  A    between atoms: O_32  and  C_33
REMARK                            x       y       z     vdW  Elec       q    Type
REMARK                         _______ _______ _______ _____ _____    ______ ____
ROOT
ATOM      1  C   UNL     1       1.404   2.014   2.688  0.00  0.00    +0.039 C 
ENDROOT
BRANCH   1   2
ATOM      2  C   UNL     1       2.579   2.515   1.888  0.00  0.00    +0.008 A 
ATOM      3  C   UNL     1       3.475   1.630   1.365  0.00  0.00    +0.017 A 
ATOM      4  C   UNL     1       4.563   2.139   0.628  0.00  0.00    +0.001 A 
ATOM      5  C   UNL     1       5.525   1.286   0.065  0.00  0.00    +0.013 A 
ATOM      6  C   UNL     1       6.563   1.815  -0.641  0.00  0.00    -0.050 A 
ATOM      7  C   UNL     1       6.683   3.192  -0.812  0.00  0.00    +0.008 A 
ATOM      8  C   UNL     1       5.768   4.048  -0.279  0.00  0.00    -0.024 A 
ATOM      9  C   UNL     1       4.683   3.540   0.456  0.00  0.00    +0.078 A 
ATOM     10  N   UNL     1       3.769   4.358   0.990  0.00  0.00    -0.213 NA
ATOM     11  C   UNL     1       2.751   3.888   1.678  0.00  0.00    +0.215 A 
ATOM     12  C   UNL     1       5.918   5.534  -0.477  0.00  0.00    +0.046 C 
ATOM     13  C   UNL     1       7.595   0.898  -1.245  0.00  0.00    +0.044 C 
BRANCH  11  14
ATOM     14  O   UNL     1       1.849   4.755   2.201  0.00  0.00    -0.492 OA
ATOM     15  H   UNL     1       1.152   5.017   1.584  0.00  0.00    +0.294 HD
ENDBRANCH  11  14
ENDBRANCH   1   2
BRANCH   1  16
ATOM     16  C   UNL     1       1.643   0.582   3.090  0.00  0.00    +0.143 A 
ATOM     17  N   UNL     1       2.609   0.134   3.855  0.00  0.00    -0.115 NA
ATOM     18  N   UNL     1       2.472  -1.142   3.963  0.00  0.00    -0.023 NA
ATOM     19  N   UNL     1       1.444  -1.521   3.286  0.00  0.00    -0.044 NA
ATOM     20  N   UNL     1       0.902  -0.486   2.738  0.00  0.00    -0.228 N 
BRANCH  20  21
ATOM     21  C   UNL     1      -0.291  -0.475   1.889  0.00  0.00    +0.175 C 
BRANCH  21  22
ATOM     22  C   UNL     1       0.104  -0.810   0.449  0.00  0.00    +0.183 C 
BRANCH  22  23
ATOM     23  O   UNL     1      -1.040  -0.690  -0.399  0.00  0.00    -0.381 OA
ATOM     24  C   UNL     1      -0.778  -0.984  -1.773  0.00  0.00    +0.194 C 
ENDBRANCH  22  23
ENDBRANCH  21  22
ENDBRANCH  20  21
ENDBRANCH   1  16
BRANCH   1  25
ATOM     25  N   UNL     1       1.248   2.868   3.884  0.00  0.00    +0.392 N 
ATOM     26  H   UNL     1       1.402   3.848   3.618  0.00  0.00    -0.080 HD
BRANCH  25  28
ATOM     27  C   UNL     1       3.641   2.828   4.391  0.00  0.00    -0.017 C 
ATOM     28  C   UNL     1       2.243   2.488   4.909  0.00  0.00    -0.080 C 
ENDBRANCH  25  28
BRANCH  25  29
ATOM     29  C   UNL     1      -0.119   2.728   4.430  0.00  0.00    -0.042 C 
BRANCH  29  30
ATOM     30  C   UNL     1      -1.054   3.583   3.614  0.00  0.00    -0.064 A 
ATOM     31  C   UNL     1      -1.143   4.940   3.861  0.00  0.00    +0.002 A 
ATOM     32  C   UNL     1      -1.997   5.725   3.109  0.00  0.00    +0.000 A 
ATOM     33  C   UNL     1      -2.769   5.151   2.116  0.00  0.00    +0.000 A 
ATOM     34  C   UNL     1      -2.684   3.793   1.873  0.00  0.00    +0.000 A 
ATOM     35  C   UNL     1      -1.826   3.009   2.622  0.00  0.00    +0.002 A 
ENDBRANCH  29  30
ENDBRANCH  25  29
ENDBRANCH   1  25
TORSDOF 10
