REMARK  Name = ZINC39941061
REMARK  4 active torsions:
REMARK  status: ('A' for Active; 'I' for Inactive)
REMARK    1  A    between atoms: C_6  and  C_7
REMARK    2  A    between atoms: C_11  and  C_15
REMARK    3  A    between atoms: C_15  and  S_16
REMARK    4  A    between atoms: S_16  and  C_17
REMARK                            x       y       z     vdW  Elec       q    Type
REMARK                         _______ _______ _______ _____ _____    ______ ____
ROOT
ATOM      1  C   UNL     1      -1.252  -0.757   0.010  0.00  0.00    -0.015 C 
ATOM      2  C   UNL     1      -1.620  -1.549  -1.050  0.00  0.00    +0.075 C 
ATOM      3  C   UNL     1      -2.899  -2.266  -0.947  0.00  0.00    +0.112 C 
ATOM      4  N   UNL     1      -3.312  -3.040  -1.925  0.00  0.00    -0.227 NA
ATOM      5  C   UNL     1      -2.595  -3.199  -3.026  0.00  0.00    +0.134 C 
ATOM      6  N   UNL     1      -1.441  -2.608  -3.225  0.00  0.00    -0.160 NA
ATOM      7  C   UNL     1      -0.885  -1.790  -2.326  0.00  0.00    +0.272 C 
ATOM      8  O   UNL     1       0.191  -1.256  -2.542  0.00  0.00    -0.268 OA
ATOM      9  S   UNL     1      -3.555  -1.811   0.638  0.00  0.00    -0.100 S 
ATOM     10  C   UNL     1      -2.196  -0.702   1.189  0.00  0.00    +0.112 C 
ENDROOT
BRANCH   1  16
ATOM     11  C   UNL     1      -0.017   1.399   0.010  0.00  0.00    +0.009 A 
ATOM     12  C   UNL     1       1.168   2.099   0.002  0.00  0.00    +0.020 A 
ATOM     13  C   UNL     1       2.378   1.423  -0.013  0.00  0.00    +0.041 A 
ATOM     14  C   UNL     1       2.407   0.036  -0.021  0.00  0.00    +0.020 A 
ATOM     15  C   UNL     1       1.232  -0.681  -0.014  0.00  0.00    +0.009 A 
ATOM     16  C   UNL     1       0.002  -0.004   0.002  0.00  0.00    -0.020 A 
ATOM     17 CL   UNL     1       3.867   2.316  -0.024  0.00  0.00    -0.084 Cl
ENDBRANCH   1  16
BRANCH   5  18
ATOM     18  C   UNL     1      -3.132  -4.103  -4.105  0.00  0.00    +0.150 C 
BRANCH  18  19
ATOM     19  S   UNL     1      -1.966  -4.144  -5.495  0.00  0.00    -0.085 S 
BRANCH  19  20
ATOM     20  C   UNL     1      -2.727  -5.228  -6.657  0.00  0.00    +0.128 C 
ATOM     21  N   UNL     1      -3.900  -5.764  -6.348  0.00  0.00    -0.368 N 
ATOM     22  C   UNL     1      -4.593  -6.670  -7.266  0.00  0.00    +0.116 C 
ATOM     23  C   UNL     1      -3.556  -7.402  -8.126  0.00  0.00    +0.040 C 
ATOM     24  C   UNL     1      -2.673  -6.356  -8.815  0.00  0.00    +0.105 C 
ATOM     25  N   UNL     1      -2.102  -5.466  -7.802  0.00  0.00    -0.325 N 
ATOM     26  H   UNL     1      -1.246  -5.043  -7.971  0.00  0.00    +0.148 HD
ATOM     27  H   UNL     1      -4.307  -5.551  -5.494  0.00  0.00    +0.161 HD
ENDBRANCH  19  20
ENDBRANCH  18  19
ENDBRANCH   5  18
TORSDOF 4
