REMARK  Name = ZINC20058983
REMARK  5 active torsions:
REMARK  status: ('A' for Active; 'I' for Inactive)
REMARK    1  A    between atoms: C_1  and  C_2
REMARK    2  A    between atoms: C_3  and  C_27
REMARK    3  A    between atoms: C_4  and  C_20
REMARK    4  A    between atoms: C_10  and  C_15
REMARK    5  A    between atoms: C_23  and  O_26
REMARK                            x       y       z     vdW  Elec       q    Type
REMARK                         _______ _______ _______ _____ _____    ______ ____
ROOT
ATOM      1  C   UNL     1      -0.018   1.502   0.016  0.00  0.00    +0.061 C 
ATOM      2  C   UNL     1       0.002  -0.005   0.007  0.00  0.00    +0.014 C 
ATOM      3  C   UNL     1      -1.155  -0.687   0.007  0.00  0.00    +0.043 C 
ATOM      4  C   UNL     1      -1.174  -2.188  -0.011  0.00  0.00    +0.090 C 
ATOM      5  C   UNL     1       0.163  -2.752   0.400  0.00  0.00    +0.024 C 
ATOM      6  C   UNL     1       1.270  -1.979   0.387  0.00  0.00    +0.016 C 
ATOM      7  N   UNL     1       1.198  -0.668  -0.006  0.00  0.00    -0.321 N 
ATOM      8  C   UNL     1       2.611  -2.534   0.802  0.00  0.00    +0.062 C 
ATOM      9  C   UNL     1       2.674  -4.027   0.469  0.00  0.00    +0.068 C 
ATOM     10  C   UNL     1       1.526  -4.736   1.196  0.00  0.00    +0.091 C 
ATOM     11  C   UNL     1       0.224  -4.100   0.792  0.00  0.00    +0.162 C 
ATOM     12  O   UNL     1      -0.793  -4.764   0.805  0.00  0.00    -0.292 OA
ATOM     13  H   UNL     1       2.001  -0.205  -0.292  0.00  0.00    +0.152 HD
ENDROOT
BRANCH   3  14
ATOM     14  C   UNL     1      -2.380   0.022   0.025  0.00  0.00    +0.248 C 
ATOM     15  O   UNL     1      -2.378   1.240   0.039  0.00  0.00    -0.270 OA
ATOM     16  N   UNL     1      -3.548  -0.650   0.025  0.00  0.00    -0.267 N 
ATOM     17  C   UNL     1      -4.750   0.043   0.148  0.00  0.00    +0.125 A 
ATOM     18  C   UNL     1      -5.944  -0.662   0.255  0.00  0.00    +0.044 A 
ATOM     19  C   UNL     1      -7.131   0.039   0.377  0.00  0.00    +0.005 A 
ATOM     20  C   UNL     1      -7.083   1.426   0.388  0.00  0.00    +0.020 A 
ATOM     21  C   UNL     1      -5.862   2.061   0.279  0.00  0.00    +0.113 A 
ATOM     22  N   UNL     1      -4.745   1.367   0.169  0.00  0.00    -0.240 NA
ATOM     23  H   UNL     1      -3.552  -1.616  -0.061  0.00  0.00    +0.157 HD
ENDBRANCH   3  14
BRANCH   4  24
ATOM     24  C   UNL     1      -1.503  -2.661  -1.403  0.00  0.00    -0.035 A 
ATOM     25  C   UNL     1      -0.677  -2.324  -2.460  0.00  0.00    +0.008 A 
ATOM     26  C   UNL     1      -0.977  -2.757  -3.737  0.00  0.00    +0.046 A 
ATOM     27  C   UNL     1      -2.107  -3.530  -3.959  0.00  0.00    +0.117 A 
ATOM     28  C   UNL     1      -2.934  -3.867  -2.897  0.00  0.00    +0.046 A 
ATOM     29  C   UNL     1      -2.627  -3.437  -1.621  0.00  0.00    +0.008 A 
BRANCH  27  30
ATOM     30  O   UNL     1      -2.404  -3.957  -5.215  0.00  0.00    -0.507 OA
ATOM     31  H   UNL     1      -2.016  -4.812  -5.442  0.00  0.00    +0.292 HD
ENDBRANCH  27  30
ENDBRANCH   4  24
BRANCH   9  32
ATOM     32  C   UNL     1       3.994  -4.592   0.925  0.00  0.00    +0.109 A 
ATOM     33  C   UNL     1       4.917  -5.170   0.136  0.00  0.00    +0.045 A 
ATOM     34  C   UNL     1       5.990  -5.553   0.974  0.00  0.00    +0.041 A 
ATOM     35  C   UNL     1       5.659  -5.185   2.224  0.00  0.00    +0.195 A 
ATOM     36  O   UNL     1       4.451  -4.599   2.188  0.00  0.00    -0.468 OA
ENDBRANCH   9  32
TORSDOF 4
