REMARK  Name = ZINC58018186
REMARK  11 active torsions:
REMARK  status: ('A' for Active; 'I' for Inactive)
REMARK    1  A    between atoms: C_1  and  C_2
REMARK    2  A    between atoms: C_2  and  C_4
REMARK    3  A    between atoms: C_2  and  S_11
REMARK    4  A    between atoms: C_4  and  O_6
REMARK    5  A    between atoms: O_6  and  C_7
REMARK    6  A    between atoms: C_7  and  C_8
REMARK    7  A    between atoms: C_8  and  C_9
REMARK    8  A    between atoms: C_8  and  C_10
REMARK    9  A    between atoms: S_11  and  C_12
REMARK   10  A    between atoms: C_15  and  C_18
REMARK   11  A    between atoms: C_18  and  C_20
REMARK                            x       y       z     vdW  Elec       q    Type
REMARK                         _______ _______ _______ _____ _____    ______ ____
ROOT
ATOM      1  S   UNL     1       0.710  -0.589  -1.563  0.00  0.00    -0.111 S 
ENDROOT
BRANCH   1   2
ATOM      2  C   UNL     1       0.399  -2.323  -1.549  0.00  0.00    +0.009 A 
ATOM      3  C   UNL     1      -0.373  -2.883  -0.532  0.00  0.00    +0.015 A 
ATOM      4  C   UNL     1      -0.617  -4.226  -0.518  0.00  0.00    +0.012 A 
ATOM      5  C   UNL     1      -0.088  -5.043  -1.527  0.00  0.00    +0.017 A 
ATOM      6  C   UNL     1       0.689  -4.476  -2.547  0.00  0.00    +0.012 A 
ATOM      7  C   UNL     1       0.923  -3.131  -2.557  0.00  0.00    +0.015 A 
BRANCH   5   8
ATOM      8  C   UNL     1      -0.346  -6.487  -1.516  0.00  0.00    +0.160 C 
ATOM      9  O   UNL     1      -0.930  -6.991  -0.579  0.00  0.00    -0.292 OA
ATOM     10  C   UNL     1       0.114  -7.344  -2.667  0.00  0.00    +0.091 C 
ENDBRANCH   5   8
ENDBRANCH   1   2
BRANCH   1  12
ATOM     11  C   UNL     1       0.009   1.526   0.025  0.00  0.00    +0.031 C 
ATOM     12  C   UNL     1       0.003  -0.004   0.003  0.00  0.00    +0.157 C 
BRANCH  12  13
ATOM     13  C   UNL     1       0.827  -0.526   1.151  0.00  0.00    +0.320 C 
ATOM     14  O   UNL     1       1.988  -0.815   0.980  0.00  0.00    -0.250 OA
BRANCH  13  15
ATOM     15  O   UNL     1       0.272  -0.670   2.365  0.00  0.00    -0.464 OA
BRANCH  15  16
ATOM     16  C   UNL     1       1.111  -1.170   3.408  0.00  0.00    +0.235 C 
BRANCH  16  17
ATOM     17  C   UNL     1       0.309  -1.264   4.707  0.00  0.00    +0.020 C 
ATOM     18  C   UNL     1       1.170  -1.915   5.792  0.00  0.00    +0.010 C 
ATOM     19  C   UNL     1      -0.102   0.139   5.156  0.00  0.00    +0.010 C 
ENDBRANCH  16  17
ENDBRANCH  15  16
ENDBRANCH  13  15
ENDBRANCH  12  13
ENDBRANCH   1  12
TORSDOF 7
