REMARK  Name = ZINC60217908
REMARK  8 active torsions:
REMARK  status: ('A' for Active; 'I' for Inactive)
REMARK    1  A    between atoms: C_3  and  N_31
REMARK    2  A    between atoms: C_6  and  C_7
REMARK    3  A    between atoms: C_7  and  C_9
REMARK    4  A    between atoms: C_7  and  O_30
REMARK    5  A    between atoms: C_9  and  C_11
REMARK    6  A    between atoms: C_9  and  N_13
REMARK    7  A    between atoms: C_11  and  O_12
REMARK    8  A    between atoms: C_21  and  C_23
REMARK                            x       y       z     vdW  Elec       q    Type
REMARK                         _______ _______ _______ _____ _____    ______ ____
ROOT
ATOM      1  N   UNK A   1      -0.537  -2.106  -1.897  0.00  0.00    -0.321 N 
ATOM      2  C   UNK A   0      -0.315  -2.235  -3.256  0.00  0.00    +0.131 A 
ATOM      3  C   UNK A   0       0.791  -2.990  -3.738  0.00  0.00    +0.051 A 
ATOM      4  C   UNK A   0       1.814  -3.707  -2.974  0.00  0.00    -0.025 A 
ATOM      5  C   UNK A   0       2.765  -4.351  -3.680  0.00  0.00    -0.004 A 
ATOM      6  S   UNK A   0       2.364  -4.048  -5.380  0.00  0.00    -0.073 S 
ATOM      7  C   UNK A   0       0.916  -3.052  -5.140  0.00  0.00    +0.114 A 
ATOM      8  N   UNK A   0       0.058  -2.445  -5.937  0.00  0.00    -0.224 NA
ATOM      9  C   UNK A   0      -0.949  -1.759  -5.431  0.00  0.00    +0.135 A 
ATOM     10  N   UNK A   0      -1.131  -1.663  -4.126  0.00  0.00    -0.217 NA
ATOM     11  C   UNK A   0       3.913  -5.148  -3.140  0.00  0.00    +0.043 C 
ATOM     12  C   UNK A   0       4.070  -4.822  -1.648  0.00  0.00    +0.005 C 
ATOM     13  C   UNK A   0       2.693  -4.902  -0.981  0.00  0.00    +0.005 C 
ATOM     14  C   UNK A   0       1.822  -3.736  -1.448  0.00  0.00    +0.037 C 
ATOM     15  H   UNK A   1       0.108  -2.460  -1.265  0.00  0.00    +0.148 HD
ENDROOT
BRANCH   9  16
ATOM     16  C   UNK A   0      -1.915  -1.075  -6.363  0.00  0.00    +0.057 C 
ATOM     17  C   UNK A   0      -1.793  -1.380  -7.857  0.00  0.00    +0.012 C 
ATOM     18  C   UNK A   0      -1.351  -0.019  -7.316  0.00  0.00    +0.012 C 
ENDBRANCH   9  16
BRANCH   1  19
ATOM     19  C   UNK A   1      -1.746  -1.436  -1.413  0.00  0.00    +0.130 C 
BRANCH  19  20
ATOM     20  C   UNK A   1      -1.492  -0.874  -0.013  0.00  0.00    +0.167 C 
BRANCH  20  26
ATOM     21  C   UNK A   1      -0.623   1.472  -0.098  0.00  0.00    +0.008 A 
ATOM     22  C   UNK A   1       0.418   2.380  -0.149  0.00  0.00    +0.033 A 
ATOM     23  C   UNK A   1       1.726   1.932  -0.169  0.00  0.00    +0.126 A 
ATOM     24  C   UNK A   1       1.992   0.576  -0.138  0.00  0.00    +0.033 A 
ATOM     25  C   UNK A   1       0.951  -0.332  -0.087  0.00  0.00    +0.008 A 
ATOM     26  C   UNK A   1      -0.356   0.116  -0.068  0.00  0.00    -0.017 A 
BRANCH  23  27
ATOM     27  N   UNK A   1       2.841   2.904  -0.224  0.00  0.00    +0.056 N 
ATOM     28  O   UNK A   1       2.608   4.090  -0.251  0.00  0.00    -0.126 OA
ATOM     29  O   UNK A   1       3.984   2.511  -0.241  0.00  0.00    -0.126 OA
ENDBRANCH  23  27
ENDBRANCH  20  26
BRANCH  20  30
ATOM     30  O   UNK A   1      -1.151  -1.941   0.874  0.00  0.00    -0.385 OA
ATOM     31  H   UNK A   1      -0.358  -2.430   0.615  0.00  0.00    +0.210 HD
ENDBRANCH  20  30
ENDBRANCH  19  20
BRANCH  19  32
ATOM     32  C   UNK A   1      -2.899  -2.441  -1.357  0.00  0.00    +0.181 C 
BRANCH  32  33
ATOM     33  O   UNK A   1      -2.608  -3.446  -0.384  0.00  0.00    -0.393 OA
ATOM     34  H   UNK A   1      -3.297  -4.118  -0.294  0.00  0.00    +0.209 HD
ENDBRANCH  32  33
ENDBRANCH  19  32
ENDBRANCH   1  19
TORSDOF 8
