REMARK  Name = ZINC09665182
REMARK  8 active torsions:
REMARK  status: ('A' for Active; 'I' for Inactive)
REMARK    1  A    between atoms: C_7  and  C_11
REMARK    2  A    between atoms: C_11  and  C_12
REMARK    3  A    between atoms: C_12  and  N_13
REMARK    4  A    between atoms: C_26  and  S_27
REMARK    5  A    between atoms: S_27  and  C_28
REMARK    6  A    between atoms: C_28  and  C_29
REMARK    7  A    between atoms: N_31  and  C_32
REMARK    8  A    between atoms: C_32  and  C_33
REMARK                            x       y       z     vdW  Elec       q    Type
REMARK                         _______ _______ _______ _____ _____    ______ ____
ROOT
ATOM      1  N   UNL     1       7.722   7.951  -2.080  0.00  0.00    -0.287 N 
ATOM      2  C   UNL     1       9.070   8.037  -1.994  0.00  0.00    +0.269 A 
ATOM      3  O   UNL     1       9.660   9.034  -2.376  0.00  0.00    -0.266 OA
ATOM      4  C   UNL     1       9.769   6.952  -1.456  0.00  0.00    +0.103 A 
ATOM      5  C   UNL     1       9.106   5.808  -1.016  0.00  0.00    +0.094 A 
ATOM      6  C   UNL     1       9.958   4.735  -0.469  0.00  0.00    +0.015 A 
ATOM      7  C   UNL     1       9.542   3.483   0.040  0.00  0.00    +0.011 A 
ATOM      8  C   UNL     1      10.450   2.590   0.514  0.00  0.00    +0.001 A 
ATOM      9  C   UNL     1      11.810   2.871   0.517  0.00  0.00    +0.001 A 
ATOM     10  C   UNL     1      12.254   4.083   0.028  0.00  0.00    +0.016 A 
ATOM     11  C   UNL     1      11.339   4.998  -0.456  0.00  0.00    +0.022 A 
ATOM     12  S   UNL     1      11.485   6.623  -1.153  0.00  0.00    -0.081 S 
ATOM     13  N   UNL     1       7.749   5.806  -1.135  0.00  0.00    -0.222 NA
ATOM     14  C   UNL     1       7.098   6.819  -1.643  0.00  0.00    +0.173 A 
ENDROOT
BRANCH   1  15
ATOM     15  C   UNL     1       6.943   9.060  -2.636  0.00  0.00    +0.132 C 
BRANCH  15  16
ATOM     16  C   UNL     1       6.551  10.021  -1.513  0.00  0.00    +0.059 C 
BRANCH  16  23
ATOM     17  C   UNL     1       2.000  10.567  -2.494  0.00  0.00    +0.001 A 
ATOM     18  C   UNL     1       1.706  11.817  -3.021  0.00  0.00    +0.002 A 
ATOM     19  C   UNL     1       2.700  12.752  -3.209  0.00  0.00    +0.026 A 
ATOM     20  C   UNL     1       4.013  12.442  -2.868  0.00  0.00    +0.047 A 
ATOM     21  C   UNL     1       4.305  11.174  -2.334  0.00  0.00    +0.003 A 
ATOM     22  C   UNL     1       3.282  10.241  -2.153  0.00  0.00    +0.010 A 
ATOM     23  C   UNL     1       5.749  11.162  -2.084  0.00  0.00    -0.021 A 
ATOM     24  C   UNL     1       6.221  12.363  -2.456  0.00  0.00    +0.087 A 
ATOM     25  N   UNL     1       5.199  13.139  -2.932  0.00  0.00    -0.360 N 
ATOM     26  H   UNL     1       5.295  14.046  -3.262  0.00  0.00    +0.165 HD
ENDBRANCH  16  23
ENDBRANCH  15  16
ENDBRANCH   1  15
BRANCH  14  27
ATOM     27  S   UNL     1       5.343   6.722  -1.761  0.00  0.00    -0.078 S 
BRANCH  27  28
ATOM     28  C   UNL     1       5.071   5.073  -1.066  0.00  0.00    +0.173 C 
BRANCH  28  29
ATOM     29  C   UNL     1       3.596   4.764  -1.066  0.00  0.00    +0.223 C 
ATOM     30  O   UNL     1       2.806   5.579  -1.494  0.00  0.00    -0.275 OA
ATOM     31  N   UNL     1       3.155   3.583  -0.590  0.00  0.00    -0.312 N 
ATOM     32  H   UNL     1       3.787   2.932  -0.247  0.00  0.00    +0.149 HD
BRANCH  31  33
ATOM     33  C   UNL     1       1.721   3.283  -0.590  0.00  0.00    +0.135 C 
BRANCH  33  34
ATOM     34  C   UNL     1       1.492   1.889  -0.002  0.00  0.00    +0.135 C 
ATOM     35  C   UNL     1      -0.019   1.544   0.011  0.00  0.00    +0.035 C 
ATOM     36  C   UNL     1       0.002  -0.004   0.002  0.00  0.00    +0.031 C 
ATOM     37  C   UNL     1       1.398  -0.360  -0.546  0.00  0.00    +0.160 C 
ATOM     38  O   UNL     1       2.062   0.876  -0.858  0.00  0.00    -0.375 OA
ENDBRANCH  33  34
ENDBRANCH  31  33
ENDBRANCH  28  29
ENDBRANCH  27  28
ENDBRANCH  14  27
TORSDOF 8
