REMARK  Name = ZINC28891491
REMARK  3 active torsions:
REMARK  status: ('A' for Active; 'I' for Inactive)
REMARK    1  A    between atoms: N_9  and  C_12
REMARK    2  A    between atoms: C_12  and  N_13
REMARK    3  A    between atoms: C_21  and  C_23
REMARK                            x       y       z     vdW  Elec       q    Type
REMARK                         _______ _______ _______ _____ _____    ______ ____
ROOT
ATOM      1  N   UNL     1       2.094   5.270   0.892  0.00  0.00    -0.272 NA
ATOM      2  C   UNL     1       2.710   6.603   0.823  0.00  0.00    +0.092 C 
ATOM      3  C   UNL     1       3.405   6.762  -0.541  0.00  0.00    +0.058 C 
ATOM      4  C   UNL     1       2.455   6.289  -1.593  0.00  0.00    -0.004 A 
ATOM      5  C   UNL     1       1.317   5.565  -1.396  0.00  0.00    -0.015 A 
ATOM      6  C   UNL     1       0.583   5.239  -2.534  0.00  0.00    +0.013 A 
ATOM      7  C   UNL     1       1.013   5.638  -3.754  0.00  0.00    +0.046 A 
ATOM      8  S   UNL     1       2.513   6.519  -3.347  0.00  0.00    -0.101 S 
ATOM      9  C   UNL     1       0.918   5.160   0.020  0.00  0.00    +0.126 C 
ENDROOT
BRANCH   9  10
ATOM     10  C   UNL     1       0.421   3.738   0.017  0.00  0.00    +0.011 A 
ATOM     11  C   UNL     1      -0.855   3.279   0.027  0.00  0.00    +0.013 A 
ATOM     12  C   UNL     1      -1.077   1.915   0.017  0.00  0.00    +0.008 A 
ATOM     13  C   UNL     1      -0.013   1.076   0.008  0.00  0.00    +0.045 A 
ATOM     14  S   UNL     1       1.359   2.219   0.001  0.00  0.00    -0.100 S 
ENDBRANCH   9  10
BRANCH   1  15
ATOM     15  C   UNL     1       1.757   4.913   2.277  0.00  0.00    +0.234 C 
BRANCH  15  24
ATOM     16  C   UNL     1       7.040   3.827   5.802  0.00  0.00    +0.001 A 
ATOM     17  C   UNL     1       6.566   5.098   6.104  0.00  0.00    +0.001 A 
ATOM     18  C   UNL     1       5.437   5.592   5.488  0.00  0.00    +0.014 A 
ATOM     19  C   UNL     1       4.767   4.804   4.553  0.00  0.00    +0.050 A 
ATOM     20  C   UNL     1       5.253   3.511   4.249  0.00  0.00    +0.007 A 
ATOM     21  C   UNL     1       6.399   3.037   4.889  0.00  0.00    +0.010 A 
ATOM     22  C   UNL     1       4.530   2.707   3.264  0.00  0.00    +0.141 A 
ATOM     23  N   UNL     1       3.463   3.181   2.694  0.00  0.00    -0.175 NA
ATOM     24  N   UNL     1       2.963   4.454   2.970  0.00  0.00    -0.214 N 
ATOM     25  C   UNL     1       3.559   5.272   3.863  0.00  0.00    +0.276 A 
ATOM     26  O   UNL     1       3.103   6.378   4.092  0.00  0.00    -0.266 OA
ENDBRANCH  15  24
ENDBRANCH   1  15
TORSDOF 3
