REMARK  Name = ZINC17215969
REMARK  10 active torsions:
REMARK  status: ('A' for Active; 'I' for Inactive)
REMARK    1  A    between atoms: C_1  and  C_2
REMARK    2  A    between atoms: C_4  and  C_19
REMARK    3  A    between atoms: C_6  and  S_9
REMARK    4  A    between atoms: C_7  and  C_8
REMARK    5  A    between atoms: S_9  and  N_12
REMARK    6  A    between atoms: C_15  and  C_18
REMARK    7  A    between atoms: C_19  and  O_21
REMARK    8  A    between atoms: O_21  and  C_22
REMARK    9  A    between atoms: C_22  and  C_23
REMARK   10  A    between atoms: N_28  and  C_29
REMARK                            x       y       z     vdW  Elec       q    Type
REMARK                         _______ _______ _______ _____ _____    ______ ____
ROOT
ATOM      1  C   UNL     1       4.970   1.932  -3.600  0.00  0.00    +0.044 C 
ATOM      2  C   UNL     1       3.801   2.797  -3.994  0.00  0.00    -0.045 A 
ATOM      3  C   UNL     1       3.418   2.878  -5.317  0.00  0.00    +0.018 A 
ATOM      4  C   UNL     1       2.335   3.681  -5.680  0.00  0.00    +0.061 A 
ATOM      5  C   UNL     1       1.646   4.397  -4.699  0.00  0.00    +0.043 A 
ATOM      6  C   UNL     1       2.039   4.308  -3.380  0.00  0.00    +0.109 A 
ATOM      7  C   UNL     1       3.117   3.514  -3.028  0.00  0.00    -0.021 A 
ATOM      8  C   UNL     1       3.545   3.426  -1.586  0.00  0.00    +0.046 C 
ENDROOT
BRANCH   6   9
ATOM      9  S   UNL     1       1.171   5.211  -2.141  0.00  0.00    +0.061 S 
ATOM     10  O   UNL     1       0.161   5.952  -2.811  0.00  0.00    -0.153 OA
ATOM     11  O   UNL     1       2.156   5.831  -1.325  0.00  0.00    -0.153 OA
BRANCH   9  12
ATOM     12  N   UNL     1       0.392   4.106  -1.185  0.00  0.00    -0.177 NA
ATOM     13  C   UNL     1       1.014   3.618   0.054  0.00  0.00    +0.110 C 
ATOM     14  C   UNL     1       1.040   2.086   0.022  0.00  0.00    +0.020 C 
ATOM     15  C   UNL     1      -0.377   1.561  -0.219  0.00  0.00    -0.012 C 
ATOM     16  C   UNL     1      -0.885   2.063  -1.573  0.00  0.00    +0.020 C 
ATOM     17  C   UNL     1      -0.933   3.595  -1.559  0.00  0.00    +0.110 C 
ATOM     18  C   UNL     1      -0.360   0.031  -0.217  0.00  0.00    +0.007 C 
ENDBRANCH   9  12
ENDBRANCH   6   9
BRANCH   4  19
ATOM     19  C   UNL     1       1.920   3.772  -7.094  0.00  0.00    +0.340 C 
ATOM     20  O   UNL     1       0.978   4.472  -7.407  0.00  0.00    -0.245 OA
BRANCH  19  21
ATOM     21  O   UNL     1       2.587   3.080  -8.038  0.00  0.00    -0.452 OA
BRANCH  21  22
ATOM     22  C   UNL     1       2.124   3.217  -9.407  0.00  0.00    +0.328 C 
BRANCH  22  23
ATOM     23  C   UNL     1       2.984   2.376 -10.315  0.00  0.00    +0.258 C 
ATOM     24  O   UNL     1       3.897   1.726  -9.854  0.00  0.00    -0.272 OA
ATOM     25  N   UNL     1       2.739   2.348 -11.640  0.00  0.00    -0.237 N 
ATOM     26  C   UNL     1       3.508   1.596 -12.452  0.00  0.00    +0.306 C 
ATOM     27  O   UNL     1       4.423   0.944 -11.990  0.00  0.00    -0.252 OA
ATOM     28  N   UNL     1       3.262   1.568 -13.777  0.00  0.00    -0.296 N 
ATOM     29  H   UNL     1       2.008   2.869 -12.009  0.00  0.00    +0.159 HD
ATOM     30  H   UNL     1       2.532   2.088 -14.146  0.00  0.00    +0.151 HD
BRANCH  28  31
ATOM     31  C   UNL     1       4.098   0.750 -14.660  0.00  0.00    +0.074 C 
ATOM     32  C   UNL     1       5.325   1.561 -15.125  0.00  0.00    +0.022 C 
ATOM     33  C   UNL     1       5.540   1.116 -16.593  0.00  0.00    +0.002 C 
ATOM     34  C   UNL     1       4.091   0.968 -17.121  0.00  0.00    +0.002 C 
ATOM     35  C   UNL     1       3.313   0.373 -15.928  0.00  0.00    +0.022 C 
ENDBRANCH  28  31
ENDBRANCH  22  23
ENDBRANCH  21  22
ENDBRANCH  19  21
ENDBRANCH   4  19
TORSDOF 7
