REMARK  Name = ZINC15769908
REMARK  9 active torsions:
REMARK  status: ('A' for Active; 'I' for Inactive)
REMARK    1  A    between atoms: N_9  and  C_10
REMARK    2  A    between atoms: C_10  and  N_11
REMARK    3  A    between atoms: N_11  and  C_12
REMARK    4  A    between atoms: C_17  and  S_18
REMARK    5  A    between atoms: S_18  and  S_19
REMARK    6  A    between atoms: S_19  and  C_20
REMARK    7  A    between atoms: C_25  and  N_26
REMARK    8  A    between atoms: N_26  and  C_27
REMARK    9  A    between atoms: C_27  and  N_28
REMARK                            x       y       z     vdW  Elec       q    Type
REMARK                         _______ _______ _______ _____ _____    ______ ____
ROOT
ATOM      1  S   UNL     1      -4.896   3.635  -4.228  0.00  0.00    -0.050 S 
ENDROOT
BRANCH   1   7
ATOM      2  C   UNL     1      -5.528   3.491  -1.562  0.00  0.00    +0.043 A 
ATOM      3  C   UNL     1      -6.405   3.327  -0.502  0.00  0.00    +0.024 A 
ATOM      4  C   UNL     1      -7.747   3.090  -0.745  0.00  0.00    +0.002 A 
ATOM      5  C   UNL     1      -8.217   3.016  -2.043  0.00  0.00    +0.001 A 
ATOM      6  C   UNL     1      -7.350   3.177  -3.107  0.00  0.00    +0.017 A 
ATOM      7  C   UNL     1      -6.003   3.421  -2.874  0.00  0.00    +0.040 A 
BRANCH   2   8
ATOM      8  N   UNL     1      -4.170   3.731  -1.319  0.00  0.00    -0.324 N 
ATOM      9  H   UNL     1      -3.557   3.845  -2.062  0.00  0.00    +0.148 HD
BRANCH   8  10
ATOM     10  C   UNL     1      -3.675   3.810   0.058  0.00  0.00    +0.250 C 
BRANCH  10  19
ATOM     11  C   UNL     1       1.184   1.781   0.000  0.00  0.00    +0.002 A 
ATOM     12  C   UNL     1      -0.013   1.076   0.008  0.00  0.00    +0.002 A 
ATOM     13  C   UNL     1      -1.209   1.737   0.017  0.00  0.00    +0.030 A 
ATOM     14  C   UNL     1      -1.230   3.127   0.030  0.00  0.00    +0.091 A 
ATOM     15  C   UNL     1      -0.022   3.847   0.022  0.00  0.00    +0.113 A 
ATOM     16  C   UNL     1       1.191   3.145   0.007  0.00  0.00    +0.032 A 
ATOM     17  N   UNL     1      -0.328   5.160   0.031  0.00  0.00    -0.129 NA
ATOM     18  N   UNL     1      -1.604   5.321   0.044  0.00  0.00    -0.063 NA
ATOM     19  N   UNL     1      -2.233   4.067   0.044  0.00  0.00    -0.227 N 
ENDBRANCH  10  19
ENDBRANCH   8  10
ENDBRANCH   2   8
ENDBRANCH   1   7
BRANCH   1  20
ATOM     20  S   UNL     1      -6.091   3.440  -5.881  0.00  0.00    -0.050 S 
BRANCH  20  21
ATOM     21  C   UNL     1      -6.759   5.053  -6.118  0.00  0.00    +0.040 A 
ATOM     22  C   UNL     1      -6.414   6.083  -5.253  0.00  0.00    +0.017 A 
ATOM     23  C   UNL     1      -6.940   7.348  -5.441  0.00  0.00    +0.001 A 
ATOM     24  C   UNL     1      -7.808   7.592  -6.489  0.00  0.00    +0.002 A 
ATOM     25  C   UNL     1      -8.156   6.572  -7.356  0.00  0.00    +0.024 A 
ATOM     26  C   UNL     1      -7.631   5.302  -7.179  0.00  0.00    +0.043 A 
BRANCH  26  27
ATOM     27  N   UNL     1      -7.979   4.269  -8.059  0.00  0.00    -0.324 N 
ATOM     28  H   UNL     1      -7.613   3.380  -7.932  0.00  0.00    +0.148 HD
BRANCH  27  29
ATOM     29  C   UNL     1      -8.895   4.532  -9.172  0.00  0.00    +0.250 C 
BRANCH  29  30
ATOM     30  N   UNL     1      -9.097   3.301  -9.939  0.00  0.00    -0.227 N 
ATOM     31  C   UNL     1      -8.359   2.872 -11.017  0.00  0.00    +0.091 A 
ATOM     32  C   UNL     1      -7.258   3.381 -11.698  0.00  0.00    +0.030 A 
ATOM     33  C   UNL     1      -6.736   2.692 -12.756  0.00  0.00    +0.002 A 
ATOM     34  C   UNL     1      -7.293   1.484 -13.156  0.00  0.00    +0.002 A 
ATOM     35  C   UNL     1      -8.369   0.961 -12.502  0.00  0.00    +0.032 A 
ATOM     36  C   UNL     1      -8.923   1.648 -11.413  0.00  0.00    +0.113 A 
ATOM     37  N   UNL     1      -9.960   1.389 -10.591  0.00  0.00    -0.129 NA
ATOM     38  N   UNL     1     -10.087   2.331  -9.723  0.00  0.00    -0.063 NA
ENDBRANCH  29  30
ENDBRANCH  27  29
ENDBRANCH  26  27
ENDBRANCH  20  21
ENDBRANCH   1  20
TORSDOF 9
