REMARK  Name = ZINC04384801
REMARK  1 active torsions:
REMARK  status: ('A' for Active; 'I' for Inactive)
REMARK    1  A    between atoms: C_4  and  C_7
REMARK                            x       y       z     vdW  Elec       q    Type
REMARK                         _______ _______ _______ _____ _____    ______ ____
ROOT
ATOM      1  C   UNL     1       3.711  -0.707  -0.038  0.00  0.00    +0.093 C 
ATOM      2  C   UNL     1       3.790  -1.566  -1.273  0.00  0.00    +0.069 A 
ATOM      3  C   UNL     1       4.003  -0.941  -2.524  0.00  0.00    +0.280 A 
ATOM      4  O   UNL     1       4.123   0.273  -2.589  0.00  0.00    -0.265 OA
ATOM      5  N   UNL     1       4.072  -1.684  -3.638  0.00  0.00    -0.177 NA
ATOM      6  C   UNL     1       3.945  -2.993  -3.586  0.00  0.00    +0.195 A 
ATOM      7  N   UNL     1       3.741  -3.632  -2.403  0.00  0.00    -0.316 N 
ATOM      8  C   UNL     1       3.665  -2.919  -1.232  0.00  0.00    +0.112 A 
ATOM      9  N   UNL     1       3.469  -3.605  -0.049  0.00  0.00    -0.300 N 
ATOM     10  C   UNL     1       3.692  -2.944   1.137  0.00  0.00    +0.048 C 
ATOM     11  C   UNL     1       3.816  -1.578   1.187  0.00  0.00    +0.034 C 
ATOM     12  C   UNL     1       4.045  -1.171   2.520  0.00  0.00    +0.193 C 
ATOM     13  O   UNL     1       4.201  -0.029   2.907  0.00  0.00    -0.287 OA
ATOM     14  C   UNL     1       4.060  -2.389   3.361  0.00  0.00    +0.031 A 
ATOM     15  C   UNL     1       3.839  -3.487   2.491  0.00  0.00    +0.007 A 
ATOM     16  C   UNL     1       3.796  -4.783   2.979  0.00  0.00    +0.010 A 
ATOM     17  C   UNL     1       3.979  -4.950   4.355  0.00  0.00    +0.001 A 
ATOM     18  C   UNL     1       4.193  -3.883   5.194  0.00  0.00    +0.001 A 
ATOM     19  C   UNL     1       4.241  -2.568   4.718  0.00  0.00    +0.012 A 
ATOM     20  N   UNL     1       4.019  -3.724  -4.742  0.00  0.00    -0.329 N 
ATOM     21  H   UNL     1       3.181  -4.532  -0.055  0.00  0.00    +0.154 HD
ATOM     22  H   UNL     1       4.165  -3.276  -5.590  0.00  0.00    +0.145 HD
ATOM     23  H   UNL     1       3.926  -4.689  -4.713  0.00  0.00    +0.145 HD
ATOM     24  H   UNL     1       3.648  -4.598  -2.386  0.00  0.00    +0.170 HD
ENDROOT
BRANCH   1  28
ATOM     25  C   UNL     1      -0.017   1.378   0.010  0.00  0.00    +0.000 A 
ATOM     26  C   UNL     1       1.171   2.086   0.002  0.00  0.00    +0.000 A 
ATOM     27  C   UNL     1       2.377   1.411  -0.013  0.00  0.00    +0.004 A 
ATOM     28  C   UNL     1       2.396   0.029  -0.020  0.00  0.00    -0.035 A 
ATOM     29  C   UNL     1       1.208  -0.679  -0.012  0.00  0.00    +0.004 A 
ATOM     30  C   UNL     1       0.002  -0.004   0.002  0.00  0.00    +0.000 A 
ENDBRANCH   1  28
TORSDOF 1
