REMARK  Name = ZINC36013930
REMARK  15 active torsions:
REMARK  status: ('A' for Active; 'I' for Inactive)
REMARK    1  A    between atoms: C_1  and  C_2
REMARK    2  A    between atoms: C_2  and  C_3
REMARK    3  A    between atoms: C_3  and  N_4
REMARK    4  A    between atoms: N_10  and  C_13
REMARK    5  A    between atoms: C_13  and  C_14
REMARK    6  A    between atoms: C_15  and  C_33
REMARK    7  A    between atoms: C_16  and  C_24
REMARK    8  A    between atoms: N_21  and  C_22
REMARK    9  A    between atoms: C_22  and  C_23
REMARK   10  A    between atoms: C_27  and  C_30
REMARK   11  A    between atoms: C_30  and  C_31
REMARK   12  A    between atoms: C_30  and  C_32
REMARK   13  A    between atoms: C_33  and  O_35
REMARK   14  A    between atoms: O_35  and  C_36
REMARK   15  A    between atoms: C_36  and  C_37
REMARK                            x       y       z     vdW  Elec       q    Type
REMARK                         _______ _______ _______ _____ _____    ______ ____
ROOT
ATOM      1  C   UNL     1      -3.329  -8.738   1.318  0.00  0.00    +0.041 C 
ATOM      2  C   UNL     1      -3.182 -10.027   0.942  0.00  0.00    +0.080 C 
ATOM      3  C   UNL     1      -4.437 -10.828   0.662  0.00  0.00    +0.144 C 
ATOM      4  N   UNL     1      -5.723 -10.130   0.823  0.00  0.00    -0.288 N 
ATOM      5  C   UNL     1      -5.709  -8.838   1.206  0.00  0.00    +0.307 C 
ATOM      6  O   UNL     1      -6.766  -8.253   1.342  0.00  0.00    -0.252 OA
ATOM      7  N   UNL     1      -4.568  -8.179   1.446  0.00  0.00    -0.258 N 
ATOM      8  H   UNL     1      -6.562 -10.590   0.658  0.00  0.00    +0.151 HD
ENDROOT
BRANCH   3   9
ATOM      9  C   UNL     1      -4.358 -11.334  -0.756  0.00  0.00    -0.022 A 
ATOM     10  C   UNL     1      -4.671 -10.494  -1.808  0.00  0.00    +0.006 A 
ATOM     11  C   UNL     1      -4.599 -10.958  -3.108  0.00  0.00    +0.004 A 
ATOM     12  C   UNL     1      -4.213 -12.262  -3.356  0.00  0.00    -0.045 A 
ATOM     13  C   UNL     1      -3.899 -13.102  -2.304  0.00  0.00    +0.004 A 
ATOM     14  C   UNL     1      -3.967 -12.636  -1.004  0.00  0.00    +0.006 A 
BRANCH  12  15
ATOM     15  C   UNL     1      -4.135 -12.768  -4.773  0.00  0.00    +0.013 C 
ATOM     16  C   UNL     1      -2.705 -13.220  -5.076  0.00  0.00    +0.012 C 
ATOM     17  C   UNL     1      -5.091 -13.950  -4.946  0.00  0.00    +0.012 C 
ENDBRANCH  12  15
ENDBRANCH   3   9
BRANCH   7  18
ATOM     18  C   UNL     1      -4.655  -6.777   1.863  0.00  0.00    +0.111 C 
ATOM     19  C   UNL     1      -4.758  -5.883   0.627  0.00  0.00    +0.025 C 
ENDBRANCH   7  18
BRANCH   2  20
ATOM     20  C   UNL     1      -1.899 -10.609   0.814  0.00  0.00    +0.339 C 
ATOM     21  O   UNL     1      -0.912  -9.989   1.164  0.00  0.00    -0.245 OA
BRANCH  20  22
ATOM     22  O   UNL     1      -1.769 -11.852   0.305  0.00  0.00    -0.462 OA
BRANCH  22  23
ATOM     23  C   UNL     1      -0.444 -12.378   0.205  0.00  0.00    +0.229 C 
ATOM     24  C   UNL     1      -0.498 -13.786  -0.390  0.00  0.00    +0.048 C 
ENDBRANCH  22  23
ENDBRANCH  20  22
ENDBRANCH   2  20
BRANCH   1  25
ATOM     25  C   UNL     1      -2.107  -7.906   1.607  0.00  0.00    +0.136 C 
BRANCH  25  32
ATOM     26  N   UNL     1       0.851  -9.413   6.768  0.00  0.00    -0.299 N 
ATOM     27  C   UNL     1       0.506  -8.178   6.355  0.00  0.00    +0.302 C 
ATOM     28  O   UNL     1       1.114  -7.208   6.764  0.00  0.00    -0.253 OA
ATOM     29  N   UNL     1      -0.514  -8.018   5.488  0.00  0.00    -0.283 N 
ATOM     30  C   UNL     1      -0.834  -6.693   4.935  0.00  0.00    +0.124 C 
ATOM     31  C   UNL     1      -0.919  -6.810   3.410  0.00  0.00    +0.104 C 
ATOM     32  N   UNL     1      -1.866  -7.875   3.056  0.00  0.00    -0.294 NA
ATOM     33  C   UNL     1      -1.402  -9.183   3.539  0.00  0.00    +0.104 C 
ATOM     34  C   UNL     1      -1.333  -9.164   5.066  0.00  0.00    +0.124 C 
ATOM     35  H   UNL     1       0.320 -10.180   6.502  0.00  0.00    +0.150 HD
BRANCH  26  36
ATOM     36  C   UNL     1       2.028  -9.598   7.621  0.00  0.00    +0.105 C 
BRANCH  36  38
ATOM     37  C   UNL     1       3.424 -11.277   8.835  0.00  0.00    +0.005 C 
ATOM     38  C   UNL     1       2.195 -11.084   7.944  0.00  0.00    +0.015 C 
ENDBRANCH  36  38
ENDBRANCH  26  36
ENDBRANCH  25  32
ENDBRANCH   1  25
TORSDOF 10
