REMARK  Name = ZINC54731262
REMARK  5 active torsions:
REMARK  status: ('A' for Active; 'I' for Inactive)
REMARK    1  A    between atoms: C_1  and  C_2
REMARK    2  A    between atoms: C_5  and  C_7
REMARK    3  A    between atoms: C_7  and  C_9
REMARK    4  A    between atoms: C_7  and  N_10
REMARK    5  A    between atoms: C_16  and  C_19
REMARK                            x       y       z     vdW  Elec       q    Type
REMARK                         _______ _______ _______ _____ _____    ______ ____
ROOT
ATOM      1  N   UNL     1       2.628  -3.698  -0.818  0.00  0.00    -0.292 N 
ATOM      2  C   UNL     1       2.737  -4.915  -1.387  0.00  0.00    +0.303 C 
ATOM      3  O   UNL     1       1.990  -5.813  -1.048  0.00  0.00    -0.253 OA
ATOM      4  N   UNL     1       3.672  -5.137  -2.331  0.00  0.00    -0.286 N 
ATOM      5  C   UNL     1       4.662  -4.102  -2.662  0.00  0.00    +0.110 C 
ATOM      6  C   UNL     1       4.626  -3.851  -4.172  0.00  0.00    +0.032 C 
ATOM      7  C   UNL     1       4.831  -5.175  -4.911  0.00  0.00    +0.078 C 
ATOM      8  C   UNL     1       3.698  -6.140  -4.555  0.00  0.00    +0.032 C 
ATOM      9  C   UNL     1       3.727  -6.420  -3.045  0.00  0.00    +0.110 C 
ATOM     10  H   UNL     1       3.272  -3.005  -1.030  0.00  0.00    +0.151 HD
ENDROOT
BRANCH   7  11
ATOM     11  C   UNL     1       4.830  -4.927  -6.397  0.00  0.00    +0.219 C 
ATOM     12  O   UNL     1       4.575  -3.822  -6.827  0.00  0.00    -0.275 OA
ATOM     13  N   UNL     1       5.113  -5.932  -7.249  0.00  0.00    -0.301 N 
ATOM     14  C   UNL     1       5.027  -5.682  -8.670  0.00  0.00    +0.108 C 
ATOM     15  C   UNL     1       3.589  -5.979  -9.164  0.00  0.00    +0.019 C 
ATOM     16  C   UNL     1       3.336  -7.428  -9.154  0.00  0.00    +0.002 C 
ATOM     17  C   UNL     1       3.399  -8.068  -7.770  0.00  0.00    +0.002 C 
ATOM     18  C   UNL     1       4.832  -8.411  -7.443  0.00  0.00    +0.019 C 
ATOM     19  C   UNL     1       5.503  -7.242  -6.692  0.00  0.00    +0.108 C 
ENDBRANCH   7  11
BRANCH   1  20
ATOM     20  C   UNL     1       1.537  -3.422   0.121  0.00  0.00    +0.108 C 
ATOM     21  C   UNL     1       1.943  -3.880   1.523  0.00  0.00    +0.033 C 
BRANCH  20  26
ATOM     22  C   UNL     1       1.446   2.242   0.142  0.00  0.00    +0.051 C 
ATOM     23  C   UNL     1       1.208   0.753   0.148  0.00  0.00    -0.013 A 
ATOM     24  C   UNL     1       0.034   0.077   0.199  0.00  0.00    +0.011 A 
ATOM     25  C   UNL     1       0.057  -1.305   0.193  0.00  0.00    +0.013 A 
ATOM     26  C   UNL     1       1.251  -1.943   0.138  0.00  0.00    +0.010 A 
ATOM     27  S   UNL     1       2.398  -0.576   0.084  0.00  0.00    -0.097 S 
ENDBRANCH  20  26
ENDBRANCH   1  20
TORSDOF 3
