REMARK  Name = ZINC09948819
REMARK  9 active torsions:
REMARK  status: ('A' for Active; 'I' for Inactive)
REMARK    1  A    between atoms: C_1  and  C_2
REMARK    2  A    between atoms: C_3  and  N_14
REMARK    3  A    between atoms: C_4  and  C_13
REMARK    4  A    between atoms: N_5  and  C_7
REMARK    5  A    between atoms: C_15  and  C_17
REMARK    6  A    between atoms: C_17  and  N_18
REMARK    7  A    between atoms: C_21  and  C_25
REMARK    8  A    between atoms: C_21  and  C_32
REMARK    9  A    between atoms: C_25  and  C_26
REMARK                            x       y       z     vdW  Elec       q    Type
REMARK                         _______ _______ _______ _____ _____    ______ ____
ROOT
ATOM      1  N   UNL     1       4.221  -1.427   2.077  0.00  0.00    -0.215 N 
ATOM      2  C   UNL     1       4.223  -0.093   2.293  0.00  0.00    +0.252 C 
ATOM      3  O   UNL     1       4.527   0.486   3.314  0.00  0.00    -0.272 OA
ATOM      4  C   UNL     1       3.764   0.530   0.990  0.00  0.00    +0.142 C 
ATOM      5  N   UNL     1       3.539  -0.629   0.109  0.00  0.00    -0.281 N 
ATOM      6  C   UNL     1       3.832  -1.725   0.832  0.00  0.00    +0.310 C 
ATOM      7  O   UNL     1       3.752  -2.859   0.403  0.00  0.00    -0.252 OA
ATOM      8  H   UNL     1       3.238  -0.607  -0.813  0.00  0.00    +0.152 HD
ENDROOT
BRANCH   4   9
ATOM      9  C   UNL     1       2.485   1.299   1.191  0.00  0.00    -0.015 A 
ATOM     10  C   UNL     1       1.266   0.653   1.092  0.00  0.00    +0.006 A 
ATOM     11  C   UNL     1       0.092   1.359   1.277  0.00  0.00    +0.000 A 
ATOM     12  C   UNL     1       0.137   2.711   1.561  0.00  0.00    +0.000 A 
ATOM     13  C   UNL     1       1.355   3.357   1.661  0.00  0.00    +0.000 A 
ATOM     14  C   UNL     1       2.529   2.652   1.474  0.00  0.00    +0.006 A 
ENDBRANCH   4   9
BRANCH   1  15
ATOM     15  C   UNL     1       4.601  -2.423   3.082  0.00  0.00    +0.214 C 
BRANCH  15  17
ATOM     16  N   UNL     1       3.459  -3.921   4.686  0.00  0.00    -0.281 N 
ATOM     17  C   UNL     1       3.366  -2.919   3.789  0.00  0.00    +0.235 C 
ATOM     18  O   UNL     1       2.288  -2.416   3.552  0.00  0.00    -0.274 OA
ATOM     19  H   UNL     1       4.328  -4.284   4.918  0.00  0.00    +0.155 HD
BRANCH  16  22
ATOM     20  C   UNL     1       0.824  -4.566   3.156  0.00  0.00    +0.069 C 
ATOM     21  C   UNL     1       1.094  -4.743   4.628  0.00  0.00    +0.082 A 
ATOM     22  C   UNL     1       2.296  -4.440   5.285  0.00  0.00    +0.078 A 
ATOM     23  C   UNL     1       2.141  -4.743   6.599  0.00  0.00    +0.063 A 
ATOM     24  N   UNL     1       0.875  -5.213   6.764  0.00  0.00    -0.235 N 
ATOM     25  N   UNL     1       0.246  -5.203   5.513  0.00  0.00    -0.170 NA
ATOM     26  C   UNL     1       3.180  -4.584   7.678  0.00  0.00    +0.068 C 
BRANCH  24  27
ATOM     27  C   UNL     1       0.303  -5.636   7.972  0.00  0.00    +0.066 A 
ATOM     28  C   UNL     1      -0.508  -6.762   8.000  0.00  0.00    +0.028 A 
ATOM     29  C   UNL     1      -1.065  -7.181   9.193  0.00  0.00    +0.002 A 
ATOM     30  C   UNL     1      -0.826  -6.471  10.356  0.00  0.00    +0.000 A 
ATOM     31  C   UNL     1      -0.024  -5.346  10.329  0.00  0.00    +0.002 A 
ATOM     32  C   UNL     1       0.541  -4.926   9.141  0.00  0.00    +0.028 A 
ENDBRANCH  24  27
ENDBRANCH  16  22
ENDBRANCH  15  17
ENDBRANCH   1  15
BRANCH   4  33
ATOM     33  C   UNL     1       4.853   1.439   0.415  0.00  0.00    +0.075 C 
BRANCH  33  34
ATOM     34  C   UNL     1       6.075   0.618   0.094  0.00  0.00    -0.045 A 
ATOM     35  C   UNL     1       7.034   0.398   1.065  0.00  0.00    +0.004 A 
ATOM     36  C   UNL     1       8.153  -0.359   0.772  0.00  0.00    +0.000 A 
ATOM     37  C   UNL     1       8.318  -0.887  -0.494  0.00  0.00    +0.000 A 
ATOM     38  C   UNL     1       7.362  -0.663  -1.467  0.00  0.00    +0.000 A 
ATOM     39  C   UNL     1       6.240   0.090  -1.173  0.00  0.00    +0.004 A 
ENDBRANCH  33  34
ENDBRANCH   4  33
TORSDOF 7
