REMARK  Name = ZINC12783079
REMARK  13 active torsions:
REMARK  status: ('A' for Active; 'I' for Inactive)
REMARK    1  A    between atoms: C_1  and  O_2
REMARK    2  A    between atoms: O_2  and  C_3
REMARK    3  A    between atoms: C_6  and  C_9
REMARK    4  A    between atoms: C_9  and  C_11
REMARK    5  A    between atoms: C_9  and  N_63
REMARK    6  A    between atoms: C_11  and  N_12
REMARK    7  A    between atoms: C_13  and  C_15
REMARK    8  A    between atoms: C_18  and  O_25
REMARK    9  A    between atoms: C_19  and  O_23
REMARK   10  A    between atoms: C_20  and  O_21
REMARK   11  A    between atoms: O_21  and  C_22
REMARK   12  A    between atoms: O_23  and  C_24
REMARK   13  A    between atoms: O_25  and  C_26
REMARK                            x       y       z     vdW  Elec       q    Type
REMARK                         _______ _______ _______ _____ _____    ______ ____
ROOT
ATOM      1  C   UNL     1      -2.047   1.794   2.263  0.00  0.00    +0.094 C 
ENDROOT
BRANCH   1   2
ATOM      2  N   UNL     1      -3.482   1.687   2.537  0.00  0.00    -0.312 N 
ATOM      3  C   UNL     1      -4.082   2.579   3.349  0.00  0.00    +0.248 C 
ATOM      4  O   UNL     1      -3.432   3.474   3.855  0.00  0.00    -0.270 OA
ATOM      5  H   UNL     1      -4.001   0.973   2.134  0.00  0.00    +0.149 HD
BRANCH   3   6
ATOM      6  C   UNL     1      -5.525   2.471   3.625  0.00  0.00    +0.082 A 
ATOM      7  C   UNL     1      -6.276   1.446   3.040  0.00  0.00    +0.020 A 
ATOM      8  C   UNL     1      -7.623   1.344   3.304  0.00  0.00    +0.050 A 
ATOM      9  C   UNL     1      -8.246   2.263   4.141  0.00  0.00    +0.165 A 
ATOM     10  C   UNL     1      -7.512   3.289   4.723  0.00  0.00    +0.204 A 
ATOM     11  C   UNL     1      -6.151   3.399   4.469  0.00  0.00    +0.177 A 
BRANCH  11  12
ATOM     12  O   UNL     1      -5.431   4.400   5.036  0.00  0.00    -0.491 OA
ATOM     13  C   UNL     1      -4.931   4.174   6.355  0.00  0.00    +0.277 C 
ENDBRANCH  11  12
BRANCH  10  14
ATOM     14  O   UNL     1      -8.126   4.187   5.542  0.00  0.00    -0.488 OA
ATOM     15  C   UNL     1      -8.569   5.409   4.948  0.00  0.00    +0.277 C 
ENDBRANCH  10  14
BRANCH   9  16
ATOM     16  O   UNL     1      -9.577   2.157   4.391  0.00  0.00    -0.491 OA
ATOM     17  C   UNL     1     -10.272   1.079   3.760  0.00  0.00    +0.277 C 
ENDBRANCH   9  16
ENDBRANCH   3   6
ENDBRANCH   1   2
BRANCH   1  18
ATOM     18  C   UNL     1      -1.622   0.667   1.320  0.00  0.00    -0.020 C 
BRANCH  18  24
ATOM     19  C   UNL     1      -1.797  -0.001  -1.000  0.00  0.00    -0.078 C 
ATOM     20  C   UNL     1      -2.750  -0.071  -2.196  0.00  0.00    -0.019 C 
ATOM     21  C   UNL     1      -3.132   1.349  -2.621  0.00  0.00    -0.004 C 
ATOM     22  C   UNL     1      -3.770   2.075  -1.433  0.00  0.00    -0.019 C 
ATOM     23  C   UNL     1      -2.787   2.083  -0.260  0.00  0.00    -0.078 C 
ATOM     24  N   UNL     1      -2.479   0.687   0.117  0.00  0.00    +0.385 N 
ATOM     25  H   UNL     1      -3.357   0.197   0.324  0.00  0.00    -0.081 HD
ENDBRANCH  18  24
BRANCH  18  29
ATOM     26  C   UNL     1       2.482   1.180   0.244  0.00  0.00    +0.120 A 
ATOM     27  C   UNL     1       2.045  -0.031   0.761  0.00  0.00    +0.046 A 
ATOM     28  C   UNL     1       0.718  -0.194   1.109  0.00  0.00    +0.005 A 
ATOM     29  C   UNL     1      -0.175   0.848   0.941  0.00  0.00    -0.059 A 
ATOM     30  C   UNL     1       0.256   2.054   0.420  0.00  0.00    +0.005 A 
ATOM     31  C   UNL     1       1.583   2.224   0.077  0.00  0.00    +0.046 A 
BRANCH  26  33
ATOM     32  C   UNL     1       4.165   2.617  -0.626  0.00  0.00    +0.277 C 
ATOM     33  O   UNL     1       3.787   1.343  -0.099  0.00  0.00    -0.495 OA
ENDBRANCH  26  33
ENDBRANCH  18  29
ENDBRANCH   1  18
TORSDOF 9
