REMARK  Name = ZINC20917993
REMARK  7 active torsions:
REMARK  status: ('A' for Active; 'I' for Inactive)
REMARK    1  A    between atoms: C_1  and  C_2
REMARK    2  A    between atoms: C_5  and  N_8
REMARK    3  A    between atoms: C_9  and  C_11
REMARK    4  A    between atoms: C_11  and  C_36
REMARK    5  A    between atoms: N_26  and  C_27
REMARK    6  A    between atoms: C_27  and  C_28
REMARK    7  A    between atoms: C_28  and  C_29
REMARK                            x       y       z     vdW  Elec       q    Type
REMARK                         _______ _______ _______ _____ _____    ______ ____
ROOT
ATOM      1  C   UNL     1      -1.518  -6.043   1.771  0.00  0.00    +0.096 C 
ATOM      2  C   UNL     1      -2.496  -6.683   2.757  0.00  0.00    -0.042 C 
ATOM      3  N   UNL     1      -1.917  -6.639   4.108  0.00  0.00    +0.392 N 
ATOM      4  C   UNL     1      -2.918  -7.030   5.110  0.00  0.00    -0.042 C 
ATOM      5  C   UNL     1      -2.297  -7.093   6.480  0.00  0.00    -0.061 A 
ATOM      6  C   UNL     1      -3.134  -7.082   7.586  0.00  0.00    +0.002 A 
ATOM      7  C   UNL     1      -2.607  -7.148   8.860  0.00  0.00    +0.000 A 
ATOM      8  C   UNL     1      -1.238  -7.225   9.037  0.00  0.00    +0.000 A 
ATOM      9  C   UNL     1      -0.404  -7.234   7.937  0.00  0.00    +0.004 A 
ATOM     10  C   UNL     1      -0.932  -7.167   6.656  0.00  0.00    -0.047 A 
ATOM     11  C   UNL     1       0.017  -7.176   5.486  0.00  0.00    +0.029 C 
ATOM     12  C   UNL     1      -0.742  -7.519   4.200  0.00  0.00    +0.024 C 
ATOM     13  C   UNL     1       0.163  -7.320   3.020  0.00  0.00    +0.203 C 
ATOM     14  O   UNL     1       1.281  -7.787   3.068  0.00  0.00    -0.277 OA
ATOM     15  N   UNL     1      -0.200  -6.654   1.920  0.00  0.00    -0.290 N 
ATOM     16  C   UNL     1      -2.022  -6.258   0.343  0.00  0.00    +0.040 C 
ATOM     17  H   UNL     1      -1.597  -5.606   4.311  0.00  0.00    -0.080 HD
ENDROOT
BRANCH   1  19
ATOM     18  N   UNL     1      -0.596  -4.115   3.018  0.00  0.00    -0.311 N 
ATOM     19  C   UNL     1      -1.420  -4.565   2.051  0.00  0.00    +0.235 C 
ATOM     20  O   UNL     1      -2.082  -3.780   1.405  0.00  0.00    -0.274 OA
ATOM     21  H   UNL     1      -0.056  -4.830   3.657  0.00  0.00    +0.149 HD
BRANCH  18  26
ATOM     22  C   UNL     1       1.449   1.119   4.133  0.00  0.00    +0.007 C 
ATOM     23  C   UNL     1       1.266  -0.385   3.922  0.00  0.00    -0.014 C 
ATOM     24  C   UNL     1       0.838  -0.649   2.477  0.00  0.00    +0.005 C 
ATOM     25  C   UNL     1       0.655  -2.154   2.266  0.00  0.00    +0.022 C 
ATOM     26  C   UNL     1      -0.421  -2.675   3.221  0.00  0.00    +0.073 C 
ATOM     27  C   UNL     1       0.007  -2.411   4.665  0.00  0.00    +0.022 C 
ATOM     28  C   UNL     1       0.190  -0.907   4.877  0.00  0.00    +0.005 C 
ENDBRANCH  18  26
ENDBRANCH   1  19
BRANCH  15  29
ATOM     29  C   UNL     1       0.761  -6.533   0.821  0.00  0.00    +0.113 C 
BRANCH  29  30
ATOM     30  C   UNL     1       0.693  -7.785  -0.057  0.00  0.00    +0.054 C 
BRANCH  30  31
ATOM     31  C   UNL     1       1.615  -7.621  -1.238  0.00  0.00    -0.046 A 
ATOM     32  C   UNL     1       1.143  -7.061  -2.410  0.00  0.00    +0.005 A 
ATOM     33  C   UNL     1       1.989  -6.906  -3.492  0.00  0.00    +0.020 A 
ATOM     34  C   UNL     1       3.306  -7.321  -3.405  0.00  0.00    +0.041 A 
ATOM     35  C   UNL     1       3.776  -7.886  -2.233  0.00  0.00    +0.020 A 
ATOM     36  C   UNL     1       2.930  -8.036  -1.150  0.00  0.00    +0.005 A 
ATOM     37 CL   UNL     1       4.368  -7.132  -4.765  0.00  0.00    -0.084 Cl
ENDBRANCH  30  31
ENDBRANCH  29  30
ENDBRANCH  15  29
TORSDOF 5
