REMARK  Name = ZINC54641055
REMARK  12 active torsions:
REMARK  status: ('A' for Active; 'I' for Inactive)
REMARK    1  A    between atoms: C_1  and  C_2
REMARK    2  A    between atoms: C_2  and  C_3
REMARK    3  A    between atoms: C_3  and  O_4
REMARK    4  A    between atoms: O_4  and  C_5
REMARK    5  A    between atoms: C_10  and  C_11
REMARK    6  A    between atoms: C_13  and  C_30
REMARK    7  A    between atoms: C_14  and  C_29
REMARK    8  A    between atoms: C_19  and  S_21
REMARK    9  A    between atoms: S_21  and  C_22
REMARK   10  A    between atoms: C_22  and  C_23
REMARK   11  A    between atoms: C_30  and  O_32
REMARK   12  A    between atoms: O_32  and  C_33
REMARK                            x       y       z     vdW  Elec       q    Type
REMARK                         _______ _______ _______ _____ _____    ______ ____
ROOT
ATOM      1  C   UNL     1      -1.502  -4.780   0.024  0.00  0.00    +0.182 C 
ATOM      2  C   UNL     1      -1.558  -5.669   1.238  0.00  0.00    +0.082 C 
ATOM      3  C   UNL     1      -1.630  -7.007   1.164  0.00  0.00    +0.020 C 
ATOM      4  N   UNL     1      -1.647  -7.673  -0.036  0.00  0.00    -0.287 N 
ATOM      5  C   UNL     1      -1.323  -6.947  -1.174  0.00  0.00    +0.219 A 
ATOM      6  N   UNL     1      -1.246  -5.593  -1.162  0.00  0.00    -0.220 N 
ATOM      7  N   UNL     1      -0.895  -5.201  -2.453  0.00  0.00    -0.141 NA
ATOM      8  C   UNL     1      -0.784  -6.301  -3.166  0.00  0.00    +0.211 A 
ATOM      9  N   UNL     1      -1.047  -7.358  -2.382  0.00  0.00    -0.187 NA
ATOM     10  C   UNL     1      -1.693  -7.805   2.441  0.00  0.00    +0.061 C 
ATOM     11  H   UNL     1      -1.877  -8.614  -0.087  0.00  0.00    +0.155 HD
ENDROOT
BRANCH   1  17
ATOM     12  C   UNL     1      -2.857  -2.675  -0.110  0.00  0.00    +0.126 A 
ATOM     13  C   UNL     1      -4.069  -2.016  -0.261  0.00  0.00    +0.046 A 
ATOM     14  C   UNL     1      -5.232  -2.742  -0.428  0.00  0.00    +0.004 A 
ATOM     15  C   UNL     1      -5.190  -4.124  -0.446  0.00  0.00    +0.001 A 
ATOM     16  C   UNL     1      -3.984  -4.783  -0.295  0.00  0.00    +0.009 A 
ATOM     17  C   UNL     1      -2.817  -4.062  -0.133  0.00  0.00    +0.023 A 
BRANCH  12  18
ATOM     18  O   UNL     1      -1.712  -1.964   0.054  0.00  0.00    -0.492 OA
BRANCH  18  19
ATOM     19  C   UNL     1      -1.829  -0.539   0.069  0.00  0.00    +0.229 C 
BRANCH  19  21
ATOM     20  C   UNL     1      -0.570   1.609   0.277  0.00  0.00    +0.007 C 
ATOM     21  C   UNL     1      -0.445   0.084   0.262  0.00  0.00    +0.038 C 
ENDBRANCH  19  21
ENDBRANCH  18  19
ENDBRANCH  12  18
ENDBRANCH   1  17
BRANCH   2  22
ATOM     22  C   UNL     1      -1.533  -5.066   2.515  0.00  0.00    +0.339 C 
ATOM     23  O   UNL     1      -0.492  -4.611   2.953  0.00  0.00    -0.245 OA
BRANCH  22  24
ATOM     24  O   UNL     1      -2.663  -4.994   3.250  0.00  0.00    -0.458 OA
BRANCH  24  25
ATOM     25  C   UNL     1      -2.564  -4.371   4.532  0.00  0.00    +0.177 C 
ATOM     26  C   UNL     1      -2.222  -5.426   5.587  0.00  0.00    +0.044 C 
ATOM     27  C   UNL     1      -2.116  -4.759   6.960  0.00  0.00    +0.004 C 
ATOM     28  C   UNL     1      -3.453  -4.101   7.311  0.00  0.00    +0.000 C 
ATOM     29  C   UNL     1      -3.795  -3.047   6.257  0.00  0.00    +0.004 C 
ATOM     30  C   UNL     1      -3.900  -3.714   4.884  0.00  0.00    +0.044 C 
ENDBRANCH  24  25
ENDBRANCH  22  24
ENDBRANCH   2  22
BRANCH   8  31
ATOM     31  S   UNL     1      -0.359  -6.375  -4.874  0.00  0.00    -0.080 S 
BRANCH  31  32
ATOM     32  C   UNL     1      -0.375  -8.149  -5.254  0.00  0.00    +0.112 C 
BRANCH  32  33
ATOM     33  C   UNL     1      -0.023  -8.355  -6.705  0.00  0.00    -0.037 A 
ATOM     34  C   UNL     1      -1.020  -8.371  -7.662  0.00  0.00    +0.004 A 
ATOM     35  C   UNL     1      -0.697  -8.560  -8.993  0.00  0.00    +0.000 A 
ATOM     36  C   UNL     1       0.622  -8.732  -9.367  0.00  0.00    +0.000 A 
ATOM     37  C   UNL     1       1.619  -8.715  -8.409  0.00  0.00    +0.000 A 
ATOM     38  C   UNL     1       1.297  -8.522  -7.079  0.00  0.00    +0.004 A 
ENDBRANCH  32  33
ENDBRANCH  31  32
ENDBRANCH   8  31
TORSDOF 10
