REMARK  Name = ZINC32854126
REMARK  10 active torsions:
REMARK  status: ('A' for Active; 'I' for Inactive)
REMARK    1  A    between atoms: C_1  and  C_2
REMARK    2  A    between atoms: C_5  and  C_34
REMARK    3  A    between atoms: C_6  and  N_8
REMARK    4  A    between atoms: C_9  and  C_11
REMARK    5  A    between atoms: C_11  and  C_13
REMARK    6  A    between atoms: C_11  and  S_14
REMARK    7  A    between atoms: S_14  and  C_15
REMARK    8  A    between atoms: C_15  and  C_17
REMARK    9  A    between atoms: C_15  and  C_18
REMARK   10  A    between atoms: C_24  and  C_29
REMARK                            x       y       z     vdW  Elec       q    Type
REMARK                         _______ _______ _______ _____ _____    ______ ____
ROOT
ATOM      1  C   UNL     1       0.596  -3.188   7.840  0.00  0.00    +0.110 C 
ATOM      2  C   UNL     1      -0.817  -3.737   8.053  0.00  0.00    +0.027 C 
ENDROOT
BRANCH   1   3
ATOM      3  C   UNL     1       1.055  -2.485   9.091  0.00  0.00    +0.124 A 
ATOM      4  N   UNL     1       1.046  -3.153  10.273  0.00  0.00    -0.309 N 
ATOM      5  H   UNL     1       0.744  -4.074  10.296  0.00  0.00    +0.170 HD
ATOM      6  C   UNL     1       1.449  -2.562  11.413  0.00  0.00    +0.260 A 
ATOM      7  O   UNL     1       1.436  -3.175  12.466  0.00  0.00    -0.267 OA
ATOM      8  C   UNL     1       1.894  -1.202  11.370  0.00  0.00    +0.083 A 
ATOM      9  C   UNL     1       2.374  -0.353  12.455  0.00  0.00    +0.039 A 
ATOM     10  C   UNL     1       2.747   0.920  12.170  0.00  0.00    +0.059 A 
ATOM     11  S   UNL     1       2.471   1.047  10.413  0.00  0.00    -0.076 S 
ATOM     12  C   UNL     1       1.868  -0.593  10.105  0.00  0.00    +0.116 A 
ATOM     13  N   UNL     1       1.461  -1.246   9.019  0.00  0.00    -0.225 NA
BRANCH   9  14
ATOM     14  C   UNL     1       2.451  -0.869  13.837  0.00  0.00    +0.136 A 
ATOM     15  C   UNL     1       3.529  -0.781  14.663  0.00  0.00    +0.050 A 
ATOM     16  C   UNL     1       3.163  -1.400  15.875  0.00  0.00    +0.042 A 
ATOM     17  C   UNL     1       1.895  -1.831  15.732  0.00  0.00    +0.196 A 
ATOM     18  O   UNL     1       1.466  -1.503  14.500  0.00  0.00    -0.463 OA
ENDBRANCH   9  14
ENDBRANCH   1   3
BRANCH   1  19
ATOM     19  S   UNL     1       0.586  -2.014   6.456  0.00  0.00    -0.137 S 
BRANCH  19  20
ATOM     20  C   UNL     1       0.153  -3.034   5.019  0.00  0.00    +0.130 C 
ATOM     21  C   UNL     1      -0.058  -2.134   3.800  0.00  0.00    +0.029 C 
BRANCH  20  23
ATOM     22  N   UNL     1       1.031  -5.112   4.005  0.00  0.00    -0.284 N 
ATOM     23  C   UNL     1       1.269  -4.007   4.739  0.00  0.00    +0.230 C 
ATOM     24  O   UNL     1       2.381  -3.795   5.172  0.00  0.00    -0.274 OA
ATOM     25  H   UNL     1       0.163  -5.243   3.593  0.00  0.00    +0.155 HD
BRANCH  22  31
ATOM     26  C   UNL     1       5.262  -7.112   5.512  0.00  0.00    +0.044 C 
ATOM     27  C   UNL     1       4.098  -7.064   4.555  0.00  0.00    -0.049 A 
ATOM     28  C   UNL     1       4.023  -7.969   3.512  0.00  0.00    +0.004 A 
ATOM     29  C   UNL     1       2.957  -7.928   2.633  0.00  0.00    +0.005 A 
ATOM     30  C   UNL     1       1.963  -6.982   2.794  0.00  0.00    -0.029 A 
ATOM     31  C   UNL     1       2.036  -6.072   3.840  0.00  0.00    +0.037 A 
ATOM     32  C   UNL     1       3.105  -6.119   4.725  0.00  0.00    +0.027 A 
ATOM     33  C   UNL     1       0.801  -6.938   1.835  0.00  0.00    +0.045 C 
ENDBRANCH  22  31
ENDBRANCH  20  23
ENDBRANCH  19  20
ENDBRANCH   1  19
TORSDOF 6
