REMARK  Name = ZINC12643139
REMARK  8 active torsions:
REMARK  status: ('A' for Active; 'I' for Inactive)
REMARK    1  A    between atoms: C_2  and  C_3
REMARK    2  A    between atoms: C_3  and  N_4
REMARK    3  A    between atoms: C_13  and  S_14
REMARK    4  A    between atoms: S_14  and  C_15
REMARK    5  A    between atoms: C_15  and  C_16
REMARK    6  A    between atoms: N_18  and  C_19
REMARK    7  A    between atoms: C_19  and  C_20
REMARK    8  A    between atoms: N_22  and  C_23
REMARK                            x       y       z     vdW  Elec       q    Type
REMARK                         _______ _______ _______ _____ _____    ______ ____
ROOT
ATOM      1  C   UNL     1       3.671   1.508   0.008  0.00  0.00    +0.224 C 
ATOM      2  O   UNL     1       3.877   2.703   0.018  0.00  0.00    -0.275 OA
ATOM      3  N   UNL     1       2.406   1.042   0.007  0.00  0.00    -0.306 N 
ATOM      4  H   UNL     1       2.242   0.086  -0.001  0.00  0.00    +0.149 HD
ENDROOT
BRANCH   1   5
ATOM      5  C   UNL     1       4.829   0.544  -0.004  0.00  0.00    +0.173 C 
BRANCH   5   6
ATOM      6  S   UNL     1       6.385   1.469   0.000  0.00  0.00    -0.078 S 
BRANCH   6  16
ATOM      7  N   UNL     1       8.870   0.423  -0.021  0.00  0.00    -0.283 N 
ATOM      8  C   UNL     1       9.766  -0.593  -0.027  0.00  0.00    +0.269 A 
ATOM      9  O   UNL     1      10.965  -0.369  -0.029  0.00  0.00    -0.266 OA
ATOM     10  C   UNL     1       9.282  -1.898  -0.037  0.00  0.00    +0.102 A 
ATOM     11  C   UNL     1       7.903  -2.173  -0.035  0.00  0.00    +0.086 A 
ATOM     12  C   UNL     1       7.558  -3.532  -0.046  0.00  0.00    +0.036 A 
ATOM     13  C   UNL     1       8.522  -4.477  -0.056  0.00  0.00    +0.048 A 
ATOM     14  S   UNL     1      10.023  -3.510  -0.053  0.00  0.00    -0.090 S 
ATOM     15  N   UNL     1       7.074  -1.087  -0.024  0.00  0.00    -0.222 NA
ATOM     16  C   UNL     1       7.535   0.135  -0.014  0.00  0.00    +0.173 A 
BRANCH   7  17
ATOM     17  C   UNL     1       9.327   1.815  -0.016  0.00  0.00    +0.154 C 
BRANCH  17  19
ATOM     18  C   UNL     1      10.638   2.782   1.803  0.00  0.00    +0.005 C 
ATOM     19  C   UNL     1       9.493   2.284   1.407  0.00  0.00    -0.013 C 
ENDBRANCH  17  19
ENDBRANCH   7  17
ENDBRANCH   6  16
ENDBRANCH   5   6
ENDBRANCH   1   5
BRANCH   3  20
ATOM     20  C   UNL     1       1.280   1.979   0.018  0.00  0.00    +0.200 C 
BRANCH  20  21
ATOM     21  C   UNL     1      -0.015   1.208   0.015  0.00  0.00    +0.234 C 
ATOM     22  O   UNL     1       0.001  -0.004   0.004  0.00  0.00    -0.274 OA
ATOM     23  N   UNL     1      -1.191   1.867   0.018  0.00  0.00    -0.283 N 
ATOM     24  H   UNL     1      -1.205   2.834   0.092  0.00  0.00    +0.155 HD
BRANCH  23  25
ATOM     25  C   UNL     1      -2.391   1.155  -0.086  0.00  0.00    +0.047 A 
ATOM     26  C   UNL     1      -2.510  -0.099   0.499  0.00  0.00    +0.024 A 
ATOM     27  C   UNL     1      -3.698  -0.796   0.399  0.00  0.00    +0.002 A 
ATOM     28  C   UNL     1      -4.765  -0.252  -0.291  0.00  0.00    +0.001 A 
ATOM     29  C   UNL     1      -4.649   0.994  -0.880  0.00  0.00    +0.017 A 
ATOM     30  C   UNL     1      -3.465   1.699  -0.779  0.00  0.00    +0.039 A 
ATOM     31 BR   UNL     1      -3.307   3.402  -1.585  0.00  0.00    -0.048 Br
ENDBRANCH  23  25
ENDBRANCH  20  21
ENDBRANCH   3  20
TORSDOF 8
