REMARK  Name = ZINC09886760
REMARK  10 active torsions:
REMARK  status: ('A' for Active; 'I' for Inactive)
REMARK    1  A    between atoms: C_1  and  C_2
REMARK    2  A    between atoms: C_2  and  C_3
REMARK    3  A    between atoms: C_2  and  C_4
REMARK    4  A    between atoms: C_4  and  C_6
REMARK    5  A    between atoms: C_4  and  N_25
REMARK    6  A    between atoms: N_8  and  N_9
REMARK    7  A    between atoms: C_10  and  C_11
REMARK    8  A    between atoms: C_13  and  N_22
REMARK    9  A    between atoms: C_16  and  N_17
REMARK   10  A    between atoms: C_26  and  C_28
REMARK                            x       y       z     vdW  Elec       q    Type
REMARK                         _______ _______ _______ _____ _____    ______ ____
ROOT
ATOM      1  C   UNL     1       4.559   5.797  -0.268  0.00  0.00    +0.253 C 
ATOM      2  O   UNL     1       3.477   6.074  -0.741  0.00  0.00    -0.272 OA
ATOM      3  N   UNL     1       5.585   6.663  -0.380  0.00  0.00    -0.205 N 
ATOM      4  H   UNL     1       6.429   6.475   0.060  0.00  0.00    +0.177 HD
ENDROOT
BRANCH   3   5
ATOM      5  N   UNL     1       5.433   7.836  -1.132  0.00  0.00    -0.188 NA
ATOM      6  C   UNL     1       6.448   8.622  -1.321  0.00  0.00    +0.140 C 
BRANCH   6   7
ATOM      7  C   UNL     1       6.265   9.908  -2.016  0.00  0.00    +0.018 A 
ATOM      8  C   UNL     1       7.330  10.805  -2.127  0.00  0.00    +0.044 A 
ATOM      9  C   UNL     1       7.152  12.007  -2.779  0.00  0.00    +0.127 A 
ATOM     10  C   UNL     1       5.921  12.330  -3.325  0.00  0.00    +0.034 A 
ATOM     11  C   UNL     1       4.859  11.453  -3.223  0.00  0.00    +0.026 A 
ATOM     12  C   UNL     1       5.021  10.237  -2.575  0.00  0.00    +0.039 A 
BRANCH  12  13
ATOM     13  N   UNL     1       3.952   9.349  -2.476  0.00  0.00    -0.329 N 
ATOM     14  C   UNL     1       2.760  10.013  -1.888  0.00  0.00    +0.105 C 
ATOM     15  C   UNL     1       1.590   9.101  -2.333  0.00  0.00    +0.020 C 
ATOM     16  C   UNL     1       2.004   8.679  -3.762  0.00  0.00    +0.020 C 
ATOM     17  C   UNL     1       3.531   8.874  -3.812  0.00  0.00    +0.105 C 
ENDBRANCH  12  13
BRANCH   9  18
ATOM     18  N   UNL     1       8.282  12.956  -2.896  0.00  0.00    +0.056 N 
ATOM     19  O   UNL     1       9.366  12.674  -2.417  0.00  0.00    -0.126 OA
ATOM     20  O   UNL     1       8.128  14.018  -3.471  0.00  0.00    -0.126 OA
ENDBRANCH   9  18
ENDBRANCH   6   7
ENDBRANCH   3   5
BRANCH   1  21
ATOM     21  C   UNL     1       4.756   4.484   0.445  0.00  0.00    +0.163 C 
BRANCH  21  22
ATOM     22  N   UNL     1       3.502   3.727   0.431  0.00  0.00    -0.300 N 
ATOM     23  C   UNL     1       3.523   2.384   0.533  0.00  0.00    +0.245 C 
ATOM     24  O   UNL     1       4.584   1.799   0.637  0.00  0.00    -0.270 OA
ATOM     25  H   UNL     1       2.655   4.194   0.348  0.00  0.00    +0.150 HD
BRANCH  23  26
ATOM     26  C   UNL     1       2.258   1.621   0.519  0.00  0.00    +0.038 A 
ATOM     27  C   UNL     1       1.038   2.289   0.401  0.00  0.00    +0.014 A 
ATOM     28  C   UNL     1      -0.140   1.573   0.389  0.00  0.00    +0.022 A 
ATOM     29  C   UNL     1      -0.116   0.192   0.495  0.00  0.00    +0.059 A 
ATOM     30  C   UNL     1       1.092  -0.478   0.612  0.00  0.00    +0.060 A 
ATOM     31  C   UNL     1       2.278   0.229   0.625  0.00  0.00    +0.034 A 
ATOM     32 CL   UNL     1       1.114  -2.209   0.743  0.00  0.00    -0.082 Cl
ATOM     33 CL   UNL     1      -1.603  -0.703   0.479  0.00  0.00    -0.082 Cl
ENDBRANCH  23  26
ENDBRANCH  21  22
BRANCH  21  35
ATOM     34  C   UNL     1       4.036   5.444   2.636  0.00  0.00    +0.009 C 
ATOM     35  C   UNL     1       5.177   4.747   1.892  0.00  0.00    +0.012 C 
ATOM     36  C   UNL     1       5.498   3.419   2.580  0.00  0.00    +0.009 C 
ENDBRANCH  21  35
ENDBRANCH   1  21
TORSDOF 8
