REMARK  Name = ZINC35361452
REMARK  11 active torsions:
REMARK  status: ('A' for Active; 'I' for Inactive)
REMARK    1  A    between atoms: C_1  and  C_2
REMARK    2  A    between atoms: C_2  and  C_4
REMARK    3  A    between atoms: C_4  and  O_40
REMARK    4  A    between atoms: C_9  and  C_39
REMARK    5  A    between atoms: N_21  and  O_22
REMARK    6  A    between atoms: O_22  and  C_23
REMARK    7  A    between atoms: C_23  and  C_24
REMARK    8  A    between atoms: N_26  and  C_27
REMARK    9  A    between atoms: C_27  and  C_28
REMARK   10  A    between atoms: C_28  and  C_29
REMARK   11  A    between atoms: C_37  and  C_38
REMARK                            x       y       z     vdW  Elec       q    Type
REMARK                         _______ _______ _______ _____ _____    ______ ____
ROOT
ATOM      1  C   UNL     1      -1.214  -0.809  -0.084  0.00  0.00    +0.129 C 
ATOM      2  C   UNL     1      -1.722  -1.101  -1.508  0.00  0.00    +0.043 C 
ATOM      3  C   UNL     1      -1.815  -2.640  -1.637  0.00  0.00    +0.008 C 
ATOM      4  C   UNL     1      -0.833  -3.146  -0.565  0.00  0.00    +0.002 C 
ATOM      5  C   UNL     1      -1.069  -2.188   0.617  0.00  0.00    +0.007 C 
ATOM      6  C   UNL     1      -2.406  -2.465   1.306  0.00  0.00    +0.010 C 
ATOM      7  C   UNL     1      -2.549  -3.941   1.676  0.00  0.00    +0.005 C 
ATOM      8  C   UNL     1      -2.472  -4.758   0.385  0.00  0.00    +0.002 C 
ATOM      9  C   UNL     1      -1.087  -4.595  -0.188  0.00  0.00    -0.003 C 
ATOM     10  C   UNL     1       0.000  -5.058   0.774  0.00  0.00    +0.008 C 
ATOM     11  C   UNL     1      -0.466  -6.186   1.684  0.00  0.00    +0.031 C 
ATOM     12  C   UNL     1      -1.586  -6.948   1.020  0.00  0.00    -0.062 C 
ATOM     13  C   UNL     1      -1.463  -8.241   0.763  0.00  0.00    +0.026 C 
ATOM     14  C   UNL     1      -2.543  -8.990   0.109  0.00  0.00    +0.080 C 
ATOM     15  N   UNL     1      -2.411 -10.259  -0.115  0.00  0.00    -0.089 NA
ATOM     16  C   UNL     1      -3.808  -8.277  -0.302  0.00  0.00    +0.059 C 
ATOM     17  C   UNL     1      -3.478  -6.807  -0.582  0.00  0.00    +0.017 C 
ATOM     18  C   UNL     1      -2.798  -6.223   0.638  0.00  0.00    -0.007 C 
ATOM     19  C   UNL     1      -3.779  -6.331   1.808  0.00  0.00    +0.016 C 
ATOM     20  C   UNL     1       0.105  -2.204   1.598  0.00  0.00    +0.015 C 
ENDROOT
BRANCH   1  22
ATOM     21  C   UNL     1       0.196   1.386  -0.030  0.00  0.00    +0.089 C 
ATOM     22  C   UNL     1       0.122  -0.115  -0.143  0.00  0.00    +0.162 C 
ATOM     23  O   UNL     1       1.133  -0.761  -0.281  0.00  0.00    -0.295 OA
ENDBRANCH   1  22
BRANCH   1  24
ATOM     24  O   UNL     1      -2.158   0.002   0.619  0.00  0.00    -0.381 OA
ATOM     25  H   UNL     1      -2.302   0.872   0.221  0.00  0.00    +0.211 HD
ENDBRANCH   1  24
BRANCH  15  26
ATOM     26  O   UNL     1      -1.224 -10.926   0.271  0.00  0.00    -0.384 OA
BRANCH  26  27
ATOM     27  C   UNL     1      -1.214 -12.321  -0.036  0.00  0.00    +0.358 C 
BRANCH  27  28
ATOM     28  C   UNL     1       0.089 -12.927   0.416  0.00  0.00    +0.253 C 
ATOM     29  O   UNL     1       0.928 -12.232   0.950  0.00  0.00    -0.272 OA
ATOM     30  N   UNL     1       0.323 -14.241   0.229  0.00  0.00    -0.312 N 
ATOM     31  H   UNL     1      -0.347 -14.797  -0.198  0.00  0.00    +0.149 HD
BRANCH  30  32
ATOM     32  C   UNL     1       1.591 -14.829   0.668  0.00  0.00    +0.110 C 
BRANCH  32  33
ATOM     33  C   UNL     1       1.601 -16.323   0.339  0.00  0.00    +0.073 C 
BRANCH  33  34
ATOM     34  C   UNL     1       2.904 -16.929   0.792  0.00  0.00    +0.035 A 
ATOM     35  C   UNL     1       4.056 -16.941   0.094  0.00  0.00    +0.105 A 
ATOM     36  N   UNL     1       4.982 -17.586   0.868  0.00  0.00    -0.352 N 
ATOM     37  H   UNL     1       5.909 -17.753   0.637  0.00  0.00    +0.166 HD
ATOM     38  C   UNL     1       4.364 -17.946   2.013  0.00  0.00    +0.171 A 
ATOM     39  N   UNL     1       3.123 -17.546   1.962  0.00  0.00    -0.350 N 
ATOM     40  H   UNL     1       2.462 -17.675   2.661  0.00  0.00    +0.166 HD
ENDBRANCH  33  34
ENDBRANCH  32  33
ENDBRANCH  30  32
ENDBRANCH  27  28
ENDBRANCH  26  27
ENDBRANCH  15  26
TORSDOF 8
