REMARK  Name = ZINC27239743
REMARK  12 active torsions:
REMARK  status: ('A' for Active; 'I' for Inactive)
REMARK    1  A    between atoms: C_1  and  C_2
REMARK    2  A    between atoms: C_2  and  C_3
REMARK    3  A    between atoms: C_6  and  C_9
REMARK    4  A    between atoms: C_9  and  C_10
REMARK    5  A    between atoms: C_9  and  C_17
REMARK    6  A    between atoms: C_9  and  O_36
REMARK    7  A    between atoms: C_10  and  C_11
REMARK    8  A    between atoms: C_17  and  C_19
REMARK    9  A    between atoms: C_17  and  O_27
REMARK   10  A    between atoms: C_19  and  N_20
REMARK   11  A    between atoms: O_27  and  C_28
REMARK   12  A    between atoms: C_33  and  C_34
REMARK                            x       y       z     vdW  Elec       q    Type
REMARK                         _______ _______ _______ _____ _____    ______ ____
ROOT
ATOM      1  C   UNL     1      -0.006   1.042   0.356  0.00  0.00    +0.193 C 
ENDROOT
BRANCH   1   2
ATOM      2  C   UNL     1       1.421   1.514   0.070  0.00  0.00    +0.130 C 
BRANCH   2   6
ATOM      3  C   UNL     1       3.754   1.237   3.637  0.00  0.00    -0.048 A 
ATOM      4  C   UNL     1       4.046   2.204   2.693  0.00  0.00    +0.004 A 
ATOM      5  C   UNL     1       3.291   2.293   1.539  0.00  0.00    +0.007 A 
ATOM      6  C   UNL     1       2.244   1.416   1.328  0.00  0.00    -0.012 A 
ATOM      7  C   UNL     1       1.948   0.453   2.274  0.00  0.00    +0.007 A 
ATOM      8  C   UNL     1       2.707   0.360   3.426  0.00  0.00    +0.004 A 
BRANCH   3  10
ATOM      9  C   UNL     1       3.955   2.022   5.981  0.00  0.00    +0.009 C 
ATOM     10  C   UNL     1       4.576   1.140   4.896  0.00  0.00    +0.032 C 
ENDBRANCH   3  10
ENDBRANCH   2   6
BRANCH   2  11
ATOM     11  O   UNL     1       1.393   2.871  -0.377  0.00  0.00    -0.380 OA
ATOM     12  H   UNL     1       0.837   3.139  -1.288  0.00  0.00    +0.211 HD
ENDBRANCH   2  11
BRANCH   2  13
ATOM     13  C   UNL     1       2.041   0.632  -1.016  0.00  0.00    +0.078 C 
BRANCH  13  14
ATOM     14  C   UNL     1       3.438   1.113  -1.316  0.00  0.00    -0.044 A 
ATOM     15  C   UNL     1       3.646   2.061  -2.300  0.00  0.00    +0.004 A 
ATOM     16  C   UNL     1       4.927   2.505  -2.571  0.00  0.00    +0.000 A 
ATOM     17  C   UNL     1       6.000   1.993  -1.866  0.00  0.00    +0.000 A 
ATOM     18  C   UNL     1       5.792   1.041  -0.886  0.00  0.00    +0.000 A 
ATOM     19  C   UNL     1       4.511   0.601  -0.611  0.00  0.00    +0.004 A 
ENDBRANCH  13  14
ENDBRANCH   2  13
ENDBRANCH   1   2
BRANCH   1  20
ATOM     20  C   UNL     1      -0.667   1.994   1.355  0.00  0.00    -0.030 C 
BRANCH  20  21
ATOM     21  N   UNL     1      -1.966   1.446   1.768  0.00  0.00    +0.382 N 
ATOM     22  C   UNL     1      -2.928   1.456   0.643  0.00  0.00    -0.079 C 
ATOM     23  C   UNL     1      -4.338   1.162   1.078  0.00  0.00    -0.019 C 
ATOM     24  C   UNL     1      -5.058   2.502   1.341  0.00  0.00    -0.002 C 
ATOM     25  C   UNL     1      -4.695   3.078   2.630  0.00  0.00    -0.002 C 
ATOM     26  C   UNL     1      -3.186   3.388   2.726  0.00  0.00    -0.019 C 
ATOM     27  C   UNL     1      -2.452   2.104   3.001  0.00  0.00    -0.079 C 
ATOM     28  H   UNL     1      -1.836   0.386   2.033  0.00  0.00    -0.082 HD
ENDBRANCH  20  21
ENDBRANCH   1  20
BRANCH   1  29
ATOM     29  O   UNL     1      -0.757   1.032  -0.860  0.00  0.00    -0.487 OA
BRANCH  29  30
ATOM     30  C   UNL     1      -0.758  -0.125  -1.575  0.00  0.00    +0.124 A 
ATOM     31  C   UNL     1      -0.113  -1.248  -1.078  0.00  0.00    +0.047 A 
ATOM     32  C   UNL     1      -0.119  -2.424  -1.804  0.00  0.00    +0.023 A 
ATOM     33  C   UNL     1      -0.759  -2.478  -3.030  0.00  0.00    +0.041 A 
ATOM     34  C   UNL     1      -1.398  -1.357  -3.529  0.00  0.00    +0.027 A 
ATOM     35  C   UNL     1      -1.399  -0.181  -2.804  0.00  0.00    -0.007 A 
ATOM     36  C   UNL     1      -2.095   1.040  -3.348  0.00  0.00    +0.047 C 
ATOM     37 CL   UNL     1      -0.759  -3.954  -3.943  0.00  0.00    -0.084 Cl
ENDBRANCH  29  30
ENDBRANCH   1  29
TORSDOF 10
