REMARK  Name = ZINC28291561
REMARK  6 active torsions:
REMARK  status: ('A' for Active; 'I' for Inactive)
REMARK    1  A    between atoms: C_1  and  C_2
REMARK    2  A    between atoms: N_5  and  C_8
REMARK    3  A    between atoms: C_8  and  C_10
REMARK    4  A    between atoms: C_8  and  C_24
REMARK    5  A    between atoms: C_10  and  N_11
REMARK    6  A    between atoms: C_12  and  C_14
REMARK                            x       y       z     vdW  Elec       q    Type
REMARK                         _______ _______ _______ _____ _____    ______ ____
ROOT
ATOM      1  C   UNL     1      -3.260  -2.476   0.526  0.00  0.00    +0.094 C 
ENDROOT
BRANCH   1   2
ATOM      2  N   UNL     1      -1.987  -1.775   0.711  0.00  0.00    -0.316 N 
ATOM      3  C   UNL     1      -1.976  -0.505   1.161  0.00  0.00    +0.219 C 
ATOM      4  O   UNL     1      -3.020   0.058   1.414  0.00  0.00    -0.275 OA
ATOM      5  H   UNL     1      -1.040  -2.286   0.481  0.00  0.00    +0.149 HD
BRANCH   3   6
ATOM      6  C   UNL     1      -0.666   0.216   1.351  0.00  0.00    +0.048 C 
ATOM      7  C   UNL     1      -0.932   1.631   1.868  0.00  0.00    +0.019 C 
ATOM      8  C   UNL     1       0.398   2.362   2.060  0.00  0.00    -0.009 C 
ATOM      9  C   UNL     1       1.136   2.438   0.723  0.00  0.00    +0.007 C 
ATOM     10  C   UNL     1       1.403   1.023   0.206  0.00  0.00    -0.009 C 
ATOM     11  C   UNL     1       0.073   0.291   0.014  0.00  0.00    +0.019 C 
ATOM     12  C   UNL     1       2.261   0.263   1.220  0.00  0.00    +0.007 C 
ATOM     13  C   UNL     1       1.522   0.187   2.558  0.00  0.00    -0.009 C 
ATOM     14  C   UNL     1       1.255   1.603   3.074  0.00  0.00    +0.007 C 
ATOM     15  C   UNL     1       0.192  -0.544   2.365  0.00  0.00    +0.019 C 
ENDBRANCH   3   6
ENDBRANCH   1   2
BRANCH   1  16
ATOM     16  C   UNL     1      -2.994  -3.891   0.010  0.00  0.00    -0.013 C 
BRANCH  16  21
ATOM     17  C   UNL     1      -0.170  -7.101   3.804  0.00  0.00    +0.007 C 
ATOM     18  C   UNL     1      -1.268  -6.506   2.919  0.00  0.00    -0.018 C 
ATOM     19  C   UNL     1      -0.873  -6.651   1.447  0.00  0.00    -0.015 C 
ATOM     20  C   UNL     1      -1.945  -6.000   0.570  0.00  0.00    -0.078 C 
ATOM     21  N   UNL     1      -2.073  -4.580   0.924  0.00  0.00    +0.386 N 
ATOM     22  C   UNL     1      -2.497  -4.417   2.320  0.00  0.00    -0.078 C 
ATOM     23  C   UNL     1      -1.442  -5.021   3.249  0.00  0.00    -0.015 C 
ATOM     24  H   UNL     1      -1.081  -4.118   0.819  0.00  0.00    -0.081 HD
ENDBRANCH  16  21
BRANCH  16  25
ATOM     25  C   UNL     1      -4.292  -4.652  -0.064  0.00  0.00    -0.022 A 
ATOM     26  C   UNL     1      -5.002  -5.026  -1.156  0.00  0.00    +0.009 A 
ATOM     27  C   UNL     1      -6.181  -5.727  -0.982  0.00  0.00    +0.008 A 
ATOM     28  C   UNL     1      -6.592  -6.020   0.276  0.00  0.00    +0.045 A 
ATOM     29  S   UNL     1      -5.291  -5.301   1.266  0.00  0.00    -0.103 S 
ENDBRANCH  16  25
ENDBRANCH   1  16
TORSDOF 5
