REMARK  Name = ZINC63780721
REMARK  11 active torsions:
REMARK  status: ('A' for Active; 'I' for Inactive)
REMARK    1  A    between atoms: C_1  and  O_2
REMARK    2  A    between atoms: O_2  and  C_3
REMARK    3  A    between atoms: C_6  and  C_9
REMARK    4  A    between atoms: C_9  and  C_11
REMARK    5  A    between atoms: C_9  and  N_25
REMARK    6  A    between atoms: C_11  and  C_13
REMARK    7  A    between atoms: C_11  and  O_24
REMARK    8  A    between atoms: C_13  and  C_15
REMARK    9  A    between atoms: N_28  and  C_31
REMARK   10  A    between atoms: C_34  and  O_37
REMARK   11  A    between atoms: O_37  and  C_38
REMARK                            x       y       z     vdW  Elec       q    Type
REMARK                         _______ _______ _______ _____ _____    ______ ____
ROOT
ATOM      1  C   UNL     1       2.443  -2.288  -4.237  0.00  0.00    +0.123 C 
ENDROOT
BRANCH   1   5
ATOM      2  C   UNL     1       1.331  -0.260  -0.643  0.00  0.00    +0.120 A 
ATOM      3  C   UNL     1       1.566   0.462  -1.804  0.00  0.00    +0.046 A 
ATOM      4  C   UNL     1       1.926  -0.196  -2.965  0.00  0.00    +0.009 A 
ATOM      5  C   UNL     1       2.051  -1.573  -2.970  0.00  0.00    -0.027 A 
ATOM      6  C   UNL     1       1.817  -2.295  -1.814  0.00  0.00    +0.009 A 
ATOM      7  C   UNL     1       1.463  -1.641  -0.650  0.00  0.00    +0.046 A 
BRANCH   2   9
ATOM      8  C   UNL     1       0.860   1.807   0.432  0.00  0.00    +0.277 C 
ATOM      9  O   UNL     1       0.977   0.384   0.499  0.00  0.00    -0.495 OA
ENDBRANCH   2   9
ENDBRANCH   1   5
BRANCH   1  10
ATOM     10  N   UNL     1       1.522  -3.407  -4.473  0.00  0.00    -0.290 NA
ATOM     11  C   UNL     1       1.544  -3.818  -5.883  0.00  0.00    +0.104 C 
ATOM     12  C   UNL     1       0.713  -5.095  -6.052  0.00  0.00    +0.120 C 
ATOM     13  N   UNL     1      -0.627  -4.858  -5.494  0.00  0.00    -0.327 N 
ATOM     14  C   UNL     1      -0.727  -4.314  -4.131  0.00  0.00    +0.120 C 
ATOM     15  C   UNL     1       0.160  -3.068  -4.038  0.00  0.00    +0.104 C 
BRANCH  13  16
ATOM     16  C   UNL     1      -1.776  -5.142  -6.240  0.00  0.00    +0.030 A 
ATOM     17  C   UNL     1      -1.666  -5.770  -7.474  0.00  0.00    +0.027 A 
ATOM     18  C   UNL     1      -2.801  -6.051  -8.209  0.00  0.00    +0.047 A 
ATOM     19  C   UNL     1      -4.051  -5.705  -7.716  0.00  0.00    +0.120 A 
ATOM     20  C   UNL     1      -4.161  -5.077  -6.484  0.00  0.00    +0.047 A 
ATOM     21  C   UNL     1      -3.028  -4.801  -5.745  0.00  0.00    +0.027 A 
BRANCH  19  22
ATOM     22  O   UNL     1      -5.168  -5.981  -8.441  0.00  0.00    -0.495 OA
ATOM     23  C   UNL     1      -6.421  -5.597  -7.873  0.00  0.00    +0.277 C 
ENDBRANCH  19  22
ENDBRANCH  13  16
ENDBRANCH   1  10
BRANCH   1  24
ATOM     24  C   UNL     1       3.870  -2.822  -4.100  0.00  0.00    +0.206 C 
BRANCH  24  25
ATOM     25  C   UNL     1       4.300  -3.446  -5.403  0.00  0.00    +0.192 C 
ATOM     26  O   UNL     1       4.383  -4.654  -5.500  0.00  0.00    -0.289 OA
BRANCH  25  27
ATOM     27  C   UNL     1       4.607  -2.627  -6.510  0.00  0.00    +0.026 C 
ATOM     28  C   UNL     1       5.008  -3.037  -7.769  0.00  0.00    +0.006 A 
ATOM     29  C   UNL     1       5.233  -4.312  -8.339  0.00  0.00    +0.010 A 
ATOM     30  C   UNL     1       5.631  -4.422  -9.626  0.00  0.00    +0.001 A 
ATOM     31  C   UNL     1       5.839  -3.304 -10.449  0.00  0.00    +0.002 A 
ATOM     32  C   UNL     1       5.653  -2.043 -10.002  0.00  0.00    +0.026 A 
ATOM     33  C   UNL     1       5.218  -1.834  -8.611  0.00  0.00    +0.043 A 
ATOM     34  N   UNL     1       4.968  -0.751  -7.932  0.00  0.00    -0.380 N 
ATOM     35  C   UNL     1       4.560  -1.116  -6.571  0.00  0.00    +0.152 C 
ATOM     36  H   UNL     1       5.037   0.154  -8.273  0.00  0.00    +0.160 HD
ENDBRANCH  25  27
ENDBRANCH  24  25
BRANCH  24  37
ATOM     37  O   UNL     1       3.913  -3.806  -3.064  0.00  0.00    -0.382 OA
ATOM     38  H   UNL     1       3.337  -4.567  -3.220  0.00  0.00    +0.210 HD
ENDBRANCH  24  37
ENDBRANCH   1  24
TORSDOF 9
