REMARK  Name = ZINC13568118
REMARK  11 active torsions:
REMARK  status: ('A' for Active; 'I' for Inactive)
REMARK    1  A    between atoms: C_1  and  C_2
REMARK    2  A    between atoms: C_2  and  N_3
REMARK    3  A    between atoms: C_4  and  C_24
REMARK    4  A    between atoms: C_7  and  S_8
REMARK    5  A    between atoms: S_8  and  C_9
REMARK    6  A    between atoms: C_9  and  C_11
REMARK    7  A    between atoms: C_9  and  C_12
REMARK    8  A    between atoms: N_14  and  C_15
REMARK    9  A    between atoms: C_24  and  C_26
REMARK   10  A    between atoms: C_24  and  N_27
REMARK   11  A    between atoms: C_28  and  C_30
REMARK                            x       y       z     vdW  Elec       q    Type
REMARK                         _______ _______ _______ _____ _____    ______ ____
ROOT
ATOM      1  N   UNL     1       7.873  -0.048  -2.008  0.00  0.00    -0.305 N 
ATOM      2  C   UNL     1       6.991   0.263  -1.010  0.00  0.00    +0.154 A 
ATOM      3  N   UNL     1       7.277   1.466  -0.600  0.00  0.00    -0.132 NA
ATOM      4  N   UNL     1       8.278   1.930  -1.258  0.00  0.00    -0.122 NA
ATOM      5  C   UNL     1       8.682   1.044  -2.139  0.00  0.00    +0.192 A 
ENDROOT
BRANCH   1   7
ATOM      6  C   UNL     1       7.052  -1.172  -4.019  0.00  0.00    +0.027 C 
ATOM      7  C   UNL     1       7.937  -1.293  -2.777  0.00  0.00    +0.122 C 
ENDBRANCH   1   7
BRANCH   2   8
ATOM      8  C   UNL     1       5.888  -0.621  -0.487  0.00  0.00    +0.138 C 
ATOM      9  C   UNL     1       6.293  -1.190   0.875  0.00  0.00    +0.036 C 
BRANCH   8  10
ATOM     10  N   UNL     1       4.660   0.165  -0.342  0.00  0.00    -0.302 N 
ATOM     11  C   UNL     1       3.459  -0.446  -0.386  0.00  0.00    +0.245 C 
ATOM     12  O   UNL     1       3.396  -1.650  -0.544  0.00  0.00    -0.270 OA
ATOM     13  H   UNL     1       4.711   1.125  -0.215  0.00  0.00    +0.150 HD
BRANCH  11  14
ATOM     14  C   UNL     1       2.220   0.347  -0.239  0.00  0.00    +0.037 A 
ATOM     15  C   UNL     1       0.976  -0.283  -0.284  0.00  0.00    +0.013 A 
ATOM     16  C   UNL     1      -0.177   0.463  -0.146  0.00  0.00    +0.001 A 
ATOM     17  C   UNL     1      -0.101   1.832   0.035  0.00  0.00    +0.000 A 
ATOM     18  C   UNL     1       1.130   2.463   0.080  0.00  0.00    +0.001 A 
ATOM     19  C   UNL     1       2.290   1.729  -0.056  0.00  0.00    +0.013 A 
ENDBRANCH  11  14
ENDBRANCH   8  10
ENDBRANCH   2   8
BRANCH   5  20
ATOM     20  S   UNL     1      10.017   1.229  -3.275  0.00  0.00    -0.074 S 
BRANCH  20  21
ATOM     21  C   UNL     1      10.570   2.897  -2.840  0.00  0.00    +0.137 C 
ATOM     22  C   UNL     1       9.468   3.904  -3.177  0.00  0.00    +0.029 C 
BRANCH  21  23
ATOM     23  C   UNL     1      11.814   3.233  -3.622  0.00  0.00    +0.230 C 
ATOM     24  O   UNL     1      12.033   2.681  -4.680  0.00  0.00    -0.274 OA
ATOM     25  N   UNL     1      12.682   4.147  -3.147  0.00  0.00    -0.284 N 
ATOM     26  H   UNL     1      12.471   4.644  -2.341  0.00  0.00    +0.155 HD
BRANCH  25  27
ATOM     27  C   UNL     1      13.891   4.380  -3.816  0.00  0.00    +0.037 A 
ATOM     28  C   UNL     1      14.536   3.337  -4.467  0.00  0.00    +0.027 A 
ATOM     29  C   UNL     1      15.726   3.566  -5.131  0.00  0.00    +0.051 A 
ATOM     30  C   UNL     1      16.284   4.834  -5.141  0.00  0.00    +0.166 A 
ATOM     31  C   UNL     1      15.641   5.881  -4.485  0.00  0.00    +0.168 A 
ATOM     32  C   UNL     1      14.446   5.652  -3.824  0.00  0.00    +0.072 A 
ATOM     33  O   UNL     1      16.384   7.016  -4.642  0.00  0.00    -0.453 OA
ATOM     34  C   UNL     1      17.690   6.567  -5.051  0.00  0.00    +0.466 C 
ATOM     35  O   UNL     1      17.429   5.313  -5.710  0.00  0.00    -0.453 OA
ENDBRANCH  25  27
ENDBRANCH  21  23
ENDBRANCH  20  21
ENDBRANCH   5  20
TORSDOF 8
