REMARK  Name = ZINC60243370
REMARK  5 active torsions:
REMARK  status: ('A' for Active; 'I' for Inactive)
REMARK    1  A    between atoms: C_1  and  C_2
REMARK    2  A    between atoms: C_2  and  C_4
REMARK    3  A    between atoms: C_2  and  N_16
REMARK    4  A    between atoms: C_6  and  C_9
REMARK    5  A    between atoms: C_17  and  C_19
REMARK                            x       y       z     vdW  Elec       q    Type
REMARK                         _______ _______ _______ _____ _____    ______ ____
ROOT
ATOM      1  C   UNL     1      -0.019   1.526   0.010  0.00  0.00    +0.038 C 
ATOM      2  C   UNL     1       0.002  -0.004   0.002  0.00  0.00    +0.159 C 
ENDROOT
BRANCH   2   3
ATOM      3  C   UNL     1       0.707  -0.490  -1.238  0.00  0.00    +0.248 A 
ATOM      4  N   UNL     1       1.909  -0.990  -1.283  0.00  0.00    -0.190 NA
ATOM      5  C   UNL     1       2.224  -1.320  -2.549  0.00  0.00    +0.202 A 
ATOM      6  N   UNL     1       1.208  -1.026  -3.322  0.00  0.00    -0.056 NA
ATOM      7  O   UNL     1       0.202  -0.486  -2.478  0.00  0.00    -0.336 OA
BRANCH   5   8
ATOM      8  C   UNL     1       3.507  -1.917  -2.995  0.00  0.00    +0.023 A 
ATOM      9  C   UNL     1       4.511  -2.187  -2.067  0.00  0.00    +0.014 A 
ATOM     10  C   UNL     1       5.703  -2.743  -2.486  0.00  0.00    +0.039 A 
ATOM     11  C   UNL     1       5.902  -3.031  -3.826  0.00  0.00    +0.123 A 
ATOM     12  C   UNL     1       4.906  -2.763  -4.752  0.00  0.00    +0.039 A 
ATOM     13  C   UNL     1       3.709  -2.213  -4.341  0.00  0.00    +0.014 A 
ATOM     14  F   UNL     1       7.070  -3.575  -4.232  0.00  0.00    -0.205 F 
ENDBRANCH   5   8
ENDBRANCH   2   3
BRANCH   2  15
ATOM     15  N   UNL     1      -1.372  -0.511   0.012  0.00  0.00    -0.300 N 
ATOM     16  C   UNL     1      -2.029  -0.655   1.181  0.00  0.00    +0.245 C 
ATOM     17  O   UNL     1      -1.480  -0.364   2.226  0.00  0.00    -0.270 OA
ATOM     18  H   UNL     1      -1.810  -0.743  -0.822  0.00  0.00    +0.150 HD
BRANCH  16  19
ATOM     19  C   UNL     1      -3.416  -1.167   1.191  0.00  0.00    +0.038 A 
ATOM     20  C   UNL     1      -4.046  -1.507  -0.007  0.00  0.00    +0.013 A 
ATOM     21  C   UNL     1      -5.341  -1.984   0.010  0.00  0.00    +0.002 A 
ATOM     22  C   UNL     1      -6.014  -2.125   1.210  0.00  0.00    +0.014 A 
ATOM     23  C   UNL     1      -5.395  -1.790   2.401  0.00  0.00    +0.014 A 
ATOM     24  C   UNL     1      -4.098  -1.317   2.399  0.00  0.00    +0.027 A 
ATOM     25  I   UNL     1      -6.425  -2.008   4.213  0.00  0.00    -0.044 I 
ENDBRANCH  16  19
ENDBRANCH   2  15
TORSDOF 4
