REMARK  Name = ZINC35778354
REMARK  16 active torsions:
REMARK  status: ('A' for Active; 'I' for Inactive)
REMARK    1  A    between atoms: C_1  and  C_2
REMARK    2  A    between atoms: C_7  and  O_8
REMARK    3  A    between atoms: O_8  and  C_9
REMARK    4  A    between atoms: C_9  and  C_10
REMARK    5  A    between atoms: C_10  and  C_12
REMARK    6  A    between atoms: C_10  and  O_38
REMARK    7  A    between atoms: C_12  and  N_13
REMARK    8  A    between atoms: N_13  and  C_14
REMARK    9  A    between atoms: N_13  and  C_35
REMARK   10  A    between atoms: C_14  and  C_15
REMARK   11  A    between atoms: C_16  and  C_29
REMARK   12  A    between atoms: N_18  and  C_28
REMARK   13  A    between atoms: C_19  and  O_20
REMARK   14  A    between atoms: O_20  and  C_21
REMARK   15  A    between atoms: C_35  and  C_36
REMARK   16  A    between atoms: C_35  and  C_37
REMARK                            x       y       z     vdW  Elec       q    Type
REMARK                         _______ _______ _______ _____ _____    ______ ____
ROOT
ATOM      1  C   UNL     1      -0.934   1.186   8.211  0.00  0.00    +0.025 A 
ATOM      2  C   UNL     1      -1.059   1.563   9.562  0.00  0.00    +0.098 A 
ATOM      3  N   UNL     1      -1.996   2.482   9.645  0.00  0.00    -0.168 NA
ATOM      4  N   UNL     1      -2.495   2.719   8.358  0.00  0.00    -0.235 N 
ATOM      5  C   UNL     1      -1.824   1.916   7.492  0.00  0.00    +0.221 A 
ATOM      6  C   UNL     1      -3.552   3.671   8.006  0.00  0.00    +0.176 C 
ENDROOT
BRANCH   2   7
ATOM      7  C   UNL     1      -0.270   1.018  10.695  0.00  0.00    +0.002 A 
ATOM      8  C   UNL     1       0.031  -0.342  10.748  0.00  0.00    +0.010 A 
ATOM      9  C   UNL     1       0.765  -0.843  11.803  0.00  0.00    +0.001 A 
ATOM     10  C   UNL     1       1.201   0.001  12.809  0.00  0.00    +0.000 A 
ATOM     11  C   UNL     1       0.905   1.351  12.762  0.00  0.00    +0.001 A 
ATOM     12  C   UNL     1       0.177   1.864  11.707  0.00  0.00    +0.010 A 
ENDBRANCH   2   7
BRANCH   1  13
ATOM     13  C   UNL     1       0.023   0.159   7.661  0.00  0.00    -0.035 C 
BRANCH  13  14
ATOM     14  N   UNL     1       0.980   0.815   6.761  0.00  0.00    +0.386 N 
ATOM     15  H   UNL     1       0.480   1.375   6.088  0.00  0.00    -0.081 HD
BRANCH  14  16
ATOM     16  C   UNL     1       1.878   1.675   7.543  0.00  0.00    -0.074 C 
ATOM     17  C   UNL     1       1.084   2.850   8.119  0.00  0.00    -0.014 C 
ATOM     18  C   UNL     1       2.491   0.866   8.687  0.00  0.00    -0.014 C 
ENDBRANCH  14  16
BRANCH  14  19
ATOM     19  C   UNL     1       1.770  -0.205   6.058  0.00  0.00    -0.043 C 
BRANCH  19  20
ATOM     20  C   UNL     1       2.667   0.470   5.019  0.00  0.00    +0.135 C 
BRANCH  20  21
ATOM     21  O   UNL     1       1.854   1.125   4.043  0.00  0.00    -0.390 OA
ATOM     22  H   UNL     1       1.259   0.532   3.564  0.00  0.00    +0.210 HD
ENDBRANCH  20  21
BRANCH  20  23
ATOM     23  C   UNL     1       3.537  -0.585   4.333  0.00  0.00    +0.258 C 
BRANCH  23  24
ATOM     24  O   UNL     1       4.455   0.058   3.447  0.00  0.00    -0.489 OA
BRANCH  24  31
ATOM     25  C   UNL     1       6.279   1.308   1.689  0.00  0.00    +0.047 C 
ATOM     26  C   UNL     1       6.225  -0.186   1.876  0.00  0.00    -0.009 A 
ATOM     27  C   UNL     1       7.094  -1.002   1.178  0.00  0.00    +0.007 A 
ATOM     28  C   UNL     1       7.045  -2.373   1.349  0.00  0.00    +0.000 A 
ATOM     29  C   UNL     1       6.127  -2.931   2.219  0.00  0.00    +0.004 A 
ATOM     30  C   UNL     1       5.256  -2.120   2.920  0.00  0.00    +0.046 A 
ATOM     31  C   UNL     1       5.307  -0.743   2.754  0.00  0.00    +0.124 A 
ENDBRANCH  24  31
ENDBRANCH  23  24
ENDBRANCH  20  23
ENDBRANCH  19  20
ENDBRANCH  14  19
ENDBRANCH  13  14
ENDBRANCH   1  13
BRANCH   5  32
ATOM     32  O   UNL     1      -2.012   1.852   6.150  0.00  0.00    -0.438 OA
BRANCH  32  33
ATOM     33  C   UNL     1      -2.961   1.001   5.678  0.00  0.00    +0.131 A 
ATOM     34  C   UNL     1      -3.778   0.313   6.563  0.00  0.00    +0.049 A 
ATOM     35  C   UNL     1      -4.742  -0.552   6.081  0.00  0.00    +0.042 A 
ATOM     36  C   UNL     1      -4.892  -0.732   4.717  0.00  0.00    +0.124 A 
ATOM     37  C   UNL     1      -4.077  -0.046   3.833  0.00  0.00    +0.042 A 
ATOM     38  C   UNL     1      -3.117   0.824   4.311  0.00  0.00    +0.049 A 
ATOM     39  F   UNL     1      -5.835  -1.579   4.248  0.00  0.00    -0.205 F 
ENDBRANCH  32  33
ENDBRANCH   5  32
TORSDOF 12
