REMARK  Name = ZINC16545281
REMARK  3 active torsions:
REMARK  status: ('A' for Active; 'I' for Inactive)
REMARK    1  A    between atoms: C_8  and  S_10
REMARK    2  A    between atoms: S_10  and  C_11
REMARK    3  A    between atoms: N_21  and  O_22
REMARK                            x       y       z     vdW  Elec       q    Type
REMARK                         _______ _______ _______ _____ _____    ______ ____
ROOT
ATOM      1  S   UNL     1       3.782  -3.598  -0.055  0.00  0.00    -0.057 S 
ENDROOT
BRANCH   1   9
ATOM      2  C   UNL     1      -0.017   1.373   0.010  0.00  0.00    +0.002 A 
ATOM      3  C   UNL     1       1.170   2.091   0.002  0.00  0.00    +0.004 A 
ATOM      4  C   UNL     1       2.384   1.435  -0.013  0.00  0.00    +0.048 A 
ATOM      5  C   UNL     1       2.421   0.051  -0.021  0.00  0.00    +0.156 A 
ATOM      6  C   UNL     1       1.223  -0.680  -0.013  0.00  0.00    +0.110 A 
ATOM      7  C   UNL     1       0.002  -0.004   0.002  0.00  0.00    +0.031 A 
ATOM      8  N   UNL     1       1.569  -1.996  -0.024  0.00  0.00    -0.203 NA
ATOM      9  C   UNL     1       2.875  -2.087  -0.038  0.00  0.00    +0.259 A 
ATOM     10  O   UNL     1       3.423  -0.859  -0.036  0.00  0.00    -0.431 OA
ENDBRANCH   1   9
BRANCH   1  11
ATOM     11  C   UNL     1       5.517  -3.068  -0.070  0.00  0.00    +0.107 C 
ATOM     12  C   UNL     1       6.463  -4.306   0.003  0.00  0.00    +0.009 C 
ATOM     13  C   UNL     1       7.878  -3.696   0.246  0.00  0.00    +0.005 C 
ATOM     14  C   UNL     1       8.223  -2.981  -1.081  0.00  0.00    +0.010 C 
ATOM     15  C   UNL     1       6.988  -3.236  -1.998  0.00  0.00    +0.038 C 
ATOM     16  C   UNL     1       6.545  -4.683  -1.520  0.00  0.00    +0.014 C 
ATOM     17  C   UNL     1       5.853  -2.393  -1.392  0.00  0.00    +0.074 C 
ATOM     18  N   UNL     1       5.322  -1.336  -1.880  0.00  0.00    -0.095 NA
BRANCH  18  19
ATOM     19  O   UNL     1       5.757  -0.840  -3.133  0.00  0.00    -0.409 OA
ATOM     20  H   UNL     1       5.298  -0.038  -3.419  0.00  0.00    +0.328 HD
ENDBRANCH  18  19
ENDBRANCH   1  11
TORSDOF 3
