REMARK  Name = ZINC39966183
REMARK  9 active torsions:
REMARK  status: ('A' for Active; 'I' for Inactive)
REMARK    1  A    between atoms: C_1  and  N_2
REMARK    2  A    between atoms: C_3  and  C_24
REMARK    3  A    between atoms: C_6  and  S_7
REMARK    4  A    between atoms: S_7  and  C_8
REMARK    5  A    between atoms: C_8  and  C_9
REMARK    6  A    between atoms: N_11  and  C_12
REMARK    7  A    between atoms: C_13  and  C_20
REMARK    8  A    between atoms: C_20  and  O_22
REMARK    9  A    between atoms: O_22  and  C_23
REMARK                            x       y       z     vdW  Elec       q    Type
REMARK                         _______ _______ _______ _____ _____    ______ ____
ROOT
ATOM      1  S   UNL     1       0.337  -0.345   2.761  0.00  0.00    -0.077 S 
ENDROOT
BRANCH   1   7
ATOM      2  C   UNL     1       0.080   1.460   0.001  0.00  0.00    +0.153 C 
ATOM      3  N   UNL     1       0.045  -0.004  -0.002  0.00  0.00    -0.305 N 
ATOM      4  C   UNL     1      -0.087  -0.831  -1.094  0.00  0.00    +0.165 A 
ATOM      5  N   UNL     1      -0.069  -2.065  -0.646  0.00  0.00    -0.128 NA
ATOM      6  N   UNL     1       0.063  -2.067   0.632  0.00  0.00    -0.122 NA
ATOM      7  C   UNL     1       0.143  -0.836   1.079  0.00  0.00    +0.192 A 
BRANCH   4   8
ATOM      8  C   UNL     1      -0.224  -0.409  -2.504  0.00  0.00    +0.030 A 
ATOM      9  C   UNL     1       0.625   0.522  -3.026  0.00  0.00    +0.057 A 
ATOM     10  S   UNL     1       0.036   0.654  -4.707  0.00  0.00    -0.101 S 
ATOM     11  C   UNL     1      -1.280  -0.532  -4.599  0.00  0.00    -0.006 A 
ATOM     12  C   UNL     1      -1.228  -0.971  -3.317  0.00  0.00    -0.026 A 
ATOM     13  C   UNL     1      -2.213  -2.004  -2.775  0.00  0.00    +0.036 C 
ATOM     14  C   UNL     1      -2.725  -2.881  -3.911  0.00  0.00    +0.005 C 
ATOM     15  C   UNL     1      -3.978  -2.274  -4.539  0.00  0.00    +0.001 C 
ATOM     16  C   UNL     1      -3.651  -0.918  -5.157  0.00  0.00    +0.005 C 
ATOM     17  C   UNL     1      -2.217  -0.956  -5.683  0.00  0.00    +0.043 C 
ENDBRANCH   4   8
ENDBRANCH   1   7
BRANCH   1  18
ATOM     18  C   UNL     1       0.400  -1.913   3.671  0.00  0.00    +0.173 C 
BRANCH  18  19
ATOM     19  C   UNL     1       0.566  -1.633   5.142  0.00  0.00    +0.228 C 
ATOM     20  O   UNL     1       0.636  -0.489   5.538  0.00  0.00    -0.275 OA
ATOM     21  N   UNL     1       0.637  -2.655   6.019  0.00  0.00    -0.279 N 
ATOM     22  H   UNL     1       0.582  -3.570   5.702  0.00  0.00    +0.155 HD
BRANCH  21  23
ATOM     23  C   UNL     1       0.791  -2.397   7.372  0.00  0.00    +0.086 A 
ATOM     24  C   UNL     1       0.887  -3.311   8.406  0.00  0.00    +0.091 A 
ATOM     25  C   UNL     1       1.045  -2.777   9.759  0.00  0.00    -0.021 A 
ATOM     26  C   UNL     1       1.075  -1.434   9.818  0.00  0.00    -0.004 A 
ATOM     27  S   UNL     1       0.909  -0.907   8.132  0.00  0.00    -0.077 S 
ATOM     28  C   UNL     1       1.235  -0.939  11.230  0.00  0.00    +0.043 C 
ATOM     29  C   UNL     1       0.873  -2.153  12.113  0.00  0.00    +0.010 C 
ATOM     30  C   UNL     1       1.194  -3.333  11.173  0.00  0.00    +0.037 C 
BRANCH  24  31
ATOM     31  C   UNL     1       0.833  -4.753   8.157  0.00  0.00    +0.342 C 
ATOM     32  O   UNL     1       1.857  -5.372   7.939  0.00  0.00    -0.245 OA
BRANCH  31  33
ATOM     33  O   UNL     1      -0.353  -5.396   8.169  0.00  0.00    -0.464 OA
ATOM     34  C   UNL     1      -0.332  -6.802   7.919  0.00  0.00    +0.280 C 
ENDBRANCH  31  33
ENDBRANCH  24  31
ENDBRANCH  21  23
ENDBRANCH  18  19
ENDBRANCH   1  18
TORSDOF 7
