REMARK  Name = ZINC05200562
REMARK  2 active torsions:
REMARK  status: ('A' for Active; 'I' for Inactive)
REMARK    1  A    between atoms: C_13  and  N_17
REMARK    2  A    between atoms: C_18  and  C_20
REMARK                            x       y       z     vdW  Elec       q    Type
REMARK                         _______ _______ _______ _____ _____    ______ ____
ROOT
ATOM      1  C   UNL     1      -0.175  -8.957   2.067  0.00  0.00    +0.001 A 
ATOM      2  C   UNL     1       0.934  -8.137   1.958  0.00  0.00    +0.001 A 
ATOM      3  C   UNL     1       0.795  -6.820   1.557  0.00  0.00    +0.012 A 
ATOM      4  C   UNL     1      -0.467  -6.315   1.260  0.00  0.00    +0.033 A 
ATOM      5  C   UNL     1      -1.594  -7.147   1.370  0.00  0.00    +0.033 A 
ATOM      6  C   UNL     1      -1.437  -8.470   1.775  0.00  0.00    +0.012 A 
ATOM      7  C   UNL     1      -2.938  -6.619   1.057  0.00  0.00    +0.195 C 
ATOM      8  O   UNL     1      -3.913  -7.338   1.151  0.00  0.00    -0.287 OA
ATOM      9  C   UNL     1      -3.094  -5.214   0.628  0.00  0.00    +0.035 A 
ATOM     10  C   UNL     1      -4.355  -4.707   0.330  0.00  0.00    +0.014 A 
ATOM     11  C   UNL     1      -4.498  -3.389  -0.072  0.00  0.00    +0.022 A 
ATOM     12  C   UNL     1      -3.396  -2.565  -0.182  0.00  0.00    +0.063 A 
ATOM     13  C   UNL     1      -2.121  -3.052   0.112  0.00  0.00    +0.064 A 
ATOM     14  C   UNL     1      -1.963  -4.383   0.513  0.00  0.00    +0.056 A 
ATOM     15  C   UNL     1      -0.624  -4.909   0.831  0.00  0.00    +0.196 C 
ATOM     16  O   UNL     1       0.351  -4.189   0.736  0.00  0.00    -0.287 OA
ATOM     17 CL   UNL     1      -3.597  -0.917  -0.688  0.00  0.00    -0.082 Cl
ENDROOT
BRANCH  13  18
ATOM     18  N   UNL     1      -1.013  -2.220   0.000  0.00  0.00    -0.277 N 
ATOM     19  C   UNL     1      -0.677  -1.406   1.020  0.00  0.00    +0.284 C 
ATOM     20  O   UNL     1      -1.393  -1.331   2.001  0.00  0.00    -0.266 OA
ATOM     21  H   UNL     1      -0.482  -2.225  -0.812  0.00  0.00    +0.155 HD
BRANCH  19  22
ATOM     22  C   UNL     1       0.552  -0.609   0.947  0.00  0.00    +0.189 A 
ATOM     23  C   UNL     1       1.008   0.251   1.905  0.00  0.00    +0.054 A 
ATOM     24  C   UNL     1       2.209   0.793   1.421  0.00  0.00    +0.042 A 
ATOM     25  C   UNL     1       2.431   0.246   0.205  0.00  0.00    +0.196 A 
ATOM     26  O   UNL     1       1.430  -0.598  -0.077  0.00  0.00    -0.458 OA
ENDBRANCH  19  22
ENDBRANCH  13  18
TORSDOF 2
