REMARK  Name = ZINC09343659
REMARK  7 active torsions:
REMARK  status: ('A' for Active; 'I' for Inactive)
REMARK    1  A    between atoms: C_3  and  S_10
REMARK    2  A    between atoms: C_6  and  N_7
REMARK    3  A    between atoms: S_10  and  N_13
REMARK    4  A    between atoms: N_13  and  C_14
REMARK    5  A    between atoms: C_14  and  C_15
REMARK    6  A    between atoms: C_15  and  C_16
REMARK    7  A    between atoms: N_18  and  C_19
REMARK                            x       y       z     vdW  Elec       q    Type
REMARK                         _______ _______ _______ _____ _____    ______ ____
ROOT
ATOM      1  N   UNL     1       1.223  -2.923  -1.606  0.00  0.00    -0.189 NA
ATOM      2  H   UNL     1       0.465  -3.414  -1.959  0.00  0.00    +0.148 HD
ENDROOT
BRANCH   1   3
ATOM      3  S   UNL     1       1.232  -2.441  -0.022  0.00  0.00    +0.058 S 
ATOM      4  O   UNL     1       2.489  -2.832   0.515  0.00  0.00    -0.153 OA
ATOM      5  O   UNL     1      -0.002  -2.866   0.539  0.00  0.00    -0.153 OA
BRANCH   3   8
ATOM      6  C   UNL     1      -0.017   1.378   0.010  0.00  0.00    +0.034 A 
ATOM      7  C   UNL     1       0.002  -0.004   0.002  0.00  0.00    +0.031 A 
ATOM      8  C   UNL     1       1.208  -0.679  -0.013  0.00  0.00    +0.105 A 
ATOM      9  C   UNL     1       2.396   0.029  -0.021  0.00  0.00    +0.031 A 
ATOM     10  C   UNL     1       2.377   1.411  -0.015  0.00  0.00    +0.034 A 
ATOM     11  C   UNL     1       1.171   2.086   0.002  0.00  0.00    +0.126 A 
BRANCH  11  12
ATOM     12  N   UNL     1       1.151   3.566   0.010  0.00  0.00    +0.056 N 
ATOM     13  O   UNL     1       0.088   4.160   0.023  0.00  0.00    -0.126 OA
ATOM     14  O   UNL     1       2.197   4.189   0.003  0.00  0.00    -0.126 OA
ENDBRANCH  11  12
ENDBRANCH   3   8
ENDBRANCH   1   3
BRANCH   1  15
ATOM     15  C   UNL     1       2.360  -2.607  -2.474  0.00  0.00    +0.115 C 
BRANCH  15  16
ATOM     16  C   UNL     1       2.286  -3.461  -3.742  0.00  0.00    +0.112 C 
BRANCH  16  17
ATOM     17  C   UNL     1       3.456  -3.136  -4.635  0.00  0.00    +0.215 C 
ATOM     18  O   UNL     1       4.269  -2.305  -4.291  0.00  0.00    -0.276 OA
ATOM     19  N   UNL     1       3.599  -3.771  -5.816  0.00  0.00    -0.312 N 
ATOM     20  H   UNL     1       2.948  -4.436  -6.090  0.00  0.00    +0.149 HD
BRANCH  19  21
ATOM     21  C   UNL     1       4.736  -3.455  -6.684  0.00  0.00    +0.073 C 
ATOM     22  C   UNL     1       4.397  -2.237  -7.546  0.00  0.00    +0.022 C 
ATOM     23  C   UNL     1       5.682  -1.666  -8.149  0.00  0.00    +0.002 C 
ATOM     24  C   UNL     1       6.772  -1.619  -7.076  0.00  0.00    +0.000 C 
ATOM     25  C   UNL     1       7.880  -2.612  -7.432  0.00  0.00    +0.000 C 
ATOM     26  C   UNL     1       7.410  -4.034  -7.119  0.00  0.00    +0.000 C 
ATOM     27  C   UNL     1       6.429  -4.496  -8.198  0.00  0.00    +0.002 C 
ATOM     28  C   UNL     1       5.035  -4.653  -7.588  0.00  0.00    +0.022 C 
ENDBRANCH  19  21
ENDBRANCH  16  17
ENDBRANCH  15  16
ENDBRANCH   1  15
TORSDOF 7
