REMARK  Name = ZINC20745702
REMARK  3 active torsions:
REMARK  status: ('A' for Active; 'I' for Inactive)
REMARK    1  A    between atoms: C_1  and  C_2
REMARK    2  A    between atoms: C_17  and  C_19
REMARK    3  A    between atoms: C_24  and  C_25
REMARK                            x       y       z     vdW  Elec       q    Type
REMARK                         _______ _______ _______ _____ _____    ______ ____
ROOT
ATOM      1  C   UNL     1       0.440   0.913  -0.204  0.00  0.00    +0.068 C 
ATOM      2  C   UNL     1       0.407  -0.572  -0.456  0.00  0.00    +0.066 A 
ATOM      3  C   UNL     1       0.139  -1.185  -1.672  0.00  0.00    +0.023 A 
ATOM      4  C   UNL     1       0.209  -2.539  -1.488  0.00  0.00    +0.136 A 
ATOM      5  N   UNL     1       0.503  -2.759  -0.188  0.00  0.00    -0.183 N 
ATOM      6  N   UNL     1       0.633  -1.508   0.436  0.00  0.00    -0.167 NA
ATOM      7  C   UNL     1       0.657  -4.003   0.422  0.00  0.00    +0.253 A 
ATOM      8  N   UNL     1       0.514  -5.101  -0.304  0.00  0.00    -0.219 NA
ATOM      9  C   UNL     1       0.652  -6.297   0.243  0.00  0.00    +0.116 A 
ATOM     10  C   UNL     1       0.951  -6.391   1.594  0.00  0.00    +0.039 A 
ATOM     11  C   UNL     1       1.093  -5.222   2.324  0.00  0.00    +0.116 A 
ATOM     12  N   UNL     1       0.947  -4.058   1.712  0.00  0.00    -0.219 NA
ATOM     13  N   UNL     1       0.006  -3.437  -2.534  0.00  0.00    -0.270 N 
ATOM     14  C   UNL     1      -0.063  -2.946  -3.789  0.00  0.00    +0.219 C 
ATOM     15  O   UNL     1      -0.424  -3.676  -4.687  0.00  0.00    -0.275 OA
ATOM     16  C   UNL     1       0.293  -1.521  -4.109  0.00  0.00    +0.109 C 
ATOM     17  C   UNL     1      -0.186  -0.568  -3.009  0.00  0.00    +0.063 C 
ATOM     18  H   UNL     1      -0.082  -4.388  -2.365  0.00  0.00    +0.156 HD
ENDROOT
BRANCH  17  19
ATOM     19  C   UNL     1      -1.675  -0.366  -3.126  0.00  0.00    -0.028 A 
ATOM     20  C   UNL     1      -2.537  -1.420  -2.885  0.00  0.00    +0.005 A 
ATOM     21  C   UNL     1      -3.902  -1.234  -2.993  0.00  0.00    +0.000 A 
ATOM     22  C   UNL     1      -4.406   0.005  -3.340  0.00  0.00    +0.001 A 
ATOM     23  C   UNL     1      -3.545   1.059  -3.579  0.00  0.00    +0.012 A 
ATOM     24  C   UNL     1      -2.179   0.875  -3.467  0.00  0.00    +0.059 A 
BRANCH  24  25
ATOM     25  C   UNL     1      -1.240   2.025  -3.723  0.00  0.00    +0.418 C 
ATOM     26  F   UNL     1      -1.969   3.132  -4.172  0.00  0.00    -0.166 F 
ATOM     27  F   UNL     1      -0.574   2.356  -2.538  0.00  0.00    -0.166 F 
ATOM     28  F   UNL     1      -0.305   1.657  -4.697  0.00  0.00    -0.166 F 
ENDBRANCH  24  25
ENDBRANCH  17  19
TORSDOF 2
