REMARK  Name = ZINC59888651
REMARK  8 active torsions:
REMARK  status: ('A' for Active; 'I' for Inactive)
REMARK    1  A    between atoms: C_1  and  C_2
REMARK    2  A    between atoms: C_2  and  C_3
REMARK    3  A    between atoms: C_3  and  C_24
REMARK    4  A    between atoms: N_4  and  N_5
REMARK    5  A    between atoms: C_8  and  S_11
REMARK    6  A    between atoms: S_11  and  C_12
REMARK    7  A    between atoms: C_12  and  C_13
REMARK    8  A    between atoms: N_15  and  C_16
REMARK                            x       y       z     vdW  Elec       q    Type
REMARK                         _______ _______ _______ _____ _____    ______ ____
ROOT
ATOM      1  S   UNL     1      -3.286  -3.983  -5.573  0.00  0.00    -0.075 S 
ENDROOT
BRANCH   1   5
ATOM      2  N   UNL     1      -3.151  -1.721  -0.956  0.00  0.00    -0.205 N 
ATOM      3  C   UNL     1      -3.638  -2.421  -2.045  0.00  0.00    +0.232 A 
ATOM      4  N   UNL     1      -2.972  -2.704  -3.144  0.00  0.00    -0.186 NA
ATOM      5  C   UNL     1      -3.756  -3.392  -3.981  0.00  0.00    +0.211 A 
ATOM      6  N   UNL     1      -4.933  -3.556  -3.425  0.00  0.00    -0.144 NA
ATOM      7  N   UNL     1      -4.879  -2.939  -2.164  0.00  0.00    -0.245 N 
ATOM      8  H   UNL     1      -3.719  -1.565  -0.186  0.00  0.00    +0.177 HD
ATOM      9  H   UNL     1      -5.593  -2.893  -1.509  0.00  0.00    +0.192 HD
BRANCH   2  11
ATOM     10  C   UNL     1      -1.385  -0.589   0.042  0.00  0.00    +0.034 C 
ATOM     11  N   UNL     1      -1.836  -1.237  -0.966  0.00  0.00    -0.189 NA
ATOM     12  C   UNL     1      -2.268  -0.347   1.238  0.00  0.00    +0.062 C 
BRANCH  10  14
ATOM     13  C   UNL     1       0.010   1.462   0.050  0.00  0.00    +0.010 C 
ATOM     14  C   UNL     1       0.029  -0.068   0.031  0.00  0.00    +0.049 C 
ENDBRANCH  10  14
ENDBRANCH   2  11
ENDBRANCH   1   5
BRANCH   1  15
ATOM     15  C   UNL     1      -4.773  -4.821  -6.187  0.00  0.00    +0.173 C 
BRANCH  15  16
ATOM     16  C   UNL     1      -4.503  -5.380  -7.561  0.00  0.00    +0.228 C 
ATOM     17  O   UNL     1      -3.415  -5.228  -8.075  0.00  0.00    -0.275 OA
ATOM     18  N   UNL     1      -5.471  -6.050  -8.218  0.00  0.00    -0.284 N 
ATOM     19  H   UNL     1      -6.319  -6.228  -7.782  0.00  0.00    +0.155 HD
BRANCH  18  20
ATOM     20  C   UNL     1      -5.253  -6.487  -9.529  0.00  0.00    +0.053 A 
ATOM     21  C   UNL     1      -3.988  -6.908  -9.921  0.00  0.00    +0.025 A 
ATOM     22  C   UNL     1      -3.775  -7.339 -11.216  0.00  0.00    +0.003 A 
ATOM     23  C   UNL     1      -4.819  -7.353 -12.123  0.00  0.00    +0.021 A 
ATOM     24  C   UNL     1      -6.080  -6.935 -11.737  0.00  0.00    +0.061 A 
ATOM     25  C   UNL     1      -6.301  -6.507 -10.440  0.00  0.00    +0.080 A 
ATOM     26 CL   UNL     1      -7.885  -5.989  -9.954  0.00  0.00    -0.080 Cl
ATOM     27 CL   UNL     1      -7.387  -6.953 -12.879  0.00  0.00    -0.082 Cl
ENDBRANCH  18  20
ENDBRANCH  15  16
ENDBRANCH   1  15
TORSDOF 6
