REMARK  Name = ZINC13417740
REMARK  7 active torsions:
REMARK  status: ('A' for Active; 'I' for Inactive)
REMARK    1  A    between atoms: C_1  and  C_2
REMARK    2  A    between atoms: C_4  and  C_16
REMARK    3  A    between atoms: C_12  and  C_13
REMARK    4  A    between atoms: C_16  and  S_17
REMARK    5  A    between atoms: S_17  and  C_18
REMARK    6  A    between atoms: N_27  and  C_28
REMARK    7  A    between atoms: C_28  and  C_29
REMARK                            x       y       z     vdW  Elec       q    Type
REMARK                         _______ _______ _______ _____ _____    ______ ____
ROOT
ATOM      1  C   UNL     1       0.677   1.499  -0.145  0.00  0.00    +0.046 C 
ATOM      2  C   UNL     1       0.638  -0.008  -0.140  0.00  0.00    -0.020 A 
ATOM      3  C   UNL     1       0.212  -0.733  -1.264  0.00  0.00    +0.014 A 
ATOM      4  C   UNL     1      -0.228  -0.215  -2.524  0.00  0.00    -0.022 A 
ATOM      5  C   UNL     1      -0.607  -1.061  -3.509  0.00  0.00    +0.075 A 
ATOM      6  C   UNL     1      -0.575  -2.454  -3.312  0.00  0.00    +0.250 A 
ATOM      7  O   UNL     1      -0.919  -3.206  -4.209  0.00  0.00    -0.268 OA
ATOM      8  N   UNL     1      -0.162  -2.957  -2.132  0.00  0.00    -0.317 N 
ATOM      9  H   UNL     1      -0.141  -3.917  -1.999  0.00  0.00    +0.169 HD
ATOM     10  C   UNL     1       0.224  -2.130  -1.126  0.00  0.00    +0.089 A 
ATOM     11  S   UNL     1       0.777  -2.410   0.428  0.00  0.00    -0.064 S 
ATOM     12  C   UNL     1       1.020  -0.727   0.957  0.00  0.00    +0.106 A 
ENDROOT
BRANCH  12  13
ATOM     13  C   UNL     1       1.492  -0.251   2.207  0.00  0.00    +0.393 C 
ATOM     14  O   UNL     1       1.597   0.954   2.403  0.00  0.00    -0.240 OA
ATOM     15  O   UNL     1       1.794  -1.044   3.090  0.00  0.00    -0.240 OA
ENDBRANCH  12  13
BRANCH   4  16
ATOM     16  C   UNL     1      -0.270   1.274  -2.754  0.00  0.00    +0.113 C 
BRANCH  16  17
ATOM     17  S   UNL     1      -1.835   1.939  -2.123  0.00  0.00    -0.083 S 
BRANCH  17  18
ATOM     18  C   UNL     1      -1.732   3.666  -2.460  0.00  0.00    +0.173 A 
ATOM     19  N   UNL     1      -0.660   4.148  -3.055  0.00  0.00    -0.216 NA
ATOM     20  C   UNL     1      -0.555   5.444  -3.323  0.00  0.00    +0.116 A 
ATOM     21  C   UNL     1      -1.570   6.361  -2.988  0.00  0.00    +0.072 A 
ATOM     22  C   UNL     1      -1.294   7.740  -3.352  0.00  0.00    +0.023 A 
ATOM     23  C   UNL     1      -0.135   8.038  -3.958  0.00  0.00    +0.048 A 
ATOM     24  S   UNL     1       0.683   6.460  -4.087  0.00  0.00    -0.077 S 
ATOM     25  C   UNL     1      -2.720   5.808  -2.343  0.00  0.00    +0.263 A 
ATOM     26  O   UNL     1      -3.650   6.526  -2.016  0.00  0.00    -0.267 OA
ATOM     27  N   UNL     1      -2.766   4.484  -2.107  0.00  0.00    -0.283 N 
BRANCH  27  28
ATOM     28  C   UNL     1      -3.945   3.911  -1.452  0.00  0.00    +0.154 C 
BRANCH  28  29
ATOM     29  C   UNL     1      -3.747   3.927   0.042  0.00  0.00    -0.013 C 
ATOM     30  C   UNL     1      -4.633   4.505   0.814  0.00  0.00    +0.005 C 
ENDBRANCH  28  29
ENDBRANCH  27  28
ENDBRANCH  17  18
ENDBRANCH  16  17
ENDBRANCH   4  16
TORSDOF 6
