REMARK  Name = ZINC06077727
REMARK  12 active torsions:
REMARK  status: ('A' for Active; 'I' for Inactive)
REMARK    1  A    between atoms: C_1  and  C_2
REMARK    2  A    between atoms: C_2  and  C_3
REMARK    3  A    between atoms: C_3  and  C_4
REMARK    4  A    between atoms: C_3  and  C_5
REMARK    5  A    between atoms: C_3  and  N_6
REMARK    6  A    between atoms: C_7  and  C_11
REMARK    7  A    between atoms: C_11  and  C_13
REMARK    8  A    between atoms: C_11  and  N_72
REMARK    9  A    between atoms: C_17  and  C_25
REMARK   10  A    between atoms: N_28  and  C_31
REMARK   11  A    between atoms: C_34  and  O_37
REMARK   12  A    between atoms: O_37  and  C_38
REMARK                            x       y       z     vdW  Elec       q    Type
REMARK                         _______ _______ _______ _____ _____    ______ ____
ROOT
ATOM      1  C   UNL     1       1.479   3.345  -0.050  0.00  0.00    +0.039 C 
ENDROOT
BRANCH   1   2
ATOM      2  C   UNL     1       0.785   3.459   1.282  0.00  0.00    +0.011 A 
ATOM      3  C   UNL     1      -0.350   4.194   1.392  0.00  0.00    +0.017 A 
ATOM      4  C   UNL     1      -1.003   4.282   2.699  0.00  0.00    -0.001 A 
ATOM      5  C   UNL     1      -2.178   5.021   2.873  0.00  0.00    +0.013 A 
ATOM      6  C   UNL     1      -2.760   5.088   4.107  0.00  0.00    -0.050 A 
ATOM      7  C   UNL     1      -2.195   4.428   5.191  0.00  0.00    +0.005 A 
ATOM      8  C   UNL     1      -1.039   3.693   5.043  0.00  0.00    +0.026 A 
ATOM      9  C   UNL     1      -0.428   3.612   3.795  0.00  0.00    +0.049 A 
ATOM     10  N   UNL     1       0.730   2.885   3.619  0.00  0.00    -0.322 N 
ATOM     11  H   UNL     1       1.137   2.410   4.399  0.00  0.00    +0.169 HD
ATOM     12  C   UNL     1       1.320   2.807   2.413  0.00  0.00    +0.251 A 
ATOM     13  O   UNL     1       2.344   2.155   2.294  0.00  0.00    -0.268 OA
ATOM     14  C   UNL     1      -4.025   5.884   4.294  0.00  0.00    +0.044 C 
ENDBRANCH   1   2
BRANCH   1  20
ATOM     15  C   UNL     1       2.292   1.776  -1.706  0.00  0.00    -0.058 C 
ATOM     16  C   UNL     1       2.520   0.290  -1.992  0.00  0.00    +0.086 C 
ATOM     17  N   UNL     1       1.232  -0.416  -1.958  0.00  0.00    -0.333 N 
ATOM     18  C   UNL     1       0.586  -0.265  -0.647  0.00  0.00    +0.086 C 
ATOM     19  C   UNL     1       0.358   1.221  -0.361  0.00  0.00    -0.058 C 
ATOM     20  N   UNL     1       1.663   1.914  -0.376  0.00  0.00    +0.391 N 
ATOM     21  H   UNL     1       2.276   1.488   0.329  0.00  0.00    -0.080 HD
BRANCH  17  22
ATOM     22  C   UNL     1       1.391  -1.767  -2.287  0.00  0.00    +0.030 A 
ATOM     23  C   UNL     1       2.651  -2.263  -2.593  0.00  0.00    +0.027 A 
ATOM     24  C   UNL     1       2.808  -3.598  -2.911  0.00  0.00    +0.047 A 
ATOM     25  C   UNL     1       1.707  -4.440  -2.936  0.00  0.00    +0.120 A 
ATOM     26  C   UNL     1       0.447  -3.944  -2.636  0.00  0.00    +0.047 A 
ATOM     27  C   UNL     1       0.288  -2.611  -2.312  0.00  0.00    +0.027 A 
BRANCH  25  28
ATOM     28  O   UNL     1       1.861  -5.753  -3.256  0.00  0.00    -0.495 OA
ATOM     29  C   UNL     1       3.187  -6.196  -3.554  0.00  0.00    +0.277 C 
ENDBRANCH  25  28
ENDBRANCH  17  22
ENDBRANCH   1  20
BRANCH   1  31
ATOM     30  N   UNL     1       3.210   5.140  -0.587  0.00  0.00    -0.225 N 
ATOM     31  C   UNL     1       2.832   4.005   0.030  0.00  0.00    +0.143 A 
ATOM     32  N   UNL     1       3.870   3.583   0.710  0.00  0.00    -0.115 NA
ATOM     33  N   UNL     1       4.833   4.418   0.524  0.00  0.00    -0.023 NA
ATOM     34  N   UNL     1       4.437   5.362  -0.257  0.00  0.00    -0.043 NA
BRANCH  30  35
ATOM     35  C   UNL     1       2.382   5.970  -1.466  0.00  0.00    +0.061 C 
ATOM     36  C   UNL     1       1.975   5.159  -2.699  0.00  0.00    +0.036 C 
ATOM     37  C   UNL     1       1.127   6.417  -0.714  0.00  0.00    +0.036 C 
BRANCH  35  39
ATOM     38  C   UNL     1       2.314   8.066  -2.824  0.00  0.00    +0.006 C 
ATOM     39  C   UNL     1       3.178   7.200  -1.906  0.00  0.00    +0.026 C 
ENDBRANCH  35  39
ENDBRANCH  30  35
ENDBRANCH   1  31
TORSDOF 7
