REMARK  Name = ZINC14244365
REMARK  8 active torsions:
REMARK  status: ('A' for Active; 'I' for Inactive)
REMARK    1  A    between atoms: C_1  and  C_2
REMARK    2  A    between atoms: C_2  and  C_3
REMARK    3  A    between atoms: C_2  and  C_4
REMARK    4  A    between atoms: C_4  and  C_6
REMARK    5  A    between atoms: C_4  and  N_21
REMARK    6  A    between atoms: N_8  and  N_9
REMARK    7  A    between atoms: C_10  and  C_12
REMARK    8  A    between atoms: C_22  and  C_24
REMARK                            x       y       z     vdW  Elec       q    Type
REMARK                         _______ _______ _______ _____ _____    ______ ____
ROOT
ATOM      1  C   UNL     1       8.631  -2.964   4.448  0.00  0.00    +0.163 C 
ENDROOT
BRANCH   1   2
ATOM      2  C   UNL     1       7.230  -2.619   4.012  0.00  0.00    +0.250 C 
ATOM      3  O   UNL     1       6.407  -3.498   3.865  0.00  0.00    -0.272 OA
ATOM      4  N   UNL     1       6.892  -1.334   3.787  0.00  0.00    -0.233 N 
ATOM      5  H   UNL     1       7.525  -0.625   3.977  0.00  0.00    +0.173 HD
BRANCH   4   6
ATOM      6  N   UNL     1       5.624  -1.023   3.277  0.00  0.00    -0.230 N 
ATOM      7  C   UNL     1       5.286   0.262   3.051  0.00  0.00    +0.260 C 
ATOM      8  O   UNL     1       6.080   1.151   3.290  0.00  0.00    -0.269 OA
ATOM      9  H   UNL     1       4.990  -1.732   3.086  0.00  0.00    +0.173 HD
BRANCH   7  10
ATOM     10  C   UNL     1       3.951   0.590   2.514  0.00  0.00    +0.042 A 
ATOM     11  C   UNL     1       3.037  -0.430   2.239  0.00  0.00    +0.017 A 
ATOM     12  C   UNL     1       1.791  -0.122   1.738  0.00  0.00    +0.050 A 
ATOM     13  C   UNL     1       1.439   1.201   1.505  0.00  0.00    +0.166 A 
ATOM     14  C   UNL     1       2.348   2.224   1.777  0.00  0.00    +0.167 A 
ATOM     15  C   UNL     1       3.598   1.921   2.280  0.00  0.00    +0.062 A 
ATOM     16  O   UNL     1       1.764   3.419   1.465  0.00  0.00    -0.453 OA
ATOM     17  C   UNL     1       0.353   3.148   1.386  0.00  0.00    +0.466 C 
ATOM     18  O   UNL     1       0.291   1.756   1.022  0.00  0.00    -0.453 OA
ENDBRANCH   7  10
ENDBRANCH   4   6
ENDBRANCH   1   2
BRANCH   1  19
ATOM     19  N   UNL     1       8.652  -4.323   4.995  0.00  0.00    -0.303 N 
ATOM     20  C   UNL     1       9.603  -4.679   5.880  0.00  0.00    +0.220 C 
ATOM     21  O   UNL     1      10.443  -3.874   6.224  0.00  0.00    -0.275 OA
ATOM     22  H   UNL     1       7.980  -4.967   4.720  0.00  0.00    +0.149 HD
BRANCH  20  23
ATOM     23  C   UNL     1       9.625  -6.077   6.443  0.00  0.00    +0.048 C 
ATOM     24  C   UNL     1       9.787  -7.083   5.302  0.00  0.00    +0.019 C 
ATOM     25  C   UNL     1       9.809  -8.502   5.873  0.00  0.00    -0.009 C 
ATOM     26  C   UNL     1      10.980  -8.642   6.847  0.00  0.00    +0.007 C 
ATOM     27  C   UNL     1      10.818  -7.636   7.988  0.00  0.00    -0.009 C 
ATOM     28  C   UNL     1      10.796  -6.216   7.417  0.00  0.00    +0.019 C 
ATOM     29  C   UNL     1       9.506  -7.909   8.726  0.00  0.00    +0.007 C 
ATOM     30  C   UNL     1       8.334  -7.769   7.752  0.00  0.00    -0.009 C 
ATOM     31  C   UNL     1       8.496  -8.775   6.611  0.00  0.00    +0.007 C 
ATOM     32  C   UNL     1       8.312  -6.349   7.181  0.00  0.00    +0.019 C 
ENDBRANCH  20  23
ENDBRANCH   1  19
BRANCH   1  34
ATOM     33  C   UNL     1      11.008  -3.150   3.703  0.00  0.00    +0.009 C 
ATOM     34  C   UNL     1       9.573  -2.884   3.245  0.00  0.00    +0.012 C 
ATOM     35  C   UNL     1       9.166  -3.933   2.208  0.00  0.00    +0.009 C 
ENDBRANCH   1  34
TORSDOF 6
