REMARK  Name = ZINC09329917
REMARK  3 active torsions:
REMARK  status: ('A' for Active; 'I' for Inactive)
REMARK    1  A    between atoms: C_4  and  N_7
REMARK    2  A    between atoms: C_8  and  C_10
REMARK    3  A    between atoms: N_28  and  C_31
REMARK                            x       y       z     vdW  Elec       q    Type
REMARK                         _______ _______ _______ _____ _____    ______ ____
ROOT
ATOM      1  C   UNL     1       6.007   4.541   0.407  0.00  0.00    +0.156 C 
ATOM      2  C   UNL     1       4.709   4.593  -0.412  0.00  0.00    +0.118 C 
ATOM      3  C   UNL     1       4.009   5.751   0.421  0.00  0.00    +0.113 C 
ATOM      4  C   UNL     1       5.064   6.756   0.461  0.00  0.00    +0.100 C 
ATOM      5  C   UNL     1       7.527   6.540   0.981  0.00  0.00    +0.054 C 
ATOM      6  C   UNL     1       7.492   7.665   1.718  0.00  0.00    +0.022 C 
ATOM      7  C   UNL     1       6.197   8.256   2.106  0.00  0.00    -0.019 A 
ATOM      8  C   UNL     1       5.006   7.808   1.518  0.00  0.00    -0.021 A 
ATOM      9  C   UNL     1       3.804   8.359   1.907  0.00  0.00    +0.006 A 
ATOM     10  C   UNL     1       3.770   9.364   2.857  0.00  0.00    +0.000 A 
ATOM     11  C   UNL     1       4.944   9.828   3.423  0.00  0.00    +0.001 A 
ATOM     12  C   UNL     1       6.154   9.282   3.051  0.00  0.00    +0.008 A 
ATOM     13  C   UNL     1       2.637   5.603  -0.025  0.00  0.00    +0.232 C 
ATOM     14  O   UNL     1       1.824   6.480  -0.223  0.00  0.00    -0.274 OA
ATOM     15  N   UNL     1       2.462   4.250  -0.172  0.00  0.00    -0.210 N 
ATOM     16  C   UNL     1       3.642   3.562  -0.161  0.00  0.00    +0.232 C 
ATOM     17  O   UNL     1       3.796   2.372   0.014  0.00  0.00    -0.274 OA
ATOM     18  N   UNL     1       6.286   6.015   0.266  0.00  0.00    -0.383 NA
ATOM     19  H   UNL     1       6.506   6.146  -0.728  0.00  0.00    +0.127 HD
ENDROOT
BRANCH  15  20
ATOM     20  C   UNL     1       1.208   3.640  -0.314  0.00  0.00    +0.044 A 
ATOM     21  C   UNL     1       1.117   2.262  -0.459  0.00  0.00    +0.024 A 
ATOM     22  C   UNL     1      -0.120   1.663  -0.598  0.00  0.00    +0.002 A 
ATOM     23  C   UNL     1      -1.267   2.436  -0.598  0.00  0.00    +0.000 A 
ATOM     24  C   UNL     1      -1.180   3.808  -0.449  0.00  0.00    +0.002 A 
ATOM     25  C   UNL     1       0.054   4.412  -0.309  0.00  0.00    +0.024 A 
ENDBRANCH  15  20
BRANCH   1  27
ATOM     26  N   UNL     1       7.156   2.526  -0.451  0.00  0.00    -0.284 N 
ATOM     27  C   UNL     1       7.105   3.870  -0.377  0.00  0.00    +0.237 C 
ATOM     28  O   UNL     1       7.944   4.541  -0.941  0.00  0.00    -0.273 OA
ATOM     29  H   UNL     1       6.532   1.988   0.062  0.00  0.00    +0.155 HD
BRANCH  26  33
ATOM     30  C   UNL     1       9.990   0.678  -2.882  0.00  0.00    +0.000 A 
ATOM     31  C   UNL     1       9.593   0.074  -1.703  0.00  0.00    +0.002 A 
ATOM     32  C   UNL     1       8.654   0.684  -0.895  0.00  0.00    +0.023 A 
ATOM     33  C   UNL     1       8.108   1.905  -1.267  0.00  0.00    +0.033 A 
ATOM     34  C   UNL     1       8.505   2.507  -2.454  0.00  0.00    +0.023 A 
ATOM     35  C   UNL     1       9.448   1.895  -3.255  0.00  0.00    +0.002 A 
ENDBRANCH  26  33
ENDBRANCH   1  27
TORSDOF 3
