REMARK  Name = ZINC09332527
REMARK  3 active torsions:
REMARK  status: ('A' for Active; 'I' for Inactive)
REMARK    1  A    between atoms: C_1  and  C_2
REMARK    2  A    between atoms: C_5  and  N_9
REMARK    3  A    between atoms: C_7  and  C_8
REMARK                            x       y       z     vdW  Elec       q    Type
REMARK                         _______ _______ _______ _____ _____    ______ ____
ROOT
ATOM      1  N   UNL     1       4.235   4.297   2.689  0.00  0.00    -0.210 N 
ATOM      2  C   UNL     1       4.177   5.031   1.537  0.00  0.00    +0.228 C 
ATOM      3  O   UNL     1       4.572   6.165   1.368  0.00  0.00    -0.275 OA
ATOM      4  C   UNL     1       3.518   4.134   0.524  0.00  0.00    +0.074 C 
ATOM      5  C   UNL     1       4.023   4.079  -0.912  0.00  0.00    -0.054 C 
ATOM      6  C   UNL     1       5.463   4.607  -1.021  0.00  0.00    -0.016 C 
ATOM      7  C   UNL     1       6.087   3.666  -2.086  0.00  0.00    -0.020 C 
ATOM      8  C   UNL     1       5.435   2.309  -1.728  0.00  0.00    -0.076 C 
ATOM      9  C   UNL     1       3.812   1.855  -0.025  0.00  0.00    +0.053 C 
ATOM     10  C   UNL     1       4.187   2.794   1.040  0.00  0.00    +0.089 C 
ATOM     11  C   UNL     1       4.048   2.955   2.471  0.00  0.00    +0.229 C 
ATOM     12  O   UNL     1       3.816   2.096   3.295  0.00  0.00    -0.275 OA
ATOM     13  C   UNL     1       2.376   1.411  -0.013  0.00  0.00    -0.026 A 
ATOM     14  C   UNL     1       1.175   2.084   0.002  0.00  0.00    +0.024 A 
ATOM     15  C   UNL     1      -0.017   1.380   0.010  0.00  0.00    +0.041 A 
ATOM     16  C   UNL     1       0.002  -0.004   0.002  0.00  0.00    +0.022 A 
ATOM     17  C   UNL     1       1.203  -0.683  -0.014  0.00  0.00    +0.025 A 
ATOM     18  C   UNL     1       2.406   0.019  -0.022  0.00  0.00    +0.036 A 
ATOM     19  N   UNL     1       3.726  -0.436  -0.040  0.00  0.00    -0.286 N 
ATOM     20  C   UNL     1       4.612   0.578  -0.045  0.00  0.00    +0.212 C 
ATOM     21  O   UNL     1       5.821   0.481  -0.062  0.00  0.00    -0.277 OA
ATOM     22 CL   UNL     1      -1.530   2.230   0.021  0.00  0.00    -0.084 Cl
ATOM     23  H   UNL     1       3.976  -1.373  -0.048  0.00  0.00    +0.155 HD
ATOM     24  N   UNL     1       4.098   2.635  -1.250  0.00  0.00    +0.395 N 
ATOM     25  H   UNL     1       3.408   2.411  -1.976  0.00  0.00    -0.079 HD
ENDROOT
BRANCH   1  30
ATOM     26  C   UNL     1       5.151   6.556   7.815  0.00  0.00    +0.044 C 
ATOM     27  C   UNL     1       4.908   5.956   6.454  0.00  0.00    -0.047 A 
ATOM     28  C   UNL     1       4.730   4.591   6.323  0.00  0.00    +0.005 A 
ATOM     29  C   UNL     1       4.501   4.039   5.078  0.00  0.00    +0.024 A 
ATOM     30  C   UNL     1       4.462   4.855   3.955  0.00  0.00    +0.044 A 
ATOM     31  C   UNL     1       4.642   6.225   4.089  0.00  0.00    +0.027 A 
ATOM     32  C   UNL     1       4.864   6.771   5.338  0.00  0.00    -0.046 A 
ATOM     33  C   UNL     1       5.060   8.259   5.485  0.00  0.00    +0.044 C 
ENDBRANCH   1  30
TORSDOF 1
