REMARK  Name = ZINC04954732
REMARK  4 active torsions:
REMARK  status: ('A' for Active; 'I' for Inactive)
REMARK    1  A    between atoms: C_1  and  C_2
REMARK    2  A    between atoms: C_2  and  C_3
REMARK    3  A    between atoms: N_11  and  C_15
REMARK    4  A    between atoms: C_15  and  C_16
REMARK                            x       y       z     vdW  Elec       q    Type
REMARK                         _______ _______ _______ _____ _____    ______ ____
ROOT
ATOM      1  C   UNL     1       6.284  -6.492  -2.502  0.00  0.00    -0.011 C 
ATOM      2  C   UNL     1       6.204  -4.965  -2.577  0.00  0.00    +0.006 C 
ATOM      3  C   UNL     1       4.936  -4.487  -1.864  0.00  0.00    +0.035 C 
ATOM      4  C   UNL     1       4.969  -4.940  -0.408  0.00  0.00    +0.113 C 
ATOM      5  C   UNL     1       5.070  -6.459  -0.319  0.00  0.00    +0.035 C 
ATOM      6  C   UNL     1       6.337  -6.931  -1.038  0.00  0.00    +0.006 C 
ATOM      7  C   UNL     1       3.743  -4.453   0.329  0.00  0.00    +0.247 C 
ATOM      8  O   UNL     1       2.586  -4.727   0.090  0.00  0.00    -0.273 OA
ATOM      9  N   UNL     1       4.207  -3.648   1.307  0.00  0.00    -0.220 N 
ATOM     10  C   UNL     1       5.543  -3.571   1.290  0.00  0.00    +0.310 C 
ATOM     11  O   UNL     1       6.192  -2.910   2.077  0.00  0.00    -0.252 OA
ATOM     12  N   UNL     1       6.088  -4.307   0.302  0.00  0.00    -0.285 N 
ATOM     13  H   UNL     1       7.032  -4.402   0.101  0.00  0.00    +0.151 HD
ENDROOT
BRANCH   1  15
ATOM     14  C   UNL     1       7.561  -8.501  -3.258  0.00  0.00    +0.004 C 
ATOM     15  C   UNL     1       7.544  -6.972  -3.224  0.00  0.00    -0.000 C 
ENDBRANCH   1  15
BRANCH   9  16
ATOM     16  C   UNL     1       3.354  -2.950   2.272  0.00  0.00    +0.154 C 
BRANCH  16  17
ATOM     17  C   UNL     1       2.896  -1.640   1.683  0.00  0.00    -0.012 A 
ATOM     18  C   UNL     1       3.391  -1.223   0.460  0.00  0.00    +0.055 A 
ATOM     19  C   UNL     1       2.971  -0.021  -0.084  0.00  0.00    +0.167 A 
ATOM     20  C   UNL     1       2.050   0.767   0.604  0.00  0.00    +0.167 A 
ATOM     21  C   UNL     1       1.559   0.344   1.827  0.00  0.00    +0.065 A 
ATOM     22  C   UNL     1       1.982  -0.859   2.365  0.00  0.00    +0.026 A 
ATOM     23 BR   UNL     1       1.310  -1.434   4.036  0.00  0.00    -0.050 Br
ATOM     24  O   UNL     1       1.801   1.889  -0.133  0.00  0.00    -0.453 OA
ATOM     25  C   UNL     1       2.264   1.587  -1.462  0.00  0.00    +0.466 C 
ATOM     26  O   UNL     1       3.298   0.608  -1.250  0.00  0.00    -0.453 OA
ENDBRANCH  16  17
ENDBRANCH   9  16
TORSDOF 3
