REMARK  Name = ZINC08954233
REMARK  8 active torsions:
REMARK  status: ('A' for Active; 'I' for Inactive)
REMARK    1  A    between atoms: C_1  and  C_2
REMARK    2  A    between atoms: C_5  and  C_8
REMARK    3  A    between atoms: C_8  and  N_9
REMARK    4  A    between atoms: C_19  and  S_20
REMARK    5  A    between atoms: S_20  and  C_21
REMARK    6  A    between atoms: C_21  and  C_22
REMARK    7  A    between atoms: N_24  and  N_25
REMARK    8  A    between atoms: C_26  and  C_28
REMARK                            x       y       z     vdW  Elec       q    Type
REMARK                         _______ _______ _______ _____ _____    ______ ____
ROOT
ATOM      1  N   UNL     1     -10.001   3.508   0.073  0.00  0.00    -0.283 N 
ATOM      2  C   UNL     1     -10.945   4.478   0.083  0.00  0.00    +0.263 A 
ATOM      3  O   UNL     1     -12.131   4.205   0.089  0.00  0.00    -0.267 OA
ATOM      4  C   UNL     1     -10.484   5.873   0.089  0.00  0.00    +0.065 A 
ATOM      5  C   UNL     1     -11.377   6.943   0.100  0.00  0.00    +0.015 A 
ATOM      6  C   UNL     1     -10.894   8.223   0.105  0.00  0.00    +0.001 A 
ATOM      7  C   UNL     1      -9.526   8.466   0.099  0.00  0.00    +0.002 A 
ATOM      8  C   UNL     1      -8.629   7.435   0.088  0.00  0.00    +0.028 A 
ATOM      9  C   UNL     1      -9.091   6.116   0.082  0.00  0.00    +0.079 A 
ATOM     10  N   UNL     1      -8.241   5.069   0.077  0.00  0.00    -0.223 NA
ATOM     11  C   UNL     1      -8.674   3.833   0.068  0.00  0.00    +0.173 A 
ENDROOT
BRANCH   1  12
ATOM     12  C   UNL     1     -10.405   2.100   0.067  0.00  0.00    +0.162 C 
BRANCH  12  17
ATOM     13  C   UNL     1     -10.906   0.216   5.507  0.00  0.00    +0.044 C 
ATOM     14  C   UNL     1     -10.776   0.707   4.088  0.00  0.00    -0.050 A 
ATOM     15  C   UNL     1     -11.866   1.263   3.446  0.00  0.00    +0.004 A 
ATOM     16  C   UNL     1     -11.746   1.713   2.144  0.00  0.00    +0.005 A 
ATOM     17  C   UNL     1     -10.536   1.608   1.486  0.00  0.00    -0.028 A 
ATOM     18  C   UNL     1      -9.447   1.048   2.126  0.00  0.00    +0.005 A 
ATOM     19  C   UNL     1      -9.566   0.601   3.429  0.00  0.00    +0.004 A 
ENDBRANCH  12  17
ENDBRANCH   1  12
BRANCH  11  20
ATOM     20  S   UNL     1      -7.490   2.528   0.055  0.00  0.00    -0.078 S 
BRANCH  20  21
ATOM     21  C   UNL     1      -5.959   3.494   0.052  0.00  0.00    +0.174 C 
BRANCH  21  22
ATOM     22  C   UNL     1      -4.776   2.560   0.041  0.00  0.00    +0.239 C 
ATOM     23  O   UNL     1      -4.951   1.359   0.036  0.00  0.00    -0.273 OA
ATOM     24  N   UNL     1      -3.524   3.058   0.037  0.00  0.00    -0.233 N 
ATOM     25  H   UNL     1      -3.384   4.018   0.041  0.00  0.00    +0.173 HD
BRANCH  24  26
ATOM     26  N   UNL     1      -2.425   2.190   0.026  0.00  0.00    -0.230 N 
ATOM     27  C   UNL     1      -1.173   2.688   0.022  0.00  0.00    +0.267 C 
ATOM     28  O   UNL     1      -0.997   3.893   0.028  0.00  0.00    -0.268 OA
ATOM     29  H   UNL     1      -2.565   1.230   0.022  0.00  0.00    +0.173 HD
BRANCH  27  30
ATOM     30  C   UNL     1      -0.022   1.780   0.012  0.00  0.00    +0.075 A 
ATOM     31  C   UNL     1       1.330   2.083   0.001  0.00  0.00    +0.021 A 
ATOM     32  C   UNL     1       2.208   1.027  -0.013  0.00  0.00    +0.008 A 
ATOM     33  C   UNL     1       1.719  -0.241  -0.016  0.00  0.00    +0.046 A 
ATOM     34  S   UNL     1       0.002  -0.004   0.002  0.00  0.00    -0.092 S 
ENDBRANCH  27  30
ENDBRANCH  24  26
ENDBRANCH  21  22
ENDBRANCH  20  21
ENDBRANCH  11  20
TORSDOF 7
