REMARK  Name = ZINC57114780
REMARK  11 active torsions:
REMARK  status: ('A' for Active; 'I' for Inactive)
REMARK    1  A    between atoms: C_1  and  C_2
REMARK    2  A    between atoms: C_2  and  C_3
REMARK    3  A    between atoms: C_2  and  C_4
REMARK    4  A    between atoms: C_4  and  O_5
REMARK    5  A    between atoms: O_5  and  C_6
REMARK    6  A    between atoms: C_9  and  C_12
REMARK    7  A    between atoms: C_12  and  N_13
REMARK    8  A    between atoms: N_16  and  N_17
REMARK    9  A    between atoms: N_17  and  C_18
REMARK   10  A    between atoms: C_18  and  N_20
REMARK   11  A    between atoms: N_20  and  C_21
REMARK                            x       y       z     vdW  Elec       q    Type
REMARK                         _______ _______ _______ _____ _____    ______ ____
ROOT
ATOM      1  N   UNL     1       3.066  -0.657   7.871  0.00  0.00    -0.294 N 
ATOM      2  C   UNL     1       3.701  -0.813   9.050  0.00  0.00    +0.316 C 
ATOM      3  O   UNL     1       3.542  -1.830   9.696  0.00  0.00    -0.251 OA
ATOM      4  N   UNL     1       4.513   0.159   9.511  0.00  0.00    -0.219 N 
ATOM      5  H   UNL     1       3.193   0.154   7.355  0.00  0.00    +0.151 HD
ATOM      6  H   UNL     1       4.970   0.047  10.360  0.00  0.00    +0.174 HD
ENDROOT
BRANCH   4   7
ATOM      7  N   UNL     1       4.696   1.331   8.766  0.00  0.00    -0.245 N 
ATOM      8  H   UNL     1       4.239   1.443   7.918  0.00  0.00    +0.172 HD
BRANCH   7   9
ATOM      9  C   UNL     1       5.507   2.303   9.228  0.00  0.00    +0.147 C 
ATOM     10  S   UNL     1       5.731   3.736   8.318  0.00  0.00    -0.017 S 
BRANCH   9  11
ATOM     11  N   UNL     1       6.142   2.148  10.407  0.00  0.00    -0.323 N 
ATOM     12  H   UNL     1       6.015   1.336  10.922  0.00  0.00    +0.148 HD
BRANCH  11  13
ATOM     13  C   UNL     1       7.024   3.204  10.909  0.00  0.00    +0.072 C 
ATOM     14  C   UNL     1       8.453   3.005  10.361  0.00  0.00    +0.022 C 
ATOM     15  C   UNL     1       9.372   3.420  11.536  0.00  0.00    +0.002 C 
ATOM     16  C   UNL     1       8.613   2.875  12.772  0.00  0.00    +0.002 C 
ATOM     17  C   UNL     1       7.126   3.122  12.442  0.00  0.00    +0.022 C 
ENDBRANCH  11  13
ENDBRANCH   9  11
ENDBRANCH   7   9
ENDBRANCH   4   7
BRANCH   1  18
ATOM     18  C   UNL     1       2.184  -1.714   7.369  0.00  0.00    +0.141 C 
BRANCH  18  22
ATOM     19  C   UNL     1       0.535  -0.527   3.610  0.00  0.00    +0.121 A 
ATOM     20  C   UNL     1       1.732  -1.226   3.654  0.00  0.00    +0.046 A 
ATOM     21  C   UNL     1       2.263  -1.608   4.870  0.00  0.00    +0.009 A 
ATOM     22  C   UNL     1       1.602  -1.295   6.043  0.00  0.00    -0.030 A 
ATOM     23  C   UNL     1       0.409  -0.599   6.003  0.00  0.00    +0.009 A 
ATOM     24  C   UNL     1      -0.124  -0.209   4.789  0.00  0.00    +0.046 A 
BRANCH  19  25
ATOM     25  O   UNL     1       0.010  -0.149   2.414  0.00  0.00    -0.492 OA
BRANCH  25  26
ATOM     26  C   UNL     1       0.742  -0.511   1.242  0.00  0.00    +0.232 C 
BRANCH  26  28
ATOM     27  C   UNL     1      -0.019   1.526   0.010  0.00  0.00    +0.010 C 
ATOM     28  C   UNL     1       0.002  -0.004   0.002  0.00  0.00    +0.020 C 
ATOM     29  C   UNL     1       0.718  -0.497  -1.257  0.00  0.00    +0.010 C 
ENDBRANCH  26  28
ENDBRANCH  25  26
ENDBRANCH  19  25
ENDBRANCH  18  22
ENDBRANCH   1  18
TORSDOF 9
