REMARK  Name = ZINC21316262
REMARK  8 active torsions:
REMARK  status: ('A' for Active; 'I' for Inactive)
REMARK    1  A    between atoms: C_4  and  N_29
REMARK    2  A    between atoms: C_5  and  N_7
REMARK    3  A    between atoms: C_8  and  C_10
REMARK    4  A    between atoms: C_10  and  S_11
REMARK    5  A    between atoms: S_11  and  C_12
REMARK    6  A    between atoms: N_16  and  N_17
REMARK    7  A    between atoms: N_18  and  N_19
REMARK    8  A    between atoms: C_20  and  C_21
REMARK                            x       y       z     vdW  Elec       q    Type
REMARK                         _______ _______ _______ _____ _____    ______ ____
ROOT
ATOM      1  C   UNL     1      -4.445   9.344   0.159  0.00  0.00    +0.210 A 
ATOM      2  N   UNL     1      -3.133   9.363   0.163  0.00  0.00    -0.119 NA
ATOM      3  N   UNL     1      -2.681   8.037   0.175  0.00  0.00    -0.109 NA
ATOM      4  C   UNL     1      -3.731   7.251   0.170  0.00  0.00    +0.254 A 
ATOM      5  N   UNL     1      -4.848   8.039   0.164  0.00  0.00    -0.211 N 
ATOM      6  N   UNL     1      -3.711   5.864   0.177  0.00  0.00    -0.204 N 
ATOM      7  H   UNL     1      -4.656   5.300   0.177  0.00  0.00    +0.177 HD
ENDROOT
BRANCH   5   8
ATOM      8  N   UNL     1      -6.141   7.598   0.161  0.00  0.00    -0.294 N 
ATOM      9  H   UNL     1      -6.355   6.519   0.165  0.00  0.00    +0.163 HD
ATOM     10  H   UNL     1      -6.969   8.322   0.155  0.00  0.00    +0.163 HD
ENDBRANCH   5   8
BRANCH   6  11
ATOM     11  N   UNL     1      -2.488   5.181   0.184  0.00  0.00    -0.187 NA
ATOM     12  C   UNL     1      -2.469   3.882   0.190  0.00  0.00    +0.139 C 
BRANCH  12  13
ATOM     13  C   UNL     1      -1.182   3.163   0.197  0.00  0.00    +0.014 A 
ATOM     14  C   UNL     1      -1.159   1.766   0.199  0.00  0.00    +0.011 A 
ATOM     15  C   UNL     1       0.049   1.100   0.211  0.00  0.00    +0.002 A 
ATOM     16  C   UNL     1       1.236   1.810   0.211  0.00  0.00    +0.021 A 
ATOM     17  C   UNL     1       1.222   3.195   0.204  0.00  0.00    +0.060 A 
ATOM     18  C   UNL     1       0.020   3.876   0.197  0.00  0.00    +0.068 A 
ATOM     19 CL   UNL     1       0.003   5.612   0.189  0.00  0.00    -0.081 Cl
ATOM     20 CL   UNL     1       2.718   4.076   0.204  0.00  0.00    -0.082 Cl
ENDBRANCH  12  13
ENDBRANCH   6  11
BRANCH   1  21
ATOM     21  S   UNL     1      -5.501  10.754   0.149  0.00  0.00    -0.075 S 
BRANCH  21  22
ATOM     22  C   UNL     1      -4.355  12.160   0.147  0.00  0.00    +0.173 C 
BRANCH  22  24
ATOM     23  N   UNL     1      -4.493  14.630   0.136  0.00  0.00    -0.283 N 
ATOM     24  C   UNL     1      -5.139  13.447   0.139  0.00  0.00    +0.228 C 
ATOM     25  O   UNL     1      -6.352  13.419   0.135  0.00  0.00    -0.275 OA
ATOM     26  H   UNL     1      -3.396  14.658   0.212  0.00  0.00    +0.155 HD
BRANCH  23  31
ATOM     27  C   UNL     1      -7.174  17.113   0.541  0.00  0.00    +0.002 A 
ATOM     28  C   UNL     1      -6.650  18.181  -0.165  0.00  0.00    +0.002 A 
ATOM     29  C   UNL     1      -5.413  18.073  -0.771  0.00  0.00    +0.034 A 
ATOM     30  C   UNL     1      -4.695  16.897  -0.673  0.00  0.00    +0.147 A 
ATOM     31  C   UNL     1      -5.218  15.823   0.035  0.00  0.00    +0.064 A 
ATOM     32  C   UNL     1      -6.464  15.933   0.638  0.00  0.00    +0.025 A 
BRANCH  30  33
ATOM     33  N   UNL     1      -3.370  16.781  -1.323  0.00  0.00    +0.058 N 
ATOM     34  O   UNL     1      -2.868  17.753  -1.859  0.00  0.00    -0.126 OA
ATOM     35  O   UNL     1      -2.782  15.714  -1.323  0.00  0.00    -0.126 OA
ENDBRANCH  30  33
ENDBRANCH  23  31
ENDBRANCH  22  24
ENDBRANCH  21  22
ENDBRANCH   1  21
TORSDOF 8
