REMARK  Name = ZINC13896423
REMARK  9 active torsions:
REMARK  status: ('A' for Active; 'I' for Inactive)
REMARK    1  A    between atoms: C_1  and  C_2
REMARK    2  A    between atoms: C_2  and  C_28
REMARK    3  A    between atoms: N_3  and  N_4
REMARK    4  A    between atoms: C_5  and  C_7
REMARK    5  A    between atoms: C_7  and  S_8
REMARK    6  A    between atoms: S_8  and  C_9
REMARK    7  A    between atoms: C_12  and  C_21
REMARK    8  A    between atoms: N_13  and  C_14
REMARK    9  A    between atoms: C_33  and  O_34
REMARK                            x       y       z     vdW  Elec       q    Type
REMARK                         _______ _______ _______ _____ _____    ______ ____
ROOT
ATOM      1  C   UNL     1       0.075  -0.070   7.625  0.00  0.00    +0.197 A 
ATOM      2  N   UNL     1       0.052   1.244   7.653  0.00  0.00    -0.122 NA
ATOM      3  N   UNL     1       0.060   1.660   8.869  0.00  0.00    -0.128 NA
ATOM      4  C   UNL     1       0.088   0.639   9.694  0.00  0.00    +0.169 A 
ATOM      5  N   UNL     1       0.093  -0.503   8.923  0.00  0.00    -0.270 N 
ENDROOT
BRANCH   5   6
ATOM      6  C   UNL     1       0.116  -1.830   9.373  0.00  0.00    +0.051 A 
ATOM      7  C   UNL     1      -0.962  -2.342  10.083  0.00  0.00    +0.028 A 
ATOM      8  C   UNL     1      -0.938  -3.650  10.525  0.00  0.00    +0.022 A 
ATOM      9  C   UNL     1       0.159  -4.450  10.262  0.00  0.00    +0.041 A 
ATOM     10  C   UNL     1       1.236  -3.943   9.556  0.00  0.00    +0.022 A 
ATOM     11  C   UNL     1       1.214  -2.637   9.106  0.00  0.00    +0.028 A 
ATOM     12 CL   UNL     1       0.187  -6.094  10.820  0.00  0.00    -0.084 Cl
ENDBRANCH   5   6
BRANCH   4  13
ATOM     13  C   UNL     1       0.106   0.702  11.170  0.00  0.00    +0.020 A 
ATOM     14  C   UNL     1       0.455  -0.425  11.916  0.00  0.00    +0.013 A 
ATOM     15  C   UNL     1       0.470  -0.360  13.293  0.00  0.00    +0.021 A 
ATOM     16  C   UNL     1       0.141   0.821  13.937  0.00  0.00    +0.041 A 
ATOM     17  C   UNL     1      -0.206   1.943  13.203  0.00  0.00    +0.021 A 
ATOM     18  C   UNL     1      -0.219   1.891  11.825  0.00  0.00    +0.013 A 
ATOM     19 CL   UNL     1       0.162   0.895  15.671  0.00  0.00    -0.084 Cl
ENDBRANCH   4  13
BRANCH   1  20
ATOM     20  S   UNL     1       0.075  -1.085   6.184  0.00  0.00    -0.076 S 
BRANCH  20  21
ATOM     21  C   UNL     1       0.046   0.101   4.812  0.00  0.00    +0.174 C 
BRANCH  21  23
ATOM     22  N   UNL     1       0.024   0.035   2.340  0.00  0.00    -0.206 N 
ATOM     23  C   UNL     1       0.044  -0.645   3.503  0.00  0.00    +0.242 C 
ATOM     24  O   UNL     1       0.060  -1.858   3.496  0.00  0.00    -0.273 OA
ATOM     25  H   UNL     1       0.011   1.005   2.345  0.00  0.00    +0.177 HD
BRANCH  22  28
ATOM     26  C   UNL     1      -0.018   1.503   0.010  0.00  0.00    +0.068 C 
ATOM     27  C   UNL     1       0.002  -0.004   0.002  0.00  0.00    +0.067 C 
ATOM     28  N   UNL     1       0.022  -0.659   1.123  0.00  0.00    -0.184 NA
BRANCH  27  29
ATOM     29  C   UNL     1      -0.000  -0.734  -1.278  0.00  0.00    +0.039 A 
ATOM     30  C   UNL     1      -0.015  -0.033  -2.486  0.00  0.00    +0.013 A 
ATOM     31  C   UNL     1      -0.017  -0.722  -3.681  0.00  0.00    +0.001 A 
ATOM     32  C   UNL     1      -0.003  -2.107  -3.688  0.00  0.00    +0.004 A 
ATOM     33  C   UNL     1       0.012  -2.812  -2.499  0.00  0.00    +0.046 A 
ATOM     34  C   UNL     1       0.019  -2.135  -1.290  0.00  0.00    +0.126 A 
BRANCH  34  35
ATOM     35  O   UNL     1       0.039  -2.827  -0.122  0.00  0.00    -0.506 OA
ATOM     36  H   UNL     1      -0.839  -3.040   0.224  0.00  0.00    +0.292 HD
ENDBRANCH  34  35
ENDBRANCH  27  29
ENDBRANCH  22  28
ENDBRANCH  21  23
ENDBRANCH  20  21
ENDBRANCH   1  20
TORSDOF 8
