REMARK  Name = ZINC20242492
REMARK  11 active torsions:
REMARK  status: ('A' for Active; 'I' for Inactive)
REMARK    1  A    between atoms: C_1  and  C_2
REMARK    2  A    between atoms: C_2  and  O_3
REMARK    3  A    between atoms: O_3  and  C_4
REMARK    4  A    between atoms: C_4  and  C_5
REMARK    5  A    between atoms: C_4  and  O_34
REMARK    6  A    between atoms: C_5  and  N_6
REMARK    7  A    between atoms: C_7  and  C_9
REMARK    8  A    between atoms: N_15  and  C_26
REMARK    9  A    between atoms: C_26  and  C_27
REMARK   10  A    between atoms: O_34  and  C_35
REMARK   11  A    between atoms: C_35  and  C_36
REMARK                            x       y       z     vdW  Elec       q    Type
REMARK                         _______ _______ _______ _____ _____    ______ ____
ROOT
ATOM      1  C   UNL     1      -5.070   3.392   4.475  0.00  0.00    +0.039 A 
ATOM      2  C   UNL     1      -4.878   2.166   3.834  0.00  0.00    +0.014 A 
ATOM      3  C   UNL     1      -4.441   2.142   2.526  0.00  0.00    +0.020 A 
ATOM      4  C   UNL     1      -4.192   3.322   1.847  0.00  0.00    +0.065 A 
ATOM      5  C   UNL     1      -4.381   4.547   2.468  0.00  0.00    +0.054 A 
ATOM      6  C   UNL     1      -4.821   4.577   3.790  0.00  0.00    +0.037 A 
ATOM      7  N   UNL     1      -4.150   5.748   1.823  0.00  0.00    -0.262 N 
ATOM      8  C   UNL     1      -3.152   6.132   1.072  0.00  0.00    +0.252 C 
ATOM      9  O   UNL     1      -3.215   7.274   0.660  0.00  0.00    -0.270 OA
ATOM     10  C   UNL     1      -1.969   5.375   0.657  0.00  0.00    +0.053 A 
ATOM     11  C   UNL     1      -0.713   5.996   0.688  0.00  0.00    +0.014 A 
ATOM     12  C   UNL     1       0.413   5.300   0.306  0.00  0.00    +0.001 A 
ATOM     13  C   UNL     1       0.312   3.984  -0.109  0.00  0.00    +0.001 A 
ATOM     14  C   UNL     1      -0.923   3.362  -0.143  0.00  0.00    +0.018 A 
ATOM     15  C   UNL     1      -2.059   4.052   0.229  0.00  0.00    +0.056 A 
ATOM     16  S   UNL     1      -3.627   3.250   0.178  0.00  0.00    +0.088 S 
ATOM     17  O   UNL     1      -4.460   4.176  -0.507  0.00  0.00    -0.247 OA
ENDROOT
BRANCH   1  19
ATOM     18  N   UNL     1      -5.777   2.280   6.539  0.00  0.00    -0.307 N 
ATOM     19  C   UNL     1      -5.537   3.429   5.878  0.00  0.00    +0.244 C 
ATOM     20  O   UNL     1      -5.703   4.497   6.434  0.00  0.00    -0.270 OA
ATOM     21  H   UNL     1      -5.626   1.313   6.035  0.00  0.00    +0.149 HD
BRANCH  18  22
ATOM     22  C   UNL     1      -6.240   2.317   7.928  0.00  0.00    +0.165 C 
BRANCH  22  23
ATOM     23  C   UNL     1      -6.436   0.888   8.439  0.00  0.00    +0.267 C 
BRANCH  23  24
ATOM     24  O   UNL     1      -7.408   0.222   7.631  0.00  0.00    -0.350 OA
BRANCH  24  26
ATOM     25  C   UNL     1      -9.062  -1.516   7.340  0.00  0.00    +0.034 C 
ATOM     26  C   UNL     1      -8.159  -0.774   8.328  0.00  0.00    +0.159 C 
ENDBRANCH  24  26
ENDBRANCH  23  24
BRANCH  23  27
ATOM     27  O   UNL     1      -5.195   0.183   8.369  0.00  0.00    -0.350 OA
BRANCH  27  28
ATOM     28  C   UNL     1      -5.182  -1.045   9.099  0.00  0.00    +0.159 C 
ATOM     29  C   UNL     1      -3.767  -1.628   9.093  0.00  0.00    +0.034 C 
ENDBRANCH  27  28
ENDBRANCH  23  27
ENDBRANCH  22  23
ENDBRANCH  18  22
ENDBRANCH   1  19
BRANCH   7  30
ATOM     30  C   UNL     1      -5.195   6.757   2.014  0.00  0.00    +0.149 C 
BRANCH  30  31
ATOM     31  C   UNL     1      -6.232   6.617   0.930  0.00  0.00    -0.030 A 
ATOM     32  C   UNL     1      -6.098   7.323  -0.250  0.00  0.00    +0.008 A 
ATOM     33  C   UNL     1      -7.045   7.191  -1.247  0.00  0.00    +0.038 A 
ATOM     34  C   UNL     1      -8.137   6.361  -1.058  0.00  0.00    +0.123 A 
ATOM     35  C   UNL     1      -8.274   5.658   0.127  0.00  0.00    +0.038 A 
ATOM     36  C   UNL     1      -7.322   5.787   1.120  0.00  0.00    +0.008 A 
ATOM     37  F   UNL     1      -9.067   6.236  -2.030  0.00  0.00    -0.205 F 
ENDBRANCH  30  31
ENDBRANCH   7  30
TORSDOF 9
