REMARK  Name = ZINC36490902
REMARK  8 active torsions:
REMARK  status: ('A' for Active; 'I' for Inactive)
REMARK    1  A    between atoms: C_1  and  O_2
REMARK    2  A    between atoms: O_2  and  C_3
REMARK    3  A    between atoms: C_6  and  C_9
REMARK    4  A    between atoms: C_9  and  C_11
REMARK    5  A    between atoms: C_9  and  N_20
REMARK    6  A    between atoms: N_13  and  C_14
REMARK    7  A    between atoms: N_20  and  C_21
REMARK    8  A    between atoms: C_27  and  C_29
REMARK                            x       y       z     vdW  Elec       q    Type
REMARK                         _______ _______ _______ _____ _____    ______ ____
ROOT
ATOM      1  C   UNL     1       2.868  -2.707  -4.426  0.00  0.00    +0.192 C 
ENDROOT
BRANCH   1   5
ATOM      2  C   UNL     1       1.062  -0.201  -1.473  0.00  0.00    +0.120 A 
ATOM      3  C   UNL     1       1.568   0.353  -2.640  0.00  0.00    +0.046 A 
ATOM      4  C   UNL     1       2.151  -0.459  -3.593  0.00  0.00    +0.009 A 
ATOM      5  C   UNL     1       2.231  -1.824  -3.385  0.00  0.00    -0.018 A 
ATOM      6  C   UNL     1       1.728  -2.379  -2.223  0.00  0.00    +0.009 A 
ATOM      7  C   UNL     1       1.149  -1.570  -1.264  0.00  0.00    +0.046 A 
BRANCH   2   9
ATOM      8  C   UNL     1       0.433   1.996  -0.817  0.00  0.00    +0.277 C 
ATOM      9  O   UNL     1       0.488   0.596  -0.534  0.00  0.00    -0.495 OA
ENDBRANCH   2   9
ENDBRANCH   1   5
BRANCH   1  10
ATOM     10  C   UNL     1       4.168  -3.253  -3.895  0.00  0.00    +0.238 C 
ATOM     11  O   UNL     1       4.236  -4.406  -3.524  0.00  0.00    -0.273 OA
ATOM     12  N   UNL     1       5.256  -2.461  -3.831  0.00  0.00    -0.311 N 
ATOM     13  H   UNL     1       5.203  -1.539  -4.128  0.00  0.00    +0.149 HD
BRANCH  12  14
ATOM     14  C   UNL     1       6.520  -2.991  -3.315  0.00  0.00    +0.073 C 
ATOM     15  C   UNL     1       6.533  -2.883  -1.789  0.00  0.00    +0.022 C 
ATOM     16  C   UNL     1       7.853  -3.437  -1.249  0.00  0.00    +0.002 C 
ATOM     17  C   UNL     1       9.019  -2.632  -1.828  0.00  0.00    +0.000 C 
ATOM     18  C   UNL     1       9.006  -2.741  -3.354  0.00  0.00    +0.002 C 
ATOM     19  C   UNL     1       7.686  -2.187  -3.893  0.00  0.00    +0.022 C 
ENDBRANCH  12  14
ENDBRANCH   1  10
BRANCH   1  20
ATOM     20  N   UNL     1       1.966  -3.817  -4.743  0.00  0.00    -0.281 N 
ATOM     21  C   UNL     1       1.387  -3.889  -5.958  0.00  0.00    +0.237 C 
ATOM     22  O   UNL     1       0.583  -4.766  -6.196  0.00  0.00    -0.274 OA
BRANCH  21  23
ATOM     23  C   UNL     1       1.738  -2.880  -7.021  0.00  0.00    +0.159 C 
ATOM     24  C   UNL     1       0.858  -1.619  -6.873  0.00  0.00    +0.041 C 
ATOM     25  C   UNL     1      -0.308  -1.934  -7.838  0.00  0.00    +0.098 C 
ATOM     26  C   UNL     1       0.285  -2.907  -8.832  0.00  0.00    +0.214 C 
ATOM     27  O   UNL     1      -0.203  -3.187  -9.907  0.00  0.00    -0.276 OA
ATOM     28  N   UNL     1       1.434  -3.418  -8.352  0.00  0.00    -0.304 N 
ATOM     29  H   UNL     1       1.989  -4.059  -8.824  0.00  0.00    +0.149 HD
ENDBRANCH  21  23
BRANCH  20  30
ATOM     30  C   UNL     1       1.692  -4.848  -3.739  0.00  0.00    +0.077 C 
ATOM     31  C   UNL     1       1.992  -6.228  -4.330  0.00  0.00    +0.022 C 
ATOM     32  C   UNL     1       1.706  -7.305  -3.282  0.00  0.00    +0.002 C 
ATOM     33  C   UNL     1       0.235  -7.236  -2.867  0.00  0.00    +0.000 C 
ATOM     34  C   UNL     1      -0.064  -5.857  -2.276  0.00  0.00    +0.002 C 
ATOM     35  C   UNL     1       0.221  -4.780  -3.324  0.00  0.00    +0.022 C 
ENDBRANCH  20  30
ENDBRANCH   1  20
TORSDOF 7
