REMARK  Name = ZINC01341899
REMARK  9 active torsions:
REMARK  status: ('A' for Active; 'I' for Inactive)
REMARK    1  A    between atoms: C_1  and  N_2
REMARK    2  A    between atoms: C_10  and  C_11
REMARK    3  A    between atoms: C_11  and  C_13
REMARK    4  A    between atoms: C_11  and  N_23
REMARK    5  A    between atoms: N_15  and  C_16
REMARK    6  A    between atoms: C_16  and  C_17
REMARK    7  A    between atoms: N_23  and  C_24
REMARK    8  A    between atoms: C_33  and  C_35
REMARK    9  A    between atoms: C_35  and  N_36
REMARK                            x       y       z     vdW  Elec       q    Type
REMARK                         _______ _______ _______ _____ _____    ______ ____
ROOT
ATOM      1  N   UNL     1       0.950  -1.181   3.308  0.00  0.00    -0.251 N 
ATOM      2  C   UNL     1       2.138  -0.700   3.724  0.00  0.00    +0.242 C 
ATOM      3  O   UNL     1       2.373   0.487   3.646  0.00  0.00    -0.273 OA
ENDROOT
BRANCH   1   4
ATOM      4  C   UNL     1       0.718  -2.563   3.299  0.00  0.00    +0.041 A 
ATOM      5  C   UNL     1       0.329  -3.209   4.465  0.00  0.00    +0.027 A 
ATOM      6  C   UNL     1       0.100  -4.572   4.458  0.00  0.00    +0.051 A 
ATOM      7  C   UNL     1       0.256  -5.297   3.287  0.00  0.00    +0.166 A 
ATOM      8  C   UNL     1       0.645  -4.651   2.116  0.00  0.00    +0.168 A 
ATOM      9  C   UNL     1       0.870  -3.284   2.123  0.00  0.00    +0.073 A 
ATOM     10  O   UNL     1       0.727  -5.575   1.115  0.00  0.00    -0.453 OA
ATOM     11  C   UNL     1       0.783  -6.854   1.775  0.00  0.00    +0.466 C 
ATOM     12  O   UNL     1       0.095  -6.626   3.019  0.00  0.00    -0.453 OA
ENDBRANCH   1   4
BRANCH   1  13
ATOM     13  C   UNL     1      -0.100  -0.259   2.867  0.00  0.00    +0.233 C 
BRANCH  13  23
ATOM     14  C   UNL     1      -0.107   1.569   0.372  0.00  0.00    +0.150 C 
ATOM     15  N   UNL     1      -0.555   0.174   0.402  0.00  0.00    -0.329 N 
ATOM     16  C   UNL     1      -1.044  -0.551  -0.666  0.00  0.00    +0.069 A 
ATOM     17  C   UNL     1      -1.267  -0.267  -2.007  0.00  0.00    +0.028 A 
ATOM     18  C   UNL     1      -1.780  -1.242  -2.835  0.00  0.00    +0.002 A 
ATOM     19  C   UNL     1      -2.075  -2.503  -2.338  0.00  0.00    +0.002 A 
ATOM     20  C   UNL     1      -1.862  -2.801  -1.022  0.00  0.00    +0.030 A 
ATOM     21  C   UNL     1      -1.342  -1.829  -0.164  0.00  0.00    +0.089 A 
ATOM     22  N   UNL     1      -1.027  -1.817   1.157  0.00  0.00    -0.230 NA
ATOM     23  C   UNL     1      -0.561  -0.648   1.486  0.00  0.00    +0.141 A 
ENDBRANCH  13  23
BRANCH  13  24
ATOM     24  C   UNL     1      -1.263  -0.327   3.823  0.00  0.00    +0.242 C 
ATOM     25  O   UNL     1      -1.219  -1.072   4.779  0.00  0.00    -0.273 OA
ATOM     26  N   UNL     1      -2.351   0.441   3.615  0.00  0.00    -0.311 N 
ATOM     27  H   UNL     1      -2.386   1.037   2.851  0.00  0.00    +0.149 HD
BRANCH  26  28
ATOM     28  C   UNL     1      -3.482   0.375   4.545  0.00  0.00    +0.135 C 
BRANCH  28  29
ATOM     29  C   UNL     1      -4.577   1.338   4.083  0.00  0.00    +0.135 C 
ATOM     30  C   UNL     1      -5.721   1.366   5.120  0.00  0.00    +0.035 C 
ATOM     31  C   UNL     1      -6.983   1.435   4.218  0.00  0.00    +0.031 C 
ATOM     32  C   UNL     1      -6.525   0.584   3.006  0.00  0.00    +0.160 C 
ATOM     33  O   UNL     1      -5.129   0.888   2.841  0.00  0.00    -0.375 OA
ENDBRANCH  28  29
ENDBRANCH  26  28
ENDBRANCH  13  24
ENDBRANCH   1  13
BRANCH   2  34
ATOM     34  C   UNL     1       3.176  -1.638   4.284  0.00  0.00    +0.242 C 
BRANCH  34  35
ATOM     35  N   UNL     1       4.326  -0.865   4.762  0.00  0.00    -0.235 N 
ATOM     36  C   UNL     1       5.435  -0.505   4.034  0.00  0.00    +0.090 A 
ATOM     37  C   UNL     1       5.838  -0.715   2.720  0.00  0.00    +0.029 A 
ATOM     38  C   UNL     1       7.033  -0.212   2.288  0.00  0.00    +0.002 A 
ATOM     39  C   UNL     1       7.851   0.506   3.150  0.00  0.00    +0.002 A 
ATOM     40  C   UNL     1       7.479   0.726   4.444  0.00  0.00    +0.032 A 
ATOM     41  C   UNL     1       6.257   0.222   4.912  0.00  0.00    +0.113 A 
ATOM     42  N   UNL     1       5.635   0.275   6.106  0.00  0.00    -0.129 NA
ATOM     43  N   UNL     1       4.508  -0.342   6.051  0.00  0.00    -0.064 NA
ENDBRANCH  34  35
ENDBRANCH   2  34
TORSDOF 8
