REMARK  Name = ZINC12246338
REMARK  9 active torsions:
REMARK  status: ('A' for Active; 'I' for Inactive)
REMARK    1  A    between atoms: C_1  and  C_2
REMARK    2  A    between atoms: C_2  and  C_3
REMARK    3  A    between atoms: C_3  and  C_5
REMARK    4  A    between atoms: C_3  and  N_70
REMARK    5  A    between atoms: C_11  and  C_15
REMARK    6  A    between atoms: C_16  and  N_70
REMARK    7  A    between atoms: N_19  and  C_22
REMARK    8  A    between atoms: C_25  and  C_28
REMARK    9  A    between atoms: N_30  and  C_31
REMARK                            x       y       z     vdW  Elec       q    Type
REMARK                         _______ _______ _______ _____ _____    ______ ____
ROOT
ATOM      1  C   UNL     1      -3.198  -2.577   0.992  0.00  0.00    -0.068 C 
ATOM      2  C   UNL     1      -2.276  -2.956  -0.171  0.00  0.00    +0.003 C 
ATOM      3  C   UNL     1      -0.986  -2.138  -0.080  0.00  0.00    +0.103 C 
ATOM      4  N   UNL     1      -1.308  -0.706  -0.134  0.00  0.00    -0.330 N 
ATOM      5  C   UNL     1      -2.154  -0.309   0.999  0.00  0.00    +0.103 C 
ATOM      6  C   UNL     1      -3.479  -1.073   0.940  0.00  0.00    +0.003 C 
ENDROOT
BRANCH   4   7
ATOM      7  C   UNL     1      -0.151   0.063  -0.186  0.00  0.00    +0.030 A 
ATOM      8  C   UNL     1      -0.242   1.451  -0.242  0.00  0.00    +0.024 A 
ATOM      9  C   UNL     1       0.901   2.215  -0.293  0.00  0.00    +0.015 A 
ATOM     10  C   UNL     1       2.155   1.596  -0.289  0.00  0.00    +0.037 A 
ATOM     11  C   UNL     1       2.243   0.202  -0.232  0.00  0.00    +0.015 A 
ATOM     12  C   UNL     1       1.096  -0.556  -0.181  0.00  0.00    +0.024 A 
BRANCH  10  13
ATOM     13  C   UNL     1       3.382   2.413  -0.345  0.00  0.00    +0.244 C 
ATOM     14  O   UNL     1       4.472   1.873  -0.342  0.00  0.00    -0.270 OA
ATOM     15  N   UNL     1       3.296   3.756  -0.400  0.00  0.00    -0.308 N 
ATOM     16  H   UNL     1       2.427   4.187  -0.403  0.00  0.00    +0.149 HD
BRANCH  15  17
ATOM     17  C   UNL     1       4.515   4.567  -0.455  0.00  0.00    +0.073 C 
ATOM     18  C   UNL     1       5.011   4.875   0.973  0.00  0.00    +0.022 C 
ATOM     19  C   UNL     1       5.552   6.323   0.884  0.00  0.00    +0.002 C 
ATOM     20  C   UNL     1       4.542   7.007  -0.070  0.00  0.00    +0.002 C 
ATOM     21  C   UNL     1       4.217   5.923  -1.118  0.00  0.00    +0.022 C 
ENDBRANCH  15  17
ENDBRANCH  10  13
ENDBRANCH   4   7
BRANCH   1  22
ATOM     22  N   UNL     1      -4.466  -3.321   0.868  0.00  0.00    +0.388 N 
ATOM     23  H   UNL     1      -5.102  -2.807   0.249  0.00  0.00    -0.084 HD
ATOM     24  H   UNL     1      -4.276  -4.249   0.470  0.00  0.00    -0.084 HD
BRANCH  22  25
ATOM     25  C   UNL     1      -5.097  -3.480   2.192  0.00  0.00    -0.004 C 
BRANCH  25  26
ATOM     26  C   UNL     1      -4.496  -4.668   2.898  0.00  0.00    +0.094 A 
ATOM     27  N   UNL     1      -4.465  -4.838   4.247  0.00  0.00    -0.343 N 
ATOM     28  H   UNL     1      -4.830  -4.209   4.933  0.00  0.00    +0.167 HD
ATOM     29  C   UNL     1      -3.836  -6.042   4.494  0.00  0.00    +0.066 A 
ATOM     30  C   UNL     1      -3.513  -6.746   5.646  0.00  0.00    +0.028 A 
ATOM     31  C   UNL     1      -2.864  -7.958   5.547  0.00  0.00    +0.005 A 
ATOM     32  C   UNL     1      -2.532  -8.478   4.304  0.00  0.00    -0.048 A 
ATOM     33  C   UNL     1      -2.842  -7.800   3.159  0.00  0.00    +0.033 A 
ATOM     34  C   UNL     1      -3.500  -6.569   3.236  0.00  0.00    +0.089 A 
ATOM     35  N   UNL     1      -3.936  -5.682   2.306  0.00  0.00    -0.234 NA
ATOM     36  C   UNL     1      -1.823  -9.805   4.216  0.00  0.00    +0.044 C 
ENDBRANCH  25  26
BRANCH  25  38
ATOM     37  C   UNL     1      -7.232  -2.445   1.409  0.00  0.00    +0.002 C 
ATOM     38  C   UNL     1      -6.600  -3.703   2.008  0.00  0.00    -0.012 C 
ENDBRANCH  25  38
ENDBRANCH  22  25
ENDBRANCH   1  22
TORSDOF 7
