REMARK  Name = ZINC33271671
REMARK  7 active torsions:
REMARK  status: ('A' for Active; 'I' for Inactive)
REMARK    1  A    between atoms: C_1  and  C_2
REMARK    2  A    between atoms: C_2  and  O_3
REMARK    3  A    between atoms: O_3  and  C_4
REMARK    4  A    between atoms: C_16  and  C_18
REMARK    5  A    between atoms: C_19  and  C_25
REMARK    6  A    between atoms: C_27  and  C_32
REMARK    7  A    between atoms: C_30  and  C_31
REMARK                            x       y       z     vdW  Elec       q    Type
REMARK                         _______ _______ _______ _____ _____    ______ ____
ROOT
ATOM      1  C   UNL     1      -3.174   7.778   0.099  0.00  0.00    +0.122 A 
ATOM      2  C   UNL     1      -1.782   7.809   0.096  0.00  0.00    +0.048 A 
ATOM      3  C   UNL     1      -1.044   6.668   0.079  0.00  0.00    +0.032 A 
ATOM      4  C   UNL     1      -1.668   5.399   0.065  0.00  0.00    +0.081 A 
ATOM      5  C   UNL     1      -3.082   5.397   0.069  0.00  0.00    +0.044 A 
ATOM      6  C   UNL     1      -3.823   6.552   0.086  0.00  0.00    +0.063 A 
ATOM      7  S   UNL     1      -3.458   3.661   0.048  0.00  0.00    -0.048 S 
ATOM      8  C   UNL     1      -1.772   3.066   0.036  0.00  0.00    +0.196 A 
ATOM      9  N   UNL     1      -1.082   4.181   0.053  0.00  0.00    -0.221 NA
ATOM     10  N   UNL     1      -1.310   1.755   0.018  0.00  0.00    -0.193 N 
ATOM     11  C   UNL     1      -0.017   1.365   0.009  0.00  0.00    +0.135 A 
ATOM     12  C   UNL     1       0.002  -0.004   0.002  0.00  0.00    +0.023 A 
ATOM     13  C   UNL     1      -1.312  -0.451  -0.002  0.00  0.00    +0.066 A 
ATOM     14  N   UNL     1      -2.103   0.596   0.008  0.00  0.00    -0.168 NA
ATOM     15  C   UNL     1      -1.754  -1.891  -0.015  0.00  0.00    +0.068 C 
ATOM     16  C   UNL     1       1.287  -0.793   0.003  0.00  0.00    +0.063 C 
ATOM     17  C   UNL     1       2.369   0.047  -0.681  0.00  0.00    +0.109 C 
ATOM     18  C   UNL     1       2.322   1.477  -0.222  0.00  0.00    +0.219 C 
ATOM     19  O   UNL     1       3.364   2.072  -0.046  0.00  0.00    -0.275 OA
ATOM     20  N   UNL     1       1.156   2.119   0.002  0.00  0.00    -0.270 N 
ATOM     21  H   UNL     1       1.113   3.204   0.176  0.00  0.00    +0.156 HD
ENDROOT
BRANCH  16  22
ATOM     22  C   UNL     1       1.698  -1.093   1.422  0.00  0.00    -0.036 A 
ATOM     23  C   UNL     1       1.945  -0.056   2.303  0.00  0.00    +0.008 A 
ATOM     24  C   UNL     1       2.322  -0.331   3.604  0.00  0.00    -0.050 A 
ATOM     25  C   UNL     1       2.451  -1.642   4.024  0.00  0.00    +0.003 A 
ATOM     26  C   UNL     1       2.203  -2.678   3.144  0.00  0.00    +0.004 A 
ATOM     27  C   UNL     1       1.821  -2.403   1.844  0.00  0.00    -0.047 A 
ATOM     28  C   UNL     1       1.545  -3.532   0.885  0.00  0.00    +0.044 C 
ATOM     29  C   UNL     1       2.592   0.798   4.565  0.00  0.00    +0.044 C 
ENDBRANCH  16  22
BRANCH   1  30
ATOM     30  O   UNL     1      -3.888   8.935   0.115  0.00  0.00    -0.492 OA
BRANCH  30  32
ATOM     31  C   UNL     1      -4.113  11.341   0.144  0.00  0.00    +0.048 C 
ATOM     32  C   UNL     1      -3.145  10.156   0.127  0.00  0.00    +0.225 C 
ENDBRANCH  30  32
ENDBRANCH   1  30
TORSDOF 3
