REMARK  Name = ZINC36548201
REMARK  13 active torsions:
REMARK  status: ('A' for Active; 'I' for Inactive)
REMARK    1  A    between atoms: C_1  and  C_2
REMARK    2  A    between atoms: C_2  and  C_3
REMARK    3  A    between atoms: C_3  and  C_4
REMARK    4  A    between atoms: C_4  and  N_5
REMARK    5  A    between atoms: C_6  and  C_8
REMARK    6  A    between atoms: C_8  and  C_10
REMARK    7  A    between atoms: C_8  and  N_19
REMARK    8  A    between atoms: C_10  and  C_12
REMARK    9  A    between atoms: C_10  and  C_13
REMARK   10  A    between atoms: N_19  and  C_20
REMARK   11  A    between atoms: C_27  and  C_29
REMARK   12  A    between atoms: C_29  and  N_30
REMARK   13  A    between atoms: C_31  and  C_33
REMARK                            x       y       z     vdW  Elec       q    Type
REMARK                         _______ _______ _______ _____ _____    ______ ____
ROOT
ATOM      1  N   UNL     1      -4.894  -5.825   0.723  0.00  0.00    -0.256 N 
ATOM      2  C   UNL     1      -5.837  -6.068   1.654  0.00  0.00    +0.238 C 
ATOM      3  O   UNL     1      -6.292  -5.155   2.309  0.00  0.00    -0.274 OA
ENDROOT
BRANCH   1   4
ATOM      4  C   UNL     1      -4.369  -6.879  -0.034  0.00  0.00    +0.055 A 
ATOM      5  C   UNL     1      -3.216  -7.530   0.386  0.00  0.00    +0.025 A 
ATOM      6  C   UNL     1      -2.700  -8.570  -0.363  0.00  0.00    +0.002 A 
ATOM      7  C   UNL     1      -3.330  -8.963  -1.530  0.00  0.00    +0.002 A 
ATOM      8  C   UNL     1      -4.478  -8.317  -1.952  0.00  0.00    +0.022 A 
ATOM      9  C   UNL     1      -5.003  -7.280  -1.204  0.00  0.00    +0.062 A 
ATOM     10 CL   UNL     1      -6.448  -6.474  -1.729  0.00  0.00    -0.082 Cl
ENDBRANCH   1   4
BRANCH   1  11
ATOM     11  C   UNL     1      -4.418  -4.457   0.502  0.00  0.00    +0.174 C 
BRANCH  11  13
ATOM     12  N   UNL     1      -2.429  -3.138   1.156  0.00  0.00    -0.314 N 
ATOM     13  C   UNL     1      -2.979  -4.349   0.937  0.00  0.00    +0.235 C 
ATOM     14  O   UNL     1      -2.315  -5.353   1.090  0.00  0.00    -0.274 OA
ATOM     15  H   UNL     1      -2.977  -2.340   1.098  0.00  0.00    +0.149 HD
BRANCH  12  16
ATOM     16  C   UNL     1      -1.005  -3.028   1.481  0.00  0.00    +0.104 C 
BRANCH  16  17
ATOM     17  C   UNL     1      -0.603  -1.552   1.518  0.00  0.00    +0.018 C 
BRANCH  17  19
ATOM     18  C   UNL     1       1.292   0.038   1.866  0.00  0.00    +0.004 C 
ATOM     19  C   UNL     1       0.890  -1.438   1.829  0.00  0.00    -0.002 C 
ENDBRANCH  17  19
ENDBRANCH  16  17
ENDBRANCH  12  16
ENDBRANCH  11  13
BRANCH  11  20
ATOM     20  C   UNL     1      -4.528  -4.111  -0.984  0.00  0.00    +0.046 C 
ATOM     21  C   UNL     1      -3.445  -4.859  -1.764  0.00  0.00    +0.015 C 
BRANCH  20  22
ATOM     22  C   UNL     1      -4.347  -2.627  -1.170  0.00  0.00    -0.042 A 
ATOM     23  C   UNL     1      -3.090  -2.064  -1.051  0.00  0.00    +0.004 A 
ATOM     24  C   UNL     1      -2.923  -0.703  -1.221  0.00  0.00    +0.000 A 
ATOM     25  C   UNL     1      -4.013   0.096  -1.511  0.00  0.00    +0.000 A 
ATOM     26  C   UNL     1      -5.270  -0.467  -1.631  0.00  0.00    +0.000 A 
ATOM     27  C   UNL     1      -5.436  -1.829  -1.465  0.00  0.00    +0.004 A 
ENDBRANCH  20  22
ENDBRANCH  11  20
ENDBRANCH   1  11
BRANCH   2  28
ATOM     28  C   UNL     1      -6.327  -7.475   1.880  0.00  0.00    +0.201 C 
BRANCH  28  29
ATOM     29  N   UNL     1      -7.343  -7.475   2.936  0.00  0.00    -0.303 N 
ATOM     30  C   UNL     1      -7.926  -8.630   3.310  0.00  0.00    +0.244 C 
ATOM     31  O   UNL     1      -7.609  -9.673   2.772  0.00  0.00    -0.270 OA
ATOM     32  H   UNL     1      -7.596  -6.642   3.365  0.00  0.00    +0.150 HD
BRANCH  30  33
ATOM     33  C   UNL     1      -8.952  -8.630   4.375  0.00  0.00    +0.037 A 
ATOM     34  C   UNL     1      -9.322  -7.433   4.991  0.00  0.00    +0.013 A 
ATOM     35  C   UNL     1     -10.280  -7.440   5.984  0.00  0.00    +0.001 A 
ATOM     36  C   UNL     1     -10.873  -8.629   6.370  0.00  0.00    +0.000 A 
ATOM     37  C   UNL     1     -10.510  -9.819   5.763  0.00  0.00    +0.001 A 
ATOM     38  C   UNL     1      -9.558  -9.825   4.765  0.00  0.00    +0.013 A 
ENDBRANCH  30  33
ENDBRANCH  28  29
ENDBRANCH   2  28
TORSDOF 11
