REMARK  Name = ZINC58607073
REMARK  16 active torsions:
REMARK  status: ('A' for Active; 'I' for Inactive)
REMARK    1  A    between atoms: C_1  and  C_2
REMARK    2  A    between atoms: C_2  and  C_3
REMARK    3  A    between atoms: C_2  and  C_4
REMARK    4  A    between atoms: C_4  and  C_5
REMARK    5  A    between atoms: C_7  and  C_10
REMARK    6  A    between atoms: C_10  and  S_11
REMARK    7  A    between atoms: S_11  and  C_14
REMARK    8  A    between atoms: C_14  and  C_15
REMARK    9  A    between atoms: N_17  and  C_18
REMARK   10  A    between atoms: N_17  and  C_22
REMARK   11  A    between atoms: C_18  and  C_19
REMARK   12  A    between atoms: C_19  and  C_20
REMARK   13  A    between atoms: C_19  and  C_21
REMARK   14  A    between atoms: C_22  and  C_23
REMARK   15  A    between atoms: C_23  and  C_24
REMARK   16  A    between atoms: C_23  and  C_25
REMARK                            x       y       z     vdW  Elec       q    Type
REMARK                         _______ _______ _______ _____ _____    ______ ____
ROOT
ATOM      1  S   UNL     1      -2.010   3.113   4.882  0.00  0.00    -0.014 S 
ATOM      2  O   UNL     1      -1.453   3.637   3.684  0.00  0.00    -0.173 OA
ATOM      3  O   UNL     1      -3.290   2.499   4.838  0.00  0.00    -0.173 OA
ENDROOT
BRANCH   1   4
ATOM      4  C   UNL     1      -0.831   1.932   5.594  0.00  0.00    +0.264 C 
BRANCH   4   7
ATOM      5  C   UNL     1       0.043  -0.532   3.082  0.00  0.00    +0.172 A 
ATOM      6  N   UNL     1       0.188   0.645   3.701  0.00  0.00    -0.195 NA
ATOM      7  C   UNL     1      -0.681   0.752   4.668  0.00  0.00    +0.248 A 
ATOM      8  O   UNL     1      -1.416  -0.366   4.697  0.00  0.00    -0.336 OA
ATOM      9  N   UNL     1      -0.929  -1.189   3.647  0.00  0.00    -0.061 NA
BRANCH   5  10
ATOM     10  C   UNL     1       0.866  -1.016   1.916  0.00  0.00    +0.082 C 
BRANCH  10  12
ATOM     11  C   UNL     1       0.227   0.950   0.513  0.00  0.00    +0.007 C 
ATOM     12  C   UNL     1       0.205  -0.577   0.608  0.00  0.00    -0.010 C 
ATOM     13  C   UNL     1       0.970  -1.172  -0.575  0.00  0.00    +0.007 C 
ENDBRANCH  10  12
ENDBRANCH   5  10
ENDBRANCH   4   7
ENDBRANCH   1   4
BRANCH   1  14
ATOM     14  C   UNL     1      -2.050   4.436   6.122  0.00  0.00    +0.262 C 
BRANCH  14  15
ATOM     15  C   UNL     1      -3.001   5.516   5.674  0.00  0.00    +0.237 C 
ATOM     16  O   UNL     1      -3.519   5.452   4.580  0.00  0.00    -0.274 OA
ATOM     17  N   UNL     1      -3.276   6.553   6.490  0.00  0.00    -0.300 N 
BRANCH  17  18
ATOM     18  C   UNL     1      -4.289   7.539   6.106  0.00  0.00    +0.110 C 
BRANCH  18  19
ATOM     19  C   UNL     1      -5.656   7.096   6.631  0.00  0.00    +0.000 C 
ATOM     20  C   UNL     1      -6.692   8.183   6.339  0.00  0.00    +0.009 C 
ATOM     21  C   UNL     1      -6.072   5.796   5.938  0.00  0.00    +0.009 C 
ENDBRANCH  18  19
ENDBRANCH  17  18
BRANCH  17  22
ATOM     22  C   UNL     1      -2.560   6.695   7.761  0.00  0.00    +0.110 C 
BRANCH  22  23
ATOM     23  C   UNL     1      -1.391   7.665   7.582  0.00  0.00    +0.000 C 
ATOM     24  C   UNL     1      -0.734   7.927   8.939  0.00  0.00    +0.009 C 
ATOM     25  C   UNL     1      -0.363   7.054   6.628  0.00  0.00    +0.009 C 
ENDBRANCH  22  23
ENDBRANCH  17  22
ENDBRANCH  14  15
ENDBRANCH   1  14
TORSDOF 10
