REMARK  Name = ZINC44884980
REMARK  10 active torsions:
REMARK  status: ('A' for Active; 'I' for Inactive)
REMARK    1  A    between atoms: C_1  and  C_2
REMARK    2  A    between atoms: C_5  and  N_9
REMARK    3  A    between atoms: C_6  and  C_8
REMARK    4  A    between atoms: N_9  and  S_10
REMARK    5  A    between atoms: S_10  and  C_13
REMARK    6  A    between atoms: C_15  and  C_20
REMARK    7  A    between atoms: N_22  and  C_23
REMARK    8  A    between atoms: C_23  and  C_24
REMARK    9  A    between atoms: C_29  and  N_30
REMARK   10  A    between atoms: C_34  and  C_35
REMARK                            x       y       z     vdW  Elec       q    Type
REMARK                         _______ _______ _______ _____ _____    ______ ____
ROOT
ATOM      1  C   UNL     1       0.087  -6.708  -1.079  0.00  0.00    +0.129 A 
ATOM      2  C   UNL     1      -0.986  -7.504  -1.423  0.00  0.00    +0.043 A 
ATOM      3  C   UNL     1      -0.964  -8.867  -1.120  0.00  0.00    +0.039 A 
ATOM      4  C   UNL     1       0.143  -9.415  -0.470  0.00  0.00    +0.014 A 
ATOM      5  C   UNL     1       1.209  -8.609  -0.131  0.00  0.00    +0.023 A 
ATOM      6  C   UNL     1       1.185  -7.258  -0.439  0.00  0.00    +0.068 A 
ATOM      7 CL   UNL     1       2.534  -6.251  -0.016  0.00  0.00    -0.082 Cl
ENDROOT
BRANCH   3   8
ATOM      8  C   UNL     1      -2.110  -9.726  -1.486  0.00  0.00    +0.244 C 
ATOM      9  O   UNL     1      -3.074  -9.246  -2.051  0.00  0.00    -0.270 OA
ATOM     10  N   UNL     1      -2.087 -11.041  -1.192  0.00  0.00    -0.307 N 
ATOM     11  H   UNL     1      -1.318 -11.424  -0.741  0.00  0.00    +0.149 HD
BRANCH  10  12
ATOM     12  C   UNL     1      -3.223 -11.892  -1.555  0.00  0.00    +0.142 C 
BRANCH  12  13
ATOM     13  C   UNL     1      -2.948 -13.309  -1.119  0.00  0.00    -0.006 A 
ATOM     14  C   UNL     1      -2.501 -14.240  -2.036  0.00  0.00    +0.007 A 
ATOM     15  C   UNL     1      -2.249 -15.539  -1.637  0.00  0.00    +0.000 A 
ATOM     16  C   UNL     1      -2.444 -15.911  -0.320  0.00  0.00    +0.002 A 
ATOM     17  C   UNL     1      -2.891 -14.984   0.602  0.00  0.00    +0.026 A 
ATOM     18  C   UNL     1      -3.139 -13.677   0.205  0.00  0.00    +0.052 A 
BRANCH  18  19
ATOM     19  N   UNL     1      -3.588 -12.733   1.140  0.00  0.00    -0.305 N 
ATOM     20  C   UNL     1      -2.888 -12.258   2.219  0.00  0.00    +0.110 A 
ATOM     21  C   UNL     1      -3.688 -11.373   2.844  0.00  0.00    +0.102 A 
ATOM     22  N   UNL     1      -4.846 -11.306   2.170  0.00  0.00    -0.350 N 
ATOM     23  C   UNL     1      -4.796 -12.112   1.144  0.00  0.00    +0.088 A 
ATOM     24  C   UNL     1      -5.896 -12.320   0.135  0.00  0.00    +0.084 C 
ATOM     25  H   UNL     1      -5.601 -10.745   2.406  0.00  0.00    +0.166 HD
ENDBRANCH  18  19
ENDBRANCH  12  13
ENDBRANCH  10  12
ENDBRANCH   3   8
BRANCH   1  26
ATOM     26  S   UNL     1       0.062  -4.987  -1.460  0.00  0.00    +0.093 S 
ATOM     27  O   UNL     1      -1.190  -4.727  -2.079  0.00  0.00    -0.148 OA
ATOM     28  O   UNL     1       1.300  -4.694  -2.091  0.00  0.00    -0.148 OA
BRANCH  26  29
ATOM     29  N   UNL     1       0.058  -4.167  -0.021  0.00  0.00    -0.098 NA
BRANCH  29  34
ATOM     30  C   UNL     1      -0.018   1.503   0.010  0.00  0.00    +0.044 C 
ATOM     31  C   UNL     1       0.002  -0.004   0.002  0.00  0.00    -0.050 A 
ATOM     32  C   UNL     1       0.006  -0.687  -1.200  0.00  0.00    +0.005 A 
ATOM     33  C   UNL     1       0.024  -2.068  -1.212  0.00  0.00    +0.027 A 
ATOM     34  C   UNL     1       0.040  -2.771  -0.013  0.00  0.00    +0.077 A 
ATOM     35  C   UNL     1       0.036  -2.081   1.192  0.00  0.00    -0.026 A 
ATOM     36  C   UNL     1       0.023  -0.700   1.196  0.00  0.00    +0.008 A 
ATOM     37  C   UNL     1       0.052  -2.839   2.495  0.00  0.00    +0.046 C 
ENDBRANCH  29  34
ENDBRANCH  26  29
ENDBRANCH   1  26
TORSDOF 7
