REMARK  Name = ZINC15947635
REMARK  8 active torsions:
REMARK  status: ('A' for Active; 'I' for Inactive)
REMARK    1  A    between atoms: C_1  and  C_2
REMARK    2  A    between atoms: C_11  and  O_32
REMARK    3  A    between atoms: C_13  and  C_16
REMARK    4  A    between atoms: C_19  and  O_24
REMARK    5  A    between atoms: C_20  and  O_22
REMARK    6  A    between atoms: O_22  and  C_23
REMARK    7  A    between atoms: O_24  and  C_25
REMARK    8  A    between atoms: C_25  and  C_27
REMARK                            x       y       z     vdW  Elec       q    Type
REMARK                         _______ _______ _______ _____ _____    ______ ____
ROOT
ATOM      1  C   UNL     1       0.115   1.541   0.102  0.00  0.00    +0.008 C 
ATOM      2  C   UNL     1       0.104   0.011   0.073  0.00  0.00    -0.009 C 
ATOM      3  C   UNL     1      -1.342  -0.492   0.086  0.00  0.00    +0.008 C 
ATOM      4  C   UNL     1      -1.372  -1.997  -0.191  0.00  0.00    +0.037 C 
ATOM      5  C   UNL     1      -0.419  -2.690   0.772  0.00  0.00    -0.023 A 
ATOM      6  C   UNL     1       0.547  -1.998   1.419  0.00  0.00    -0.004 A 
ATOM      7  S   UNL     1       1.385  -3.208   2.407  0.00  0.00    -0.078 S 
ATOM      8  C   UNL     1       0.509  -4.553   1.994  0.00  0.00    +0.080 A 
ATOM      9  C   UNL     1      -0.451  -4.109   1.077  0.00  0.00    +0.068 A 
ATOM     10  C   UNL     1      -1.383  -5.121   0.516  0.00  0.00    +0.220 C 
ATOM     11  N   UNL     1      -1.419  -6.294   1.087  0.00  0.00    -0.223 NA
ATOM     12  C   UNL     1      -0.655  -6.659   2.274  0.00  0.00    +0.224 C 
ATOM     13  N   UNL     1       0.586  -5.871   2.385  0.00  0.00    -0.313 N 
ATOM     14  C   UNL     1       0.833  -0.532   1.310  0.00  0.00    +0.046 C 
ATOM     15  H   UNL     1       1.411  -6.260   2.716  0.00  0.00    +0.149 HD
ENDROOT
BRANCH  12  16
ATOM     16  C   UNL     1      -1.502  -6.415   3.497  0.00  0.00    -0.002 A 
ATOM     17  C   UNL     1      -0.902  -6.072   4.694  0.00  0.00    +0.011 A 
ATOM     18  C   UNL     1      -1.673  -5.848   5.819  0.00  0.00    +0.050 A 
ATOM     19  C   UNL     1      -3.052  -5.967   5.748  0.00  0.00    +0.173 A 
ATOM     20  C   UNL     1      -3.657  -6.313   4.542  0.00  0.00    +0.163 A 
ATOM     21  C   UNL     1      -2.877  -6.531   3.417  0.00  0.00    +0.056 A 
BRANCH  20  22
ATOM     22  O   UNL     1      -5.009  -6.431   4.468  0.00  0.00    -0.491 OA
ATOM     23  C   UNL     1      -5.560  -6.789   3.198  0.00  0.00    +0.277 C 
ENDBRANCH  20  22
BRANCH  19  24
ATOM     24  O   UNL     1      -3.813  -5.748   6.853  0.00  0.00    -0.418 OA
BRANCH  24  25
ATOM     25  C   UNL     1      -4.234  -6.820   7.555  0.00  0.00    +0.351 C 
ATOM     26  O   UNL     1      -3.851  -7.934   7.252  0.00  0.00    -0.244 OA
BRANCH  25  27
ATOM     27  C   UNL     1      -5.152  -6.643   8.682  0.00  0.00    +0.097 A 
ATOM     28  C   UNL     1      -5.694  -7.600   9.527  0.00  0.00    +0.022 A 
ATOM     29  C   UNL     1      -6.534  -7.125  10.505  0.00  0.00    +0.008 A 
ATOM     30  C   UNL     1      -6.771  -5.792  10.580  0.00  0.00    +0.046 A 
ATOM     31  S   UNL     1      -5.858  -5.140   9.331  0.00  0.00    -0.090 S 
ENDBRANCH  25  27
ENDBRANCH  24  25
ENDBRANCH  19  24
ENDBRANCH  12  16
BRANCH  10  32
ATOM     32  O   UNL     1      -2.167  -4.836  -0.549  0.00  0.00    -0.492 OA
ATOM     33  H   UNL     1      -2.733  -5.569  -0.828  0.00  0.00    +0.294 HD
ENDBRANCH  10  32
TORSDOF 6
