REMARK  Name = ZINC39361233
REMARK  10 active torsions:
REMARK  status: ('A' for Active; 'I' for Inactive)
REMARK    1  A    between atoms: C_1  and  C_2
REMARK    2  A    between atoms: C_7  and  C_15
REMARK    3  A    between atoms: C_13  and  C_14
REMARK    4  A    between atoms: C_15  and  C_16
REMARK    5  A    between atoms: C_16  and  N_17
REMARK    6  A    between atoms: N_17  and  S_18
REMARK    7  A    between atoms: S_18  and  C_21
REMARK    8  A    between atoms: C_22  and  C_29
REMARK    9  A    between atoms: C_24  and  C_28
REMARK   10  A    between atoms: C_26  and  C_27
REMARK                            x       y       z     vdW  Elec       q    Type
REMARK                         _______ _______ _______ _____ _____    ______ ____
ROOT
ATOM      1  C   UNL     1      -0.034  -5.313   2.038  0.00  0.00    +0.033 C 
ENDROOT
BRANCH   1   8
ATOM      2  C   UNL     1      -7.042  -5.302  -0.625  0.00  0.00    +0.044 C 
ATOM      3  C   UNL     1      -5.802  -5.387   0.227  0.00  0.00    -0.046 A 
ATOM      4  C   UNL     1      -5.691  -6.432   1.145  0.00  0.00    +0.004 A 
ATOM      5  C   UNL     1      -4.598  -6.562   1.940  0.00  0.00    +0.010 A 
ATOM      6  C   UNL     1      -3.521  -5.579   1.824  0.00  0.00    -0.007 A 
ATOM      7  C   UNL     1      -2.405  -5.669   2.602  0.00  0.00    -0.005 C 
ATOM      8  C   UNL     1      -1.339  -4.607   2.414  0.00  0.00    +0.100 C 
ATOM      9  C   UNL     1      -1.600  -3.535   1.380  0.00  0.00    +0.224 C 
ATOM     10  O   UNL     1      -0.778  -2.659   1.188  0.00  0.00    -0.275 OA
ATOM     11  N   UNL     1      -2.725  -3.554   0.685  0.00  0.00    -0.284 N 
ATOM     12  C   UNL     1      -3.665  -4.486   0.847  0.00  0.00    +0.043 A 
ATOM     13  C   UNL     1      -4.836  -4.446   0.068  0.00  0.00    -0.026 A 
ATOM     14  C   UNL     1      -5.021  -3.347  -0.947  0.00  0.00    +0.046 C 
ATOM     15  H   UNL     1      -2.873  -2.858   0.027  0.00  0.00    +0.155 HD
ENDBRANCH   1   8
BRANCH   1  16
ATOM     16  C   UNL     1       0.414  -6.206   3.197  0.00  0.00    +0.107 C 
BRANCH  16  17
ATOM     17  N   UNL     1       1.725  -6.784   2.889  0.00  0.00    -0.190 NA
ATOM     18  H   UNL     1       2.065  -6.757   1.981  0.00  0.00    +0.148 HD
BRANCH  17  19
ATOM     19  S   UNL     1       2.624  -7.484   4.090  0.00  0.00    +0.059 S 
ATOM     20  O   UNL     1       3.812  -7.968   3.478  0.00  0.00    -0.153 OA
ATOM     21  O   UNL     1       2.646  -6.562   5.171  0.00  0.00    -0.153 OA
BRANCH  19  22
ATOM     22  C   UNL     1       1.734  -8.898   4.651  0.00  0.00    +0.111 A 
ATOM     23  C   UNL     1       2.075 -10.156   4.191  0.00  0.00    -0.024 A 
ATOM     24  C   UNL     1       1.377 -11.265   4.631  0.00  0.00    +0.008 A 
ATOM     25  C   UNL     1       0.339 -11.116   5.531  0.00  0.00    -0.050 A 
ATOM     26  C   UNL     1      -0.002  -9.857   5.991  0.00  0.00    +0.008 A 
ATOM     27  C   UNL     1       0.699  -8.749   5.555  0.00  0.00    -0.024 A 
ATOM     28  C   UNL     1       0.332  -7.378   6.060  0.00  0.00    +0.046 C 
ATOM     29  C   UNL     1      -0.423 -12.325   6.010  0.00  0.00    +0.044 C 
ATOM     30  C   UNL     1       3.208 -10.319   3.210  0.00  0.00    +0.046 C 
ENDBRANCH  19  22
ENDBRANCH  17  19
ENDBRANCH  16  17
ENDBRANCH   1  16
TORSDOF 5
