REMARK  Name = ZINC21350843
REMARK  10 active torsions:
REMARK  status: ('A' for Active; 'I' for Inactive)
REMARK    1  A    between atoms: C_1  and  C_2
REMARK    2  A    between atoms: C_4  and  C_23
REMARK    3  A    between atoms: C_7  and  N_8
REMARK    4  A    between atoms: C_9  and  C_11
REMARK    5  A    between atoms: N_16  and  C_18
REMARK    6  A    between atoms: C_18  and  C_19
REMARK    7  A    between atoms: C_18  and  C_20
REMARK    8  A    between atoms: C_18  and  C_21
REMARK    9  A    between atoms: C_23  and  C_25
REMARK   10  A    between atoms: C_23  and  C_27
REMARK                            x       y       z     vdW  Elec       q    Type
REMARK                         _______ _______ _______ _____ _____    ______ ____
ROOT
ATOM      1  C   UNL     1       2.506  -0.961   1.441  0.00  0.00    +0.045 C 
ATOM      2  C   UNL     1       1.438  -0.085   0.838  0.00  0.00    -0.029 A 
ATOM      3  C   UNL     1       1.647   1.275   0.715  0.00  0.00    +0.011 A 
ATOM      4  C   UNL     1       0.668   2.079   0.162  0.00  0.00    -0.008 A 
ATOM      5  C   UNL     1      -0.524   1.524  -0.271  0.00  0.00    +0.047 A 
ATOM      6  C   UNL     1      -0.739   0.164  -0.150  0.00  0.00    +0.044 A 
ATOM      7  C   UNL     1       0.243  -0.645   0.405  0.00  0.00    +0.038 A 
ATOM      8 CL   UNL     1      -1.748   2.536  -0.971  0.00  0.00    -0.083 Cl
ENDROOT
BRANCH   7   9
ATOM      9  N   UNL     1       0.030  -2.023   0.528  0.00  0.00    -0.285 N 
ATOM     10  C   UNL     1      -1.207  -2.493   0.783  0.00  0.00    +0.222 C 
ATOM     11  O   UNL     1      -2.149  -1.730   0.826  0.00  0.00    -0.275 OA
ATOM     12  H   UNL     1       0.872  -2.722   0.417  0.00  0.00    +0.155 HD
BRANCH  10  13
ATOM     13  C   UNL     1      -1.420  -3.967   1.014  0.00  0.00    +0.101 C 
ATOM     14  C   UNL     1      -1.016  -4.787  -0.234  0.00  0.00    +0.110 C 
ATOM     15  C   UNL     1      -2.305  -4.939  -1.011  0.00  0.00    +0.217 C 
ATOM     16  O   UNL     1      -2.379  -5.270  -2.175  0.00  0.00    -0.276 OA
ATOM     17  N   UNL     1      -3.356  -4.653  -0.224  0.00  0.00    -0.296 N 
ATOM     18  C   UNL     1      -2.925  -4.296   1.133  0.00  0.00    +0.121 C 
BRANCH  17  19
ATOM     19  C   UNL     1      -4.753  -4.692  -0.664  0.00  0.00    +0.029 C 
ATOM     20  C   UNL     1      -4.813  -5.103  -2.136  0.00  0.00    +0.031 C 
ATOM     21  C   UNL     1      -5.526  -5.707   0.181  0.00  0.00    +0.031 C 
ATOM     22  C   UNL     1      -5.380  -3.307  -0.496  0.00  0.00    +0.031 C 
ENDBRANCH  17  19
ENDBRANCH  10  13
ENDBRANCH   7   9
BRANCH   4  23
ATOM     23  C   UNL     1       0.899   3.562   0.029  0.00  0.00    +0.153 C 
BRANCH  23  24
ATOM     24  C   UNL     1       0.990   4.181   1.401  0.00  0.00    -0.026 A 
ATOM     25  C   UNL     1       2.061   3.884   2.223  0.00  0.00    +0.006 A 
ATOM     26  C   UNL     1       2.148   4.456   3.478  0.00  0.00    +0.020 A 
ATOM     27  C   UNL     1       1.156   5.315   3.917  0.00  0.00    +0.041 A 
ATOM     28  C   UNL     1       0.082   5.607   3.096  0.00  0.00    +0.020 A 
ATOM     29  C   UNL     1      -0.001   5.040   1.838  0.00  0.00    +0.006 A 
ATOM     30 CL   UNL     1       1.261   6.028   5.496  0.00  0.00    -0.084 Cl
ENDBRANCH  23  24
BRANCH  23  31
ATOM     31  C   UNL     1       2.155   3.800  -0.700  0.00  0.00    +0.075 C 
ATOM     32  N   UNL     1       3.124   3.983  -1.263  0.00  0.00    -0.196 NA
ENDBRANCH  23  31
ENDBRANCH   4  23
TORSDOF 6
