REMARK  Name = ZINC36249094
REMARK  13 active torsions:
REMARK  status: ('A' for Active; 'I' for Inactive)
REMARK    1  A    between atoms: C_1  and  C_2
REMARK    2  A    between atoms: C_2  and  C_3
REMARK    3  A    between atoms: C_3  and  C_5
REMARK    4  A    between atoms: C_3  and  N_6
REMARK    5  A    between atoms: N_6  and  C_7
REMARK    6  A    between atoms: N_6  and  C_29
REMARK    7  A    between atoms: C_7  and  C_8
REMARK    8  A    between atoms: C_9  and  C_23
REMARK    9  A    between atoms: C_12  and  N_13
REMARK   10  A    between atoms: C_29  and  C_30
REMARK   11  A    between atoms: C_30  and  C_32
REMARK   12  A    between atoms: C_30  and  O_39
REMARK   13  A    between atoms: C_32  and  N_33
REMARK                            x       y       z     vdW  Elec       q    Type
REMARK                         _______ _______ _______ _____ _____    ______ ____
ROOT
ATOM      1  C   UNL     1       1.906   1.032  -0.639  0.00  0.00    +0.025 A 
ATOM      2  C   UNL     1       2.765   1.034  -1.758  0.00  0.00    +0.117 A 
ATOM      3  N   UNL     1       2.097   1.515  -2.781  0.00  0.00    -0.076 NA
ATOM      4  O   UNL     1       0.790   1.834  -2.338  0.00  0.00    -0.339 OA
ATOM      5  C   UNL     1       0.704   1.523  -1.034  0.00  0.00    +0.223 A 
ENDROOT
BRANCH   5   6
ATOM      6  N   UNL     1      -0.412   1.680  -0.233  0.00  0.00    -0.295 N 
ATOM      7  C   UNL     1      -0.710   2.963   0.423  0.00  0.00    +0.113 C 
ATOM      8  C   UNL     1      -2.022   3.493  -0.154  0.00  0.00    +0.054 C 
ATOM      9  C   UNL     1      -3.071   2.413  -0.178  0.00  0.00    -0.041 A 
ATOM     10  C   UNL     1      -4.401   2.809  -0.261  0.00  0.00    +0.004 A 
ATOM     11  C   UNL     1      -5.411   1.871  -0.296  0.00  0.00    +0.000 A 
ATOM     12  C   UNL     1      -5.101   0.524  -0.251  0.00  0.00    +0.000 A 
ATOM     13  C   UNL     1      -3.783   0.129  -0.165  0.00  0.00    +0.005 A 
ATOM     14  C   UNL     1      -2.765   1.072  -0.123  0.00  0.00    -0.027 A 
ATOM     15  C   UNL     1      -1.350   0.575  -0.008  0.00  0.00    +0.143 C 
ENDBRANCH   5   6
BRANCH   2  16
ATOM     16  C   UNL     1       4.176   0.573  -1.777  0.00  0.00    +0.004 A 
ATOM     17  C   UNL     1       5.044   0.938  -0.750  0.00  0.00    +0.010 A 
ATOM     18  C   UNL     1       6.355   0.507  -0.772  0.00  0.00    +0.001 A 
ATOM     19  C   UNL     1       6.807  -0.287  -1.810  0.00  0.00    +0.000 A 
ATOM     20  C   UNL     1       5.950  -0.652  -2.832  0.00  0.00    +0.001 A 
ATOM     21  C   UNL     1       4.636  -0.231  -2.817  0.00  0.00    +0.010 A 
ENDBRANCH   2  16
BRANCH   1  22
ATOM     22  C   UNL     1       2.259   0.560   0.748  0.00  0.00    -0.035 C 
BRANCH  22  23
ATOM     23  N   UNL     1       1.800  -0.824   0.926  0.00  0.00    +0.386 N 
ATOM     24  H   UNL     1       0.821  -0.886   0.693  0.00  0.00    -0.081 HD
BRANCH  23  25
ATOM     25  C   UNL     1       1.998  -1.229   2.324  0.00  0.00    -0.071 C 
ATOM     26  C   UNL     1       0.804  -0.769   3.162  0.00  0.00    -0.013 C 
BRANCH  25  28
ATOM     27  C   UNL     1       4.490  -1.181   2.144  0.00  0.00    +0.002 C 
ATOM     28  C   UNL     1       3.278  -0.588   2.865  0.00  0.00    -0.019 C 
ENDBRANCH  25  28
ENDBRANCH  23  25
BRANCH  23  29
ATOM     29  C   UNL     1       2.571  -1.712   0.045  0.00  0.00    -0.045 C 
BRANCH  29  30
ATOM     30  C   UNL     1       1.870  -3.069  -0.050  0.00  0.00    +0.112 C 
BRANCH  30  31
ATOM     31  O   UNL     1       1.942  -3.732   1.214  0.00  0.00    -0.392 OA
ATOM     32  H   UNL     1       2.839  -3.976   1.480  0.00  0.00    +0.210 HD
ENDBRANCH  30  31
BRANCH  30  33
ATOM     33  C   UNL     1       2.559  -3.925  -1.115  0.00  0.00    +0.114 C 
BRANCH  33  34
ATOM     34  N   UNL     1       1.864  -5.213  -1.232  0.00  0.00    -0.296 NA
ATOM     35  C   UNL     1       2.723  -6.219  -1.873  0.00  0.00    +0.112 C 
ATOM     36  C   UNL     1       1.983  -7.559  -1.922  0.00  0.00    +0.175 C 
ATOM     37  O   UNL     1       0.742  -7.387  -2.612  0.00  0.00    -0.377 OA
ATOM     38  C   UNL     1      -0.120  -6.415  -2.014  0.00  0.00    +0.175 C 
ATOM     39  C   UNL     1       0.599  -5.064  -1.967  0.00  0.00    +0.112 C 
ENDBRANCH  33  34
ENDBRANCH  30  33
ENDBRANCH  29  30
ENDBRANCH  23  29
ENDBRANCH  22  23
ENDBRANCH   1  22
TORSDOF 11
