REMARK  Name = ZINC15184889
REMARK  15 active torsions:
REMARK  status: ('A' for Active; 'I' for Inactive)
REMARK    1  A    between atoms: C_1  and  C_2
REMARK    2  A    between atoms: C_3  and  C_33
REMARK    3  A    between atoms: C_4  and  C_32
REMARK    4  A    between atoms: C_7  and  C_8
REMARK    5  A    between atoms: C_8  and  C_10
REMARK    6  A    between atoms: C_10  and  C_12
REMARK    7  A    between atoms: C_10  and  O_13
REMARK    8  A    between atoms: O_13  and  C_14
REMARK    9  A    between atoms: C_14  and  C_16
REMARK   10  A    between atoms: C_19  and  S_22
REMARK   11  A    between atoms: S_22  and  N_25
REMARK   12  A    between atoms: N_25  and  C_26
REMARK   13  A    between atoms: C_26  and  C_27
REMARK   14  A    between atoms: C_33  and  O_35
REMARK   15  A    between atoms: O_35  and  C_36
REMARK                            x       y       z     vdW  Elec       q    Type
REMARK                         _______ _______ _______ _____ _____    ______ ____
ROOT
ATOM      1  C   UNL     1       3.645   3.188   5.029  0.00  0.00    +0.340 C 
ATOM      2  O   UNL     1       2.900   3.721   5.827  0.00  0.00    -0.245 OA
ENDROOT
BRANCH   1   3
ATOM      3  C   UNL     1       5.090   3.495   5.047  0.00  0.00    +0.059 A 
ATOM      4  C   UNL     1       5.949   2.880   4.135  0.00  0.00    +0.017 A 
ATOM      5  C   UNL     1       7.297   3.175   4.155  0.00  0.00    +0.029 A 
ATOM      6  C   UNL     1       7.798   4.071   5.082  0.00  0.00    +0.105 A 
ATOM      7  C   UNL     1       6.953   4.681   5.992  0.00  0.00    +0.029 A 
ATOM      8  C   UNL     1       5.603   4.399   5.980  0.00  0.00    +0.017 A 
BRANCH   6   9
ATOM      9  S   UNL     1       9.522   4.438   5.104  0.00  0.00    +0.059 S 
ATOM     10  O   UNL     1      10.014   4.154   3.802  0.00  0.00    -0.153 OA
ATOM     11  O   UNL     1       9.657   5.717   5.708  0.00  0.00    -0.153 OA
BRANCH   9  12
ATOM     12  N   UNL     1      10.240   3.353   6.129  0.00  0.00    -0.183 NA
ATOM     13  H   UNL     1      10.657   3.662   6.948  0.00  0.00    +0.148 HD
BRANCH  12  14
ATOM     14  C   UNL     1      10.245   1.926   5.797  0.00  0.00    +0.180 C 
BRANCH  14  15
ATOM     15  C   UNL     1      11.251   1.212   6.665  0.00  0.00    +0.120 A 
ATOM     16  C   UNL     1      11.002   0.663   7.867  0.00  0.00    +0.046 A 
ATOM     17  C   UNL     1      12.219   0.105   8.322  0.00  0.00    +0.041 A 
ATOM     18  C   UNL     1      13.138   0.346   7.370  0.00  0.00    +0.195 A 
ATOM     19  O   UNL     1      12.544   1.012   6.366  0.00  0.00    -0.466 OA
ENDBRANCH  14  15
ENDBRANCH  12  14
ENDBRANCH   9  12
ENDBRANCH   6   9
ENDBRANCH   1   3
BRANCH   1  20
ATOM     20  O   UNL     1       3.153   2.316   4.127  0.00  0.00    -0.450 OA
BRANCH  20  21
ATOM     21  C   UNL     1       1.724   2.061   4.168  0.00  0.00    +0.246 C 
ATOM     22  C   UNL     1       1.441   0.889   5.110  0.00  0.00    +0.061 C 
BRANCH  21  23
ATOM     23  C   UNL     1       1.235   1.722   2.783  0.00  0.00    +0.219 C 
ATOM     24  O   UNL     1       2.020   1.343   1.938  0.00  0.00    -0.287 OA
BRANCH  23  31
ATOM     25  C   UNL     1      -0.013   1.086   0.008  0.00  0.00    +0.047 C 
ATOM     26  C   UNL     1      -0.718   1.572   1.248  0.00  0.00    -0.008 A 
ATOM     27  C   UNL     1      -2.098   1.839   1.381  0.00  0.00    +0.083 A 
ATOM     28  C   UNL     1      -2.309   2.259   2.683  0.00  0.00    +0.028 A 
ATOM     29  N   UNL     1      -1.134   2.266   3.328  0.00  0.00    -0.355 N 
ATOM     30  H   UNL     1      -1.003   2.524   4.254  0.00  0.00    +0.166 HD
ATOM     31  C   UNL     1      -0.139   1.847   2.468  0.00  0.00    +0.090 A 
ATOM     32  C   UNL     1      -3.638   2.651   3.274  0.00  0.00    +0.064 C 
BRANCH  27  33
ATOM     33  C   UNL     1      -3.121   1.694   0.332  0.00  0.00    +0.341 C 
ATOM     34  O   UNL     1      -3.708   0.638   0.197  0.00  0.00    -0.245 OA
BRANCH  33  35
ATOM     35  O   UNL     1      -3.408   2.732  -0.478  0.00  0.00    -0.464 OA
ATOM     36  C   UNL     1      -4.427   2.518  -1.489  0.00  0.00    +0.280 C 
ENDBRANCH  33  35
ENDBRANCH  27  33
ENDBRANCH  23  31
ENDBRANCH  21  23
ENDBRANCH  20  21
ENDBRANCH   1  20
TORSDOF 11
