REMARK  Name = ZINC63181094
REMARK  8 active torsions:
REMARK  status: ('A' for Active; 'I' for Inactive)
REMARK    1  A    between atoms: C_1  and  C_2
REMARK    2  A    between atoms: C_2  and  N_3
REMARK    3  A    between atoms: N_3  and  C_4
REMARK    4  A    between atoms: N_3  and  S_10
REMARK    5  A    between atoms: S_10  and  C_13
REMARK    6  A    between atoms: N_19  and  C_20
REMARK    7  A    between atoms: C_20  and  C_21
REMARK    8  A    between atoms: C_21  and  C_22
REMARK                            x       y       z     vdW  Elec       q    Type
REMARK                         _______ _______ _______ _____ _____    ______ ____
ROOT
ATOM      1  C   UNL     1      -0.431  -1.088  -3.643  0.00  0.00    +0.127 A 
ATOM      2  C   UNL     1      -1.356  -0.131  -4.041  0.00  0.00    +0.034 A 
ATOM      3  C   UNL     1      -1.420   0.207  -5.381  0.00  0.00    +0.045 A 
ATOM      4  C   UNL     1      -0.561  -0.418  -6.279  0.00  0.00    +0.119 A 
ATOM      5  N   UNL     1       0.308  -1.325  -5.860  0.00  0.00    -0.239 NA
ATOM      6  C   UNL     1       0.395  -1.664  -4.587  0.00  0.00    +0.141 A 
ATOM      7  N   UNL     1      -0.615  -0.088  -7.628  0.00  0.00    -0.329 N 
ATOM      8  H   UNL     1      -0.018  -0.521  -8.258  0.00  0.00    +0.147 HD
ENDROOT
BRANCH   1   9
ATOM      9  S   UNL     1      -0.307  -1.555  -1.949  0.00  0.00    +0.076 S 
ATOM     10  O   UNL     1       0.346  -2.817  -1.922  0.00  0.00    -0.150 OA
ATOM     11  O   UNL     1      -1.592  -1.350  -1.376  0.00  0.00    -0.150 OA
BRANCH   9  12
ATOM     12  N   UNL     1       0.715  -0.477  -1.216  0.00  0.00    -0.203 N 
BRANCH  12  13
ATOM     13  C   UNL     1       2.078  -0.763  -1.120  0.00  0.00    +0.051 A 
ATOM     14  C   UNL     1       2.825  -0.987  -2.269  0.00  0.00    +0.025 A 
ATOM     15  C   UNL     1       4.174  -1.268  -2.171  0.00  0.00    +0.002 A 
ATOM     16  C   UNL     1       4.780  -1.328  -0.929  0.00  0.00    +0.000 A 
ATOM     17  C   UNL     1       4.040  -1.105   0.217  0.00  0.00    +0.002 A 
ATOM     18  C   UNL     1       2.692  -0.818   0.125  0.00  0.00    +0.025 A 
ENDBRANCH  12  13
BRANCH  12  20
ATOM     19  C   UNL     1       0.345   1.890  -1.706  0.00  0.00    +0.026 C 
ATOM     20  C   UNL     1       0.188   0.776  -0.669  0.00  0.00    +0.128 C 
ENDBRANCH  12  20
ENDBRANCH   9  12
ENDBRANCH   1   9
BRANCH   7  21
ATOM     21  C   UNL     1      -1.574   0.915  -8.098  0.00  0.00    +0.107 C 
BRANCH  21  22
ATOM     22  C   UNL     1      -1.428   1.089  -9.611  0.00  0.00    +0.052 C 
BRANCH  22  23
ATOM     23  C   UNL     1      -2.414   2.121 -10.096  0.00  0.00    -0.040 C 
ATOM     24  C   UNL     1      -2.183   3.439 -10.290  0.00  0.00    -0.001 A 
ATOM     25  C   UNL     1      -0.990   4.276 -10.115  0.00  0.00    +0.010 A 
ATOM     26  C   UNL     1      -1.067   5.596 -10.397  0.00  0.00    +0.001 A 
ATOM     27  C   UNL     1      -2.256   6.184 -10.851  0.00  0.00    +0.002 A 
ATOM     28  C   UNL     1      -3.393   5.481 -11.037  0.00  0.00    +0.026 A 
ATOM     29  C   UNL     1      -3.425   4.084 -10.771  0.00  0.00    +0.043 A 
ATOM     30  N   UNL     1      -4.388   3.199 -10.871  0.00  0.00    -0.380 N 
ATOM     31  C   UNL     1      -3.862   1.890 -10.469  0.00  0.00    +0.144 C 
ATOM     32  H   UNL     1      -5.294   3.379 -11.165  0.00  0.00    +0.160 HD
ENDBRANCH  22  23
ENDBRANCH  21  22
ENDBRANCH   7  21
TORSDOF 7
