REMARK  Name = ZINC22607025
REMARK  5 active torsions:
REMARK  status: ('A' for Active; 'I' for Inactive)
REMARK    1  A    between atoms: C_1  and  C_2
REMARK    2  A    between atoms: C_2  and  C_3
REMARK    3  A    between atoms: C_3  and  O_4
REMARK    4  A    between atoms: O_4  and  C_5
REMARK    5  A    between atoms: C_8  and  C_11
REMARK                            x       y       z     vdW  Elec       q    Type
REMARK                         _______ _______ _______ _____ _____    ______ ____
ROOT
ATOM      1  C   UNL     1       3.240  -4.426  -5.648  0.00  0.00    +0.092 C 
ATOM      2  C   UNL     1       4.386  -5.256  -5.152  0.00  0.00    +0.069 A 
ATOM      3  C   UNL     1       4.284  -6.610  -5.065  0.00  0.00    +0.112 A 
ATOM      4  N   UNL     1       5.350  -7.335  -4.601  0.00  0.00    -0.315 N 
ATOM      5  H   UNL     1       5.287  -8.300  -4.534  0.00  0.00    +0.170 HD
ATOM      6  C   UNL     1       6.498  -6.702  -4.233  0.00  0.00    +0.200 A 
ATOM      7  N   UNL     1       6.611  -5.393  -4.315  0.00  0.00    -0.177 NA
ATOM      8  C   UNL     1       5.595  -4.639  -4.764  0.00  0.00    +0.280 A 
ATOM      9  O   UNL     1       5.717  -3.425  -4.837  0.00  0.00    -0.265 OA
ATOM     10  N   UNL     1       7.553  -7.440  -3.768  0.00  0.00    -0.301 N 
ATOM     11  C   UNL     1       8.843  -6.800  -3.474  0.00  0.00    +0.108 C 
ATOM     12  C   UNL     1       9.252  -7.152  -2.040  0.00  0.00    +0.019 C 
ATOM     13  C   UNL     1       9.253  -8.674  -1.874  0.00  0.00    +0.003 C 
ATOM     14  C   UNL     1       7.844  -9.217  -2.121  0.00  0.00    +0.019 C 
ATOM     15  C   UNL     1       7.417  -8.886  -3.550  0.00  0.00    +0.108 C 
ATOM     16  N   UNL     1       3.123  -7.242  -5.444  0.00  0.00    -0.304 N 
ATOM     17  C   UNL     1       2.217  -6.611  -6.253  0.00  0.00    +0.017 C 
ATOM     18  C   UNL     1       2.235  -5.270  -6.390  0.00  0.00    +0.024 C 
ATOM     19  C   UNL     1       1.316  -4.617  -7.231  0.00  0.00    +0.162 C 
ATOM     20  O   UNL     1       1.354  -3.407  -7.329  0.00  0.00    -0.292 OA
ATOM     21  C   UNL     1       0.287  -5.389  -8.010  0.00  0.00    +0.080 C 
ATOM     22  C   UNL     1       0.832  -6.790  -8.306  0.00  0.00    +0.014 C 
ATOM     23  C   UNL     1       1.198  -7.454  -6.980  0.00  0.00    +0.051 C 
ATOM     24  H   UNL     1       2.944  -8.143  -5.134  0.00  0.00    +0.153 HD
ENDROOT
BRANCH   1  28
ATOM     25  C   UNL     1       1.315  -2.563  -2.318  0.00  0.00    +0.121 A 
ATOM     26  C   UNL     1       1.886  -1.786  -3.315  0.00  0.00    +0.046 A 
ATOM     27  C   UNL     1       2.507  -2.390  -4.391  0.00  0.00    +0.008 A 
ATOM     28  C   UNL     1       2.562  -3.769  -4.474  0.00  0.00    -0.035 A 
ATOM     29  C   UNL     1       1.994  -4.547  -3.481  0.00  0.00    +0.008 A 
ATOM     30  C   UNL     1       1.376  -3.947  -2.401  0.00  0.00    +0.046 A 
BRANCH  25  31
ATOM     31  O   UNL     1       0.704  -1.971  -1.259  0.00  0.00    -0.492 OA
BRANCH  31  32
ATOM     32  C   UNL     1       0.679  -0.543  -1.239  0.00  0.00    +0.229 C 
BRANCH  32  34
ATOM     33  C   UNL     1      -0.072   1.468   0.040  0.00  0.00    +0.007 C 
ATOM     34  C   UNL     1      -0.046  -0.062   0.019  0.00  0.00    +0.038 C 
ENDBRANCH  32  34
ENDBRANCH  31  32
ENDBRANCH  25  31
ENDBRANCH   1  28
TORSDOF 4
