REMARK  Name = ZINC02387673
REMARK  9 active torsions:
REMARK  status: ('A' for Active; 'I' for Inactive)
REMARK    1  A    between atoms: C_1  and  C_2
REMARK    2  A    between atoms: C_2  and  N_3
REMARK    3  A    between atoms: C_4  and  C_22
REMARK    4  A    between atoms: C_7  and  S_8
REMARK    5  A    between atoms: S_8  and  C_9
REMARK    6  A    between atoms: C_9  and  C_10
REMARK    7  A    between atoms: N_12  and  C_13
REMARK    8  A    between atoms: C_14  and  C_21
REMARK    9  A    between atoms: C_16  and  C_20
REMARK                            x       y       z     vdW  Elec       q    Type
REMARK                         _______ _______ _______ _____ _____    ______ ____
ROOT
ATOM      1  C   UNL     1      -5.312  -4.012  -1.276  0.00  0.00    +0.173 C 
ENDROOT
BRANCH   1   2
ATOM      2  C   UNL     1      -6.720  -4.503  -1.058  0.00  0.00    +0.228 C 
ATOM      3  O   UNL     1      -7.579  -4.265  -1.881  0.00  0.00    -0.275 OA
ATOM      4  N   UNL     1      -7.024  -5.207   0.050  0.00  0.00    -0.283 N 
ATOM      5  H   UNL     1      -6.324  -5.460   0.671  0.00  0.00    +0.155 HD
BRANCH   4   6
ATOM      6  C   UNL     1      -8.351  -5.572   0.304  0.00  0.00    +0.055 A 
ATOM      7  C   UNL     1      -8.822  -6.813  -0.104  0.00  0.00    -0.028 A 
ATOM      8  C   UNL     1     -10.132  -7.170   0.149  0.00  0.00    +0.008 A 
ATOM      9  C   UNL     1     -10.976  -6.294   0.807  0.00  0.00    -0.049 A 
ATOM     10  C   UNL     1     -10.511  -5.057   1.215  0.00  0.00    +0.025 A 
ATOM     11  C   UNL     1      -9.199  -4.695   0.971  0.00  0.00    +0.063 A 
ATOM     12 CL   UNL     1      -8.614  -3.146   1.490  0.00  0.00    -0.082 Cl
ATOM     13  C   UNL     1     -12.404  -6.687   1.081  0.00  0.00    +0.044 C 
ATOM     14  C   UNL     1      -7.905  -7.769  -0.822  0.00  0.00    +0.046 C 
ENDBRANCH   4   6
ENDBRANCH   1   2
BRANCH   1  15
ATOM     15  S   UNL     1      -5.223  -3.107  -2.841  0.00  0.00    -0.077 S 
BRANCH  15  20
ATOM     16  N   UNL     1      -2.868  -1.947  -3.807  0.00  0.00    -0.300 N 
ATOM     17  C   UNL     1      -1.562  -1.847  -3.379  0.00  0.00    +0.200 A 
ATOM     18  N   UNL     1      -1.485  -2.481  -2.229  0.00  0.00    -0.125 NA
ATOM     19  N   UNL     1      -2.637  -2.954  -1.911  0.00  0.00    -0.122 NA
ATOM     20  C   UNL     1      -3.518  -2.661  -2.841  0.00  0.00    +0.192 A 
BRANCH  17  21
ATOM     21  C   UNL     1      -0.461  -1.165  -4.077  0.00  0.00    +0.172 A 
ATOM     22  C   UNL     1       0.740  -0.822  -3.534  0.00  0.00    +0.053 A 
ATOM     23  C   UNL     1       1.481  -0.194  -4.554  0.00  0.00    +0.042 A 
ATOM     24  C   UNL     1       0.707  -0.185  -5.658  0.00  0.00    +0.196 A 
ATOM     25  O   UNL     1      -0.466  -0.772  -5.367  0.00  0.00    -0.460 OA
ENDBRANCH  17  21
BRANCH  16  27
ATOM     26  C   UNL     1      -3.317  -2.437  -6.161  0.00  0.00    +0.027 C 
ATOM     27  C   UNL     1      -3.439  -1.401  -5.041  0.00  0.00    +0.122 C 
ENDBRANCH  16  27
ENDBRANCH  15  20
ENDBRANCH   1  15
TORSDOF 6
