REMARK  Name = ZINC12645013
REMARK  8 active torsions:
REMARK  status: ('A' for Active; 'I' for Inactive)
REMARK    1  A    between atoms: C_1  and  C_2
REMARK    2  A    between atoms: C_2  and  C_4
REMARK    3  A    between atoms: C_2  and  S_15
REMARK    4  A    between atoms: N_6  and  C_7
REMARK    5  A    between atoms: C_10  and  C_13
REMARK    6  A    between atoms: S_15  and  C_16
REMARK    7  A    between atoms: C_19  and  C_28
REMARK    8  A    between atoms: N_20  and  C_21
REMARK                            x       y       z     vdW  Elec       q    Type
REMARK                         _______ _______ _______ _____ _____    ______ ____
ROOT
ATOM      1  C   UNL     1       2.510  -0.042  -1.286  0.00  0.00    +0.197 A 
ATOM      2  N   UNL     1       2.987   0.627  -0.263  0.00  0.00    -0.122 NA
ATOM      3  N   UNL     1       4.238   0.867  -0.433  0.00  0.00    -0.128 NA
ATOM      4  C   UNL     1       4.640   0.365  -1.579  0.00  0.00    +0.171 A 
ATOM      5  N   UNL     1       3.547  -0.239  -2.160  0.00  0.00    -0.270 N 
ENDROOT
BRANCH   4   6
ATOM      6  C   UNL     1       6.006   0.430  -2.135  0.00  0.00    +0.045 A 
ATOM      7  C   UNL     1       6.425  -0.082  -3.321  0.00  0.00    +0.095 A 
ATOM      8  N   UNL     1       7.754   0.178  -3.492  0.00  0.00    -0.360 N 
ATOM      9  H   UNL     1       8.277  -0.090  -4.263  0.00  0.00    +0.165 HD
ATOM     10  C   UNL     1       8.245   0.874  -2.409  0.00  0.00    +0.047 A 
ATOM     11  C   UNL     1       7.179   1.070  -1.515  0.00  0.00    +0.010 A 
ATOM     12  C   UNL     1       7.387   1.758  -0.321  0.00  0.00    +0.011 A 
ATOM     13  C   UNL     1       8.640   2.246  -0.024  0.00  0.00    +0.001 A 
ATOM     14  C   UNL     1       9.693   2.057  -0.908  0.00  0.00    +0.002 A 
ATOM     15  C   UNL     1       9.504   1.372  -2.088  0.00  0.00    +0.026 A 
ENDBRANCH   4   6
BRANCH   5  16
ATOM     16  C   UNL     1       3.503  -0.911  -3.390  0.00  0.00    +0.051 A 
ATOM     17  C   UNL     1       4.217  -2.089  -3.565  0.00  0.00    +0.028 A 
ATOM     18  C   UNL     1       4.172  -2.749  -4.777  0.00  0.00    +0.022 A 
ATOM     19  C   UNL     1       3.417  -2.237  -5.817  0.00  0.00    +0.041 A 
ATOM     20  C   UNL     1       2.705  -1.063  -5.646  0.00  0.00    +0.022 A 
ATOM     21  C   UNL     1       2.741  -0.403  -4.434  0.00  0.00    +0.028 A 
ATOM     22 CL   UNL     1       3.364  -3.069  -7.340  0.00  0.00    -0.084 Cl
ENDBRANCH   5  16
BRANCH   1  23
ATOM     23  S   UNL     1       0.849  -0.592  -1.493  0.00  0.00    -0.073 S 
BRANCH  23  25
ATOM     24  C   UNL     1      -0.007   1.520   0.020  0.00  0.00    +0.029 C 
ATOM     25  C   UNL     1       0.004  -0.010   0.003  0.00  0.00    +0.137 C 
BRANCH  25  26
ATOM     26  C   UNL     1      -1.412  -0.523   0.012  0.00  0.00    +0.230 C 
ATOM     27  O   UNL     1      -1.931  -0.890  -1.021  0.00  0.00    -0.274 OA
ATOM     28  N   UNL     1      -2.103  -0.575   1.169  0.00  0.00    -0.285 N 
ATOM     29  H   UNL     1      -1.668  -0.345   2.004  0.00  0.00    +0.155 HD
BRANCH  28  30
ATOM     30  C   UNL     1      -3.445  -0.959   1.163  0.00  0.00    +0.033 A 
ATOM     31  C   UNL     1      -3.885  -1.929   0.269  0.00  0.00    +0.024 A 
ATOM     32  C   UNL     1      -5.208  -2.310   0.261  0.00  0.00    +0.020 A 
ATOM     33  C   UNL     1      -6.109  -1.721   1.153  0.00  0.00    +0.052 A 
ATOM     34  C   UNL     1      -5.663  -0.747   2.050  0.00  0.00    +0.020 A 
ATOM     35  C   UNL     1      -4.337  -0.375   2.056  0.00  0.00    +0.024 A 
BRANCH  33  36
ATOM     36  C   UNL     1      -7.486  -2.114   1.147  0.00  0.00    +0.099 C 
ATOM     37  N   UNL     1      -8.578  -2.426   1.142  0.00  0.00    -0.191 NA
ENDBRANCH  33  36
ENDBRANCH  28  30
ENDBRANCH  25  26
ENDBRANCH  23  25
ENDBRANCH   1  23
TORSDOF 7
