REMARK  Name = ZINC34791735
REMARK  8 active torsions:
REMARK  status: ('A' for Active; 'I' for Inactive)
REMARK    1  A    between atoms: C_1  and  C_2
REMARK    2  A    between atoms: C_2  and  N_3
REMARK    3  A    between atoms: C_6  and  C_11
REMARK    4  A    between atoms: N_18  and  C_20
REMARK    5  A    between atoms: C_20  and  C_21
REMARK    6  A    between atoms: N_26  and  C_29
REMARK    7  A    between atoms: C_34  and  O_35
REMARK    8  A    between atoms: O_35  and  C_36
REMARK                            x       y       z     vdW  Elec       q    Type
REMARK                         _______ _______ _______ _____ _____    ______ ____
ROOT
ATOM      1  N   UNL     1      -1.372  -0.511   0.012  0.00  0.00    -0.257 N 
ATOM      2  C   UNL     1      -1.968  -0.736   1.220  0.00  0.00    +0.042 C 
ATOM      3  C   UNL     1      -3.231  -1.202   1.301  0.00  0.00    +0.058 C 
ATOM      4  C   UNL     1      -3.968  -1.468   0.004  0.00  0.00    +0.142 C 
ATOM      5  N   UNL     1      -3.238  -1.194  -1.246  0.00  0.00    -0.288 N 
ATOM      6  C   UNL     1      -1.978  -0.724  -1.163  0.00  0.00    +0.307 C 
ATOM      7  O   UNL     1      -1.369  -0.491  -2.189  0.00  0.00    -0.252 OA
ATOM      8  C   UNL     1      -3.615  -1.349   2.650  0.00  0.00    +0.247 C 
ATOM      9  O   UNL     1      -4.704  -1.752   3.015  0.00  0.00    -0.270 OA
ATOM     10  N   UNL     1      -2.620  -0.986   3.480  0.00  0.00    -0.283 N 
ATOM     11  C   UNL     1      -1.487  -0.565   2.644  0.00  0.00    +0.160 C 
ATOM     12  H   UNL     1      -3.656  -1.344  -2.108  0.00  0.00    +0.151 HD
ENDROOT
BRANCH   4  13
ATOM     13  C   UNL     1      -5.222  -0.632   0.001  0.00  0.00    -0.016 A 
ATOM     14  C   UNL     1      -6.441  -1.194   0.332  0.00  0.00    +0.013 A 
ATOM     15  C   UNL     1      -7.549  -0.415   0.320  0.00  0.00    +0.045 A 
ATOM     16  S   UNL     1      -6.883   1.168  -0.169  0.00  0.00    -0.105 S 
ATOM     17  C   UNL     1      -5.171   0.684  -0.319  0.00  0.00    +0.051 A 
ENDBRANCH   4  13
BRANCH   1  19
ATOM     18  C   UNL     1      -0.019   1.526   0.010  0.00  0.00    +0.025 C 
ATOM     19  C   UNL     1       0.002  -0.004   0.002  0.00  0.00    +0.111 C 
ENDBRANCH   1  19
BRANCH  10  20
ATOM     20  C   UNL     1      -2.660  -1.007   4.944  0.00  0.00    +0.204 C 
BRANCH  20  21
ATOM     21  C   UNL     1      -2.182  -2.347   5.441  0.00  0.00    +0.233 C 
ATOM     22  O   UNL     1      -1.841  -3.201   4.649  0.00  0.00    -0.274 OA
ATOM     23  N   UNL     1      -2.132  -2.597   6.764  0.00  0.00    -0.297 N 
ATOM     24  C   UNL     1      -2.547  -1.574   7.734  0.00  0.00    +0.126 C 
ATOM     25  C   UNL     1      -3.630  -2.170   8.643  0.00  0.00    +0.124 C 
ATOM     26  N   UNL     1      -3.160  -3.470   9.141  0.00  0.00    -0.324 N 
ATOM     27  C   UNL     1      -2.745  -4.493   8.171  0.00  0.00    +0.124 C 
ATOM     28  C   UNL     1      -1.668  -3.899   7.263  0.00  0.00    +0.126 C 
BRANCH  26  29
ATOM     29  C   UNL     1      -3.109  -3.730  10.516  0.00  0.00    +0.072 A 
ATOM     30  C   UNL     1      -4.205  -4.284  11.161  0.00  0.00    +0.027 A 
ATOM     31  C   UNL     1      -4.152  -4.539  12.518  0.00  0.00    +0.002 A 
ATOM     32  C   UNL     1      -3.007  -4.244  13.236  0.00  0.00    +0.004 A 
ATOM     33  C   UNL     1      -1.911  -3.692  12.600  0.00  0.00    +0.047 A 
ATOM     34  C   UNL     1      -1.954  -3.437  11.239  0.00  0.00    +0.141 A 
BRANCH  34  35
ATOM     35  O   UNL     1      -0.875  -2.899  10.611  0.00  0.00    -0.493 OA
ATOM     36  C   UNL     1       0.274  -2.625  11.416  0.00  0.00    +0.277 C 
ENDBRANCH  34  35
ENDBRANCH  26  29
ENDBRANCH  20  21
ENDBRANCH  10  20
TORSDOF 6
