REMARK  Name = ZINC12486342
REMARK  11 active torsions:
REMARK  status: ('A' for Active; 'I' for Inactive)
REMARK    1  A    between atoms: C_1  and  C_2
REMARK    2  A    between atoms: C_2  and  C_4
REMARK    3  A    between atoms: C_8  and  N_10
REMARK    4  A    between atoms: N_10  and  C_11
REMARK    5  A    between atoms: C_11  and  C_13
REMARK    6  A    between atoms: C_11  and  C_19
REMARK    7  A    between atoms: N_21  and  C_22
REMARK    8  A    between atoms: C_22  and  C_23
REMARK    9  A    between atoms: C_29  and  C_31
REMARK   10  A    between atoms: C_31  and  N_32
REMARK   11  A    between atoms: C_33  and  C_35
REMARK                            x       y       z     vdW  Elec       q    Type
REMARK                         _______ _______ _______ _____ _____    ______ ____
ROOT
ATOM      1  N   UNL     1      -2.435  -4.272   0.574  0.00  0.00    -0.254 N 
ATOM      2  C   UNL     1      -1.332  -5.045   0.615  0.00  0.00    +0.238 C 
ATOM      3  O   UNL     1      -1.394  -6.208   0.274  0.00  0.00    -0.274 OA
ENDROOT
BRANCH   1   8
ATOM      4  C   UNL     1      -2.813  -1.065   2.356  0.00  0.00    +0.019 A 
ATOM      5  C   UNL     1      -2.159  -0.201   1.471  0.00  0.00    +0.011 A 
ATOM      6  C   UNL     1      -1.607  -0.694   0.308  0.00  0.00    +0.002 A 
ATOM      7  C   UNL     1      -1.698  -2.042   0.010  0.00  0.00    +0.023 A 
ATOM      8  C   UNL     1      -2.346  -2.910   0.881  0.00  0.00    +0.038 A 
ATOM      9  C   UNL     1      -2.899  -2.427   2.057  0.00  0.00    +0.035 A 
BRANCH   4  11
ATOM     10  C   UNL     1      -3.309   0.927   3.917  0.00  0.00    +0.091 C 
ATOM     11  C   UNL     1      -3.404  -0.542   3.598  0.00  0.00    +0.160 C 
ATOM     12  O   UNL     1      -3.966  -1.294   4.365  0.00  0.00    -0.292 OA
ENDBRANCH   4  11
ENDBRANCH   1   8
BRANCH   1  13
ATOM     13  C   UNL     1      -3.727  -4.857   0.208  0.00  0.00    +0.197 C 
BRANCH  13  14
ATOM     14  C   UNL     1      -4.815  -3.833   0.401  0.00  0.00    -0.018 A 
ATOM     15  C   UNL     1      -4.740  -2.614  -0.247  0.00  0.00    +0.006 A 
ATOM     16  C   UNL     1      -5.738  -1.675  -0.071  0.00  0.00    +0.000 A 
ATOM     17  C   UNL     1      -6.812  -1.954   0.754  0.00  0.00    +0.000 A 
ATOM     18  C   UNL     1      -6.888  -3.173   1.401  0.00  0.00    +0.000 A 
ATOM     19  C   UNL     1      -5.892  -4.114   1.221  0.00  0.00    +0.006 A 
ENDBRANCH  13  14
BRANCH  13  20
ATOM     20  C   UNL     1      -3.693  -5.288  -1.236  0.00  0.00    +0.239 C 
ATOM     21  O   UNL     1      -2.688  -5.123  -1.894  0.00  0.00    -0.273 OA
ATOM     22  N   UNL     1      -4.779  -5.858  -1.795  0.00  0.00    -0.311 N 
ATOM     23  H   UNL     1      -5.582  -5.990  -1.269  0.00  0.00    +0.149 HD
BRANCH  22  24
ATOM     24  C   UNL     1      -4.745  -6.277  -3.199  0.00  0.00    +0.135 C 
BRANCH  24  25
ATOM     25  C   UNL     1      -6.094  -6.888  -3.581  0.00  0.00    +0.135 C 
ATOM     26  C   UNL     1      -6.069  -7.370  -5.053  0.00  0.00    +0.035 C 
ATOM     27  C   UNL     1      -7.171  -8.463  -5.025  0.00  0.00    +0.031 C 
ATOM     28  C   UNL     1      -7.014  -9.050  -3.605  0.00  0.00    +0.160 C 
ATOM     29  O   UNL     1      -6.345  -8.069  -2.802  0.00  0.00    -0.375 OA
ENDBRANCH  24  25
ENDBRANCH  22  24
ENDBRANCH  13  20
ENDBRANCH   1  13
BRANCH   2  30
ATOM     30  C   UNL     1      -0.022  -4.466   1.083  0.00  0.00    +0.201 C 
BRANCH  30  31
ATOM     31  N   UNL     1       1.032  -5.475   0.955  0.00  0.00    -0.300 N 
ATOM     32  C   UNL     1       2.296  -5.179   1.318  0.00  0.00    +0.280 C 
ATOM     33  O   UNL     1       2.562  -4.074   1.751  0.00  0.00    -0.267 OA
ATOM     34  H   UNL     1       0.820  -6.357   0.610  0.00  0.00    +0.150 HD
BRANCH  32  35
ATOM     35  C   UNL     1       3.351  -6.189   1.190  0.00  0.00    +0.189 A 
ATOM     36  C   UNL     1       4.665  -6.024   1.523  0.00  0.00    +0.054 A 
ATOM     37  C   UNL     1       5.309  -7.239   1.239  0.00  0.00    +0.042 A 
ATOM     38  C   UNL     1       4.372  -8.081   0.750  0.00  0.00    +0.196 A 
ATOM     39  O   UNL     1       3.193  -7.447   0.727  0.00  0.00    -0.458 OA
ENDBRANCH  32  35
ENDBRANCH  30  31
ENDBRANCH   2  30
TORSDOF 10
