REMARK  Name = ZINC11231197
REMARK  10 active torsions:
REMARK  status: ('A' for Active; 'I' for Inactive)
REMARK    1  A    between atoms: C_1  and  C_2
REMARK    2  A    between atoms: C_8  and  N_10
REMARK    3  A    between atoms: C_14  and  C_16
REMARK    4  A    between atoms: C_16  and  S_17
REMARK    5  A    between atoms: S_17  and  C_18
REMARK    6  A    between atoms: N_30  and  C_31
REMARK    7  A    between atoms: C_31  and  C_32
REMARK    8  A    between atoms: C_32  and  C_33
REMARK    9  A    between atoms: C_33  and  O_34
REMARK   10  A    between atoms: O_34  and  C_35
REMARK                            x       y       z     vdW  Elec       q    Type
REMARK                         _______ _______ _______ _____ _____    ______ ____
ROOT
ATOM      1  C   UNL     1       4.017   1.960  -0.026  0.00  0.00    +0.173 A 
ATOM      2  N   UNL     1       3.771   3.255  -0.017  0.00  0.00    -0.216 NA
ATOM      3  C   UNL     1       4.767   4.135  -0.021  0.00  0.00    +0.117 A 
ATOM      4  C   UNL     1       6.112   3.738  -0.036  0.00  0.00    +0.076 A 
ATOM      5  C   UNL     1       7.106   4.824  -0.040  0.00  0.00    -0.023 A 
ATOM      6  C   UNL     1       6.632   6.080  -0.026  0.00  0.00    -0.004 A 
ATOM      7  S   UNL     1       4.863   5.905  -0.012  0.00  0.00    -0.073 S 
ATOM      8  C   UNL     1       7.736   7.104  -0.028  0.00  0.00    +0.043 C 
ATOM      9  C   UNL     1       8.996   6.316   0.391  0.00  0.00    +0.010 C 
ATOM     10  C   UNL     1       8.636   4.886  -0.060  0.00  0.00    +0.037 C 
ATOM     11  C   UNL     1       6.350   2.327  -0.046  0.00  0.00    +0.263 A 
ATOM     12  O   UNL     1       7.489   1.892  -0.059  0.00  0.00    -0.267 OA
ATOM     13  N   UNL     1       5.297   1.489  -0.035  0.00  0.00    -0.287 N 
ENDROOT
BRANCH   1  14
ATOM     14  S   UNL     1       2.672   0.822  -0.019  0.00  0.00    -0.078 S 
BRANCH  14  15
ATOM     15  C   UNL     1       1.280   1.979   0.001  0.00  0.00    +0.173 C 
BRANCH  15  20
ATOM     16  N   UNL     1      -3.525   1.834   0.029  0.00  0.00    -0.296 N 
ATOM     17  C   UNL     1      -2.349   1.176   0.020  0.00  0.00    +0.306 C 
ATOM     18  O   UNL     1      -2.332  -0.039   0.013  0.00  0.00    -0.252 OA
ATOM     19  N   UNL     1      -1.191   1.866   0.018  0.00  0.00    -0.239 N 
ATOM     20  C   UNL     1      -0.014   1.208   0.009  0.00  0.00    +0.231 C 
ATOM     21  O   UNL     1       0.002  -0.004   0.002  0.00  0.00    -0.274 OA
ATOM     22  H   UNL     1      -3.538   2.804   0.034  0.00  0.00    +0.151 HD
ATOM     23  H   UNL     1      -1.204   2.836   0.023  0.00  0.00    +0.159 HD
BRANCH  16  30
ATOM     24  C   UNL     1      -5.526   2.327  -2.006  0.00  0.00    +0.009 C 
ATOM     25  C   UNL     1      -5.893   1.950  -0.569  0.00  0.00    +0.006 C 
ATOM     26  C   UNL     1      -6.056   3.222   0.266  0.00  0.00    +0.005 C 
ATOM     27  C   UNL     1      -6.423   2.845   1.703  0.00  0.00    +0.000 C 
ATOM     28  C   UNL     1      -5.313   1.980   2.303  0.00  0.00    +0.002 C 
ATOM     29  C   UNL     1      -5.150   0.708   1.467  0.00  0.00    +0.022 C 
ATOM     30  C   UNL     1      -4.783   1.085   0.031  0.00  0.00    +0.077 C 
ENDBRANCH  16  30
ENDBRANCH  15  20
ENDBRANCH  14  15
ENDBRANCH   1  14
BRANCH  13  31
ATOM     31  C   UNL     1       5.530   0.042  -0.038  0.00  0.00    +0.129 C 
BRANCH  31  32
ATOM     32  C   UNL     1       5.602  -0.459  -1.482  0.00  0.00    +0.050 C 
BRANCH  32  33
ATOM     33  C   UNL     1       5.845  -1.970  -1.486  0.00  0.00    +0.161 C 
BRANCH  33  34
ATOM     34  O   UNL     1       5.912  -2.438  -2.834  0.00  0.00    -0.383 OA
ATOM     35  C   UNL     1       6.138  -3.845  -2.950  0.00  0.00    +0.193 C 
ENDBRANCH  33  34
ENDBRANCH  32  33
ENDBRANCH  31  32
ENDBRANCH  13  31
TORSDOF 8
