REMARK  Name = ZINC08920518
REMARK  15 active torsions:
REMARK  status: ('A' for Active; 'I' for Inactive)
REMARK    1  A    between atoms: C_1  and  C_2
REMARK    2  A    between atoms: C_2  and  N_67
REMARK    3  A    between atoms: C_3  and  C_4
REMARK    4  A    between atoms: C_3  and  N_67
REMARK    5  A    between atoms: C_5  and  C_6
REMARK    6  A    between atoms: C_5  and  N_67
REMARK    7  A    between atoms: C_6  and  C_7
REMARK    8  A    between atoms: C_7  and  N_8
REMARK    9  A    between atoms: C_9  and  C_25
REMARK   10  A    between atoms: C_12  and  C_13
REMARK   11  A    between atoms: C_12  and  O_20
REMARK   12  A    between atoms: C_28  and  O_31
REMARK   13  A    between atoms: O_31  and  C_32
REMARK   14  A    between atoms: C_32  and  C_33
REMARK   15  A    between atoms: C_32  and  C_34
REMARK                            x       y       z     vdW  Elec       q    Type
REMARK                         _______ _______ _______ _____ _____    ______ ____
ROOT
ATOM      1  N   UNL     1      -0.718   3.514   0.927  0.00  0.00    -0.284 N 
ATOM      2  C   UNL     1      -1.052   2.353   0.098  0.00  0.00    +0.144 C 
ATOM      3  C   UNL     1      -1.329   2.877  -1.292  0.00  0.00    +0.071 C 
ATOM      4  C   UNL     1      -1.684   2.137  -2.402  0.00  0.00    +0.133 C 
ATOM      5  C   UNL     1      -1.153   4.268  -1.226  0.00  0.00    +0.249 C 
ATOM      6  O   UNL     1      -1.287   5.049  -2.151  0.00  0.00    -0.282 OA
ATOM      7  C   UNL     1      -0.773   4.622   0.168  0.00  0.00    +0.288 C 
ATOM      8  O   UNL     1      -0.547   5.748   0.563  0.00  0.00    -0.266 OA
ENDROOT
BRANCH   4   9
ATOM      9  C   UNL     1      -2.033   2.818  -3.660  0.00  0.00    +0.017 A 
ATOM     10  C   UNL     1      -2.947   3.878  -3.654  0.00  0.00    +0.014 A 
ATOM     11  C   UNL     1      -3.265   4.515  -4.834  0.00  0.00    +0.039 A 
ATOM     12  C   UNL     1      -2.691   4.100  -6.027  0.00  0.00    +0.123 A 
ATOM     13  C   UNL     1      -1.789   3.046  -6.039  0.00  0.00    +0.039 A 
ATOM     14  C   UNL     1      -1.458   2.405  -4.866  0.00  0.00    +0.014 A 
ATOM     15  F   UNL     1      -3.011   4.725  -7.181  0.00  0.00    -0.205 F 
ENDBRANCH   4   9
BRANCH   2  16
ATOM     16  C   UNL     1       0.107   1.391   0.065  0.00  0.00    -0.022 A 
ATOM     17  C   UNL     1       1.387   1.861  -0.163  0.00  0.00    +0.009 A 
ATOM     18  C   UNL     1       2.451   0.980  -0.200  0.00  0.00    +0.046 A 
ATOM     19  C   UNL     1       2.234  -0.376  -0.007  0.00  0.00    +0.121 A 
ATOM     20  C   UNL     1       0.949  -0.845   0.222  0.00  0.00    +0.046 A 
ATOM     21  C   UNL     1      -0.112   0.039   0.258  0.00  0.00    +0.009 A 
BRANCH  19  22
ATOM     22  O   UNL     1       3.279  -1.245  -0.044  0.00  0.00    -0.489 OA
BRANCH  22  23
ATOM     23  C   UNL     1       2.969  -2.637   0.045  0.00  0.00    +0.167 C 
ATOM     24  C   UNL     1       4.087  -3.451  -0.611  0.00  0.00    +0.051 C 
ATOM     25  C   UNL     1       2.841  -3.038   1.515  0.00  0.00    +0.051 C 
ENDBRANCH  22  23
ENDBRANCH  19  22
ENDBRANCH   2  16
BRANCH   4  26
ATOM     26  O   UNL     1      -1.710   0.789  -2.335  0.00  0.00    -0.506 OA
ATOM     27  H   UNL     1      -1.985   0.416  -3.221  0.00  0.00    +0.292 HD
ENDBRANCH   4  26
BRANCH   1  28
ATOM     28  C   UNL     1      -0.377   3.473   2.352  0.00  0.00    +0.107 C 
BRANCH  28  29
ATOM     29  C   UNL     1       1.144   3.442   2.512  0.00  0.00    +0.000 C 
BRANCH  29  30
ATOM     30  C   UNL     1       1.498   3.309   3.994  0.00  0.00    -0.077 C 
BRANCH  30  31
ATOM     31  N   UNL     1       2.967   3.378   4.139  0.00  0.00    +0.379 N 
ATOM     32  H   UNL     1       3.402   2.827   3.389  0.00  0.00    -0.082 HD
BRANCH  31  34
ATOM     33  C   UNL     1       4.948   4.802   3.956  0.00  0.00    -0.017 C 
ATOM     34  C   UNL     1       3.420   4.781   4.028  0.00  0.00    -0.082 C 
ENDBRANCH  31  34
BRANCH  31  35
ATOM     35  C   UNL     1       3.374   2.818   5.445  0.00  0.00    -0.082 C 
ATOM     36  C   UNL     1       3.322   1.291   5.360  0.00  0.00    -0.017 C 
ENDBRANCH  31  35
ENDBRANCH  30  31
ENDBRANCH  29  30
ENDBRANCH  28  29
ENDBRANCH   1  28
TORSDOF 11
