REMARK  Name = ZINC34830170
REMARK  13 active torsions:
REMARK  status: ('A' for Active; 'I' for Inactive)
REMARK    1  A    between atoms: C_1  and  C_2
REMARK    2  A    between atoms: C_2  and  C_3
REMARK    3  A    between atoms: C_3  and  C_4
REMARK    4  A    between atoms: C_4  and  C_5
REMARK    5  A    between atoms: C_5  and  C_7
REMARK    6  A    between atoms: C_5  and  C_9
REMARK    7  A    between atoms: C_7  and  C_8
REMARK    8  A    between atoms: C_16  and  C_18
REMARK    9  A    between atoms: C_19  and  C_21
REMARK   10  A    between atoms: C_21  and  C_22
REMARK   11  A    between atoms: C_22  and  N_23
REMARK   12  A    between atoms: C_31  and  C_33
REMARK   13  A    between atoms: C_36  and  C_39
REMARK                            x       y       z     vdW  Elec       q    Type
REMARK                         _______ _______ _______ _____ _____    ______ ____
ROOT
ATOM      1  C   UNL     1      -8.380  -6.410   0.807  0.00  0.00    +0.077 C 
ENDROOT
BRANCH   1  11
ATOM      2  C   UNL     1      -2.924  -3.554   0.481  0.00  0.00    +0.219 C 
ATOM      3  O   UNL     1      -1.800  -3.988   0.625  0.00  0.00    -0.275 OA
ATOM      4  N   UNL     1      -3.952  -4.401   0.277  0.00  0.00    -0.295 N 
ATOM      5  C   UNL     1      -5.331  -3.899   0.206  0.00  0.00    +0.127 C 
ATOM      6  C   UNL     1      -6.180  -4.651   1.238  0.00  0.00    +0.127 C 
ATOM      7  N   UNL     1      -5.942  -6.093   1.082  0.00  0.00    -0.298 N 
ATOM      8  C   UNL     1      -4.563  -6.595   1.153  0.00  0.00    +0.130 C 
ATOM      9  C   UNL     1      -3.713  -5.842   0.115  0.00  0.00    +0.090 C 
ATOM     10  C   UNL     1      -2.231  -6.146   0.344  0.00  0.00    +0.029 C 
ATOM     11  C   UNL     1      -6.971  -6.940   0.878  0.00  0.00    +0.214 C 
ATOM     12  O   UNL     1      -6.762  -8.127   0.750  0.00  0.00    -0.276 OA
BRANCH   2  13
ATOM     13  C   UNL     1      -3.170  -2.068   0.531  0.00  0.00    +0.075 C 
BRANCH  13  14
ATOM     14  C   UNL     1      -1.953  -1.331  -0.032  0.00  0.00    +0.009 C 
ATOM     15  C   UNL     1      -1.791  -1.672  -1.515  0.00  0.00    +0.004 C 
ENDBRANCH  13  14
BRANCH  13  16
ATOM     16  C   UNL     1      -3.401  -1.638   1.981  0.00  0.00    +0.013 C 
BRANCH  16  17
ATOM     17  C   UNL     1      -3.773  -0.154   2.019  0.00  0.00    +0.000 C 
BRANCH  17  19
ATOM     18  C   UNL     1      -4.377   1.760   3.507  0.00  0.00    +0.004 C 
ATOM     19  C   UNL     1      -4.004   0.276   3.469  0.00  0.00    -0.003 C 
ENDBRANCH  17  19
ENDBRANCH  16  17
ENDBRANCH  13  16
ENDBRANCH   2  13
ENDBRANCH   1  11
BRANCH   1  20
ATOM     20  C   UNL     1      -9.349  -7.570   0.570  0.00  0.00    -0.068 C 
BRANCH  20  21
ATOM     21  N   UNL     1     -10.723  -7.055   0.501  0.00  0.00    +0.388 N 
ATOM     22  C   UNL     1     -10.846  -6.161  -0.658  0.00  0.00    -0.072 C 
ATOM     23  C   UNL     1     -12.163  -5.373  -0.541  0.00  0.00    +0.024 C 
ATOM     24  C   UNL     1     -13.242  -6.349  -0.204  0.00  0.00    -0.010 A 
ATOM     25  C   UNL     1     -13.070  -7.633   0.220  0.00  0.00    -0.047 A 
ATOM     26  C   UNL     1     -14.227  -8.365   0.472  0.00  0.00    +0.010 A 
ATOM     27  C   UNL     1     -15.441  -7.794   0.296  0.00  0.00    +0.045 A 
ATOM     28  S   UNL     1     -15.000  -6.149  -0.248  0.00  0.00    -0.101 S 
ATOM     29  C   UNL     1     -11.657  -8.182   0.393  0.00  0.00    -0.006 C 
ATOM     30  H   UNL     1     -10.925  -6.536   1.343  0.00  0.00    -0.080 HD
BRANCH  29  31
ATOM     31  C   UNL     1     -11.589  -9.016   1.646  0.00  0.00    -0.057 A 
ATOM     32  C   UNL     1     -11.484  -8.402   2.881  0.00  0.00    +0.002 A 
ATOM     33  C   UNL     1     -11.422  -9.168   4.030  0.00  0.00    +0.003 A 
ATOM     34  C   UNL     1     -11.465 -10.547   3.945  0.00  0.00    -0.050 A 
ATOM     35  C   UNL     1     -11.571 -11.160   2.711  0.00  0.00    +0.003 A 
ATOM     36  C   UNL     1     -11.637 -10.395   1.562  0.00  0.00    +0.002 A 
ATOM     37  C   UNL     1     -11.396 -11.381   5.198  0.00  0.00    +0.044 C 
ENDBRANCH  29  31
ENDBRANCH  20  21
ENDBRANCH   1  20
TORSDOF 9
