REMARK  Name = ZINC60243349
REMARK  10 active torsions:
REMARK  status: ('A' for Active; 'I' for Inactive)
REMARK    1  A    between atoms: C_1  and  C_2
REMARK    2  A    between atoms: C_2  and  C_4
REMARK    3  A    between atoms: C_2  and  N_16
REMARK    4  A    between atoms: C_6  and  C_9
REMARK    5  A    between atoms: C_17  and  C_19
REMARK    6  A    between atoms: C_19  and  C_21
REMARK    7  A    between atoms: C_19  and  N_24
REMARK    8  A    between atoms: C_21  and  C_22
REMARK    9  A    between atoms: C_21  and  C_23
REMARK   10  A    between atoms: C_25  and  C_27
REMARK                            x       y       z     vdW  Elec       q    Type
REMARK                         _______ _______ _______ _____ _____    ______ ____
ROOT
ATOM      1  N   UNL     1       0.711  -0.489   1.189  0.00  0.00    -0.303 N 
ATOM      2  C   UNL     1       2.054  -0.600   1.174  0.00  0.00    +0.234 C 
ATOM      3  O   UNL     1       2.676  -0.297   0.177  0.00  0.00    -0.274 OA
ATOM      4  H   UNL     1       0.213  -0.731   1.986  0.00  0.00    +0.150 HD
ENDROOT
BRANCH   1   6
ATOM      5  C   UNL     1      -0.019   1.526   0.010  0.00  0.00    +0.038 C 
ATOM      6  C   UNL     1       0.002  -0.004   0.002  0.00  0.00    +0.159 C 
BRANCH   6   7
ATOM      7  C   UNL     1      -1.412  -0.526   0.013  0.00  0.00    +0.248 A 
ATOM      8  N   UNL     1      -2.039  -1.045  -1.004  0.00  0.00    -0.190 NA
ATOM      9  C   UNL     1      -3.284  -1.405  -0.642  0.00  0.00    +0.202 A 
ATOM     10  N   UNL     1      -3.453  -1.111   0.624  0.00  0.00    -0.056 NA
ATOM     11  O   UNL     1      -2.233  -0.539   1.071  0.00  0.00    -0.336 OA
BRANCH   9  12
ATOM     12  C   UNL     1      -4.296  -2.030  -1.528  0.00  0.00    +0.023 A 
ATOM     13  C   UNL     1      -3.988  -2.298  -2.861  0.00  0.00    +0.014 A 
ATOM     14  C   UNL     1      -4.932  -2.880  -3.682  0.00  0.00    +0.039 A 
ATOM     15  C   UNL     1      -6.185  -3.199  -3.183  0.00  0.00    +0.123 A 
ATOM     16  C   UNL     1      -6.495  -2.934  -1.858  0.00  0.00    +0.039 A 
ATOM     17  C   UNL     1      -5.555  -2.357  -1.029  0.00  0.00    +0.014 A 
ATOM     18  F   UNL     1      -7.106  -3.769  -3.989  0.00  0.00    -0.205 F 
ENDBRANCH   9  12
ENDBRANCH   6   7
ENDBRANCH   1   6
BRANCH   2  19
ATOM     19  C   UNL     1       2.783  -1.099   2.395  0.00  0.00    +0.162 C 
BRANCH  19  20
ATOM     20  N   UNL     1       4.223  -1.127   2.126  0.00  0.00    -0.300 N 
ATOM     21  C   UNL     1       5.100  -1.042   3.146  0.00  0.00    +0.250 C 
ATOM     22  O   UNL     1       4.696  -0.941   4.288  0.00  0.00    -0.270 OA
ATOM     23  H   UNL     1       4.545  -1.208   1.215  0.00  0.00    +0.150 HD
BRANCH  21  24
ATOM     24  C   UNL     1       6.550  -1.070   2.875  0.00  0.00    +0.107 A 
ATOM     25  C   UNL     1       7.247   0.121   2.647  0.00  0.00    +0.138 A 
ATOM     26  C   UNL     1       8.605   0.086   2.396  0.00  0.00    +0.039 A 
ATOM     27  C   UNL     1       9.276  -1.124   2.368  0.00  0.00    +0.006 A 
ATOM     28  C   UNL     1       8.595  -2.307   2.591  0.00  0.00    +0.039 A 
ATOM     29  C   UNL     1       7.237  -2.289   2.851  0.00  0.00    +0.138 A 
ATOM     30  F   UNL     1       6.575  -3.445   3.075  0.00  0.00    -0.205 F 
ATOM     31  F   UNL     1       6.593   1.304   2.673  0.00  0.00    -0.205 F 
ENDBRANCH  21  24
ENDBRANCH  19  20
BRANCH  19  32
ATOM     32  C   UNL     1       2.300  -2.510   2.736  0.00  0.00    +0.012 C 
ATOM     33  C   UNL     1       2.692  -3.469   1.610  0.00  0.00    +0.009 C 
ATOM     34  C   UNL     1       2.946  -2.968   4.044  0.00  0.00    +0.009 C 
ENDBRANCH  19  32
ENDBRANCH   2  19
TORSDOF 7
