REMARK  Name = ZINC02256489
REMARK  9 active torsions:
REMARK  status: ('A' for Active; 'I' for Inactive)
REMARK    1  A    between atoms: C_4  and  C_11
REMARK    2  A    between atoms: N_12  and  N_13
REMARK    3  A    between atoms: C_14  and  C_16
REMARK    4  A    between atoms: C_16  and  C_17
REMARK    5  A    between atoms: C_17  and  C_18
REMARK    6  A    between atoms: C_18  and  C_19
REMARK    7  A    between atoms: C_19  and  C_20
REMARK    8  A    between atoms: N_22  and  N_23
REMARK    9  A    between atoms: C_24  and  C_25
REMARK                            x       y       z     vdW  Elec       q    Type
REMARK                         _______ _______ _______ _____ _____    ______ ____
ROOT
ATOM      1  C   UNL     1       2.389   8.954   0.027  0.00  0.00    +0.010 C 
ENDROOT
BRANCH   1   2
ATOM      2  C   UNL     1       3.572   7.984   0.011  0.00  0.00    +0.097 C 
BRANCH   2   4
ATOM      3  N   UNL     1       3.928   5.537  -0.006  0.00  0.00    -0.207 N 
ATOM      4  C   UNL     1       3.060   6.567   0.008  0.00  0.00    +0.232 C 
ATOM      5  O   UNL     1       1.865   6.354   0.018  0.00  0.00    -0.274 OA
ATOM      6  H   UNL     1       4.883   5.707  -0.014  0.00  0.00    +0.177 HD
BRANCH   3   8
ATOM      7  C   UNL     1       4.289   3.226  -0.021  0.00  0.00    +0.140 C 
ATOM      8  N   UNL     1       3.452   4.219  -0.008  0.00  0.00    -0.188 NA
BRANCH   7  12
ATOM      9  C   UNL     1      -0.017   1.383   0.010  0.00  0.00    +0.001 A 
ATOM     10  C   UNL     1       1.163   2.095   0.002  0.00  0.00    +0.010 A 
ATOM     11  C   UNL     1       2.378   1.415  -0.013  0.00  0.00    +0.008 A 
ATOM     12  C   UNL     1       3.789   1.842  -0.024  0.00  0.00    +0.020 A 
ATOM     13  C   UNL     1       4.538   0.706  -0.037  0.00  0.00    +0.093 A 
ATOM     14  N   UNL     1       3.720  -0.384  -0.035  0.00  0.00    -0.360 N 
ATOM     15  H   UNL     1       4.024  -1.305  -0.043  0.00  0.00    +0.165 HD
ATOM     16  C   UNL     1       2.399   0.010  -0.021  0.00  0.00    +0.047 A 
ATOM     17  C   UNL     1       1.197  -0.690  -0.013  0.00  0.00    +0.026 A 
ATOM     18  C   UNL     1       0.002  -0.004   0.002  0.00  0.00    +0.002 A 
ENDBRANCH   7  12
ENDBRANCH   3   8
ENDBRANCH   2   4
ENDBRANCH   1   2
BRANCH   1  19
ATOM     19  C   UNL     1       2.909  10.393   0.030  0.00  0.00    +0.010 C 
BRANCH  19  20
ATOM     20  C   UNL     1       1.726  11.363   0.046  0.00  0.00    +0.097 C 
BRANCH  20  21
ATOM     21  C   UNL     1       2.238  12.780   0.049  0.00  0.00    +0.232 C 
ATOM     22  O   UNL     1       3.432  12.994   0.039  0.00  0.00    -0.274 OA
ATOM     23  N   UNL     1       1.369  13.811   0.063  0.00  0.00    -0.207 N 
ATOM     24  H   UNL     1       0.415  13.640   0.071  0.00  0.00    +0.177 HD
BRANCH  23  25
ATOM     25  N   UNL     1       1.846  15.128   0.065  0.00  0.00    -0.188 NA
ATOM     26  C   UNL     1       1.009  16.122   0.079  0.00  0.00    +0.140 C 
BRANCH  26  27
ATOM     27  C   UNL     1       1.509  17.506   0.081  0.00  0.00    +0.020 A 
ATOM     28  C   UNL     1       2.919  17.933   0.064  0.00  0.00    +0.008 A 
ATOM     29  C   UNL     1       2.899  19.337   0.074  0.00  0.00    +0.047 A 
ATOM     30  N   UNL     1       1.578  19.731   0.096  0.00  0.00    -0.360 N 
ATOM     31  H   UNL     1       1.274  20.652   0.106  0.00  0.00    +0.165 HD
ATOM     32  C   UNL     1       0.760  18.641   0.094  0.00  0.00    +0.093 A 
ATOM     33  C   UNL     1       4.101  20.037   0.062  0.00  0.00    +0.026 A 
ATOM     34  C   UNL     1       5.295  19.351   0.040  0.00  0.00    +0.002 A 
ATOM     35  C   UNL     1       5.314  17.964   0.029  0.00  0.00    +0.001 A 
ATOM     36  C   UNL     1       4.135  17.252   0.042  0.00  0.00    +0.010 A 
ENDBRANCH  26  27
ENDBRANCH  23  25
ENDBRANCH  20  21
ENDBRANCH  19  20
ENDBRANCH   1  19
TORSDOF 9
