REMARK  Name = ZINC65163160
REMARK  8 active torsions:
REMARK  status: ('A' for Active; 'I' for Inactive)
REMARK    1  A    between atoms: C_1  and  C_2
REMARK    2  A    between atoms: C_2  and  C_3
REMARK    3  A    between atoms: C_3  and  N_4
REMARK    4  A    between atoms: C_6  and  C_13
REMARK    5  A    between atoms: C_13  and  C_14
REMARK    6  A    between atoms: C_14  and  N_15
REMARK    7  A    between atoms: N_15  and  S_16
REMARK    8  A    between atoms: S_16  and  C_19
REMARK                            x       y       z     vdW  Elec       q    Type
REMARK                         _______ _______ _______ _____ _____    ______ ____
ROOT
ATOM      1  C   UNL     1       0.069  -5.738   3.498  0.00  0.00    +0.110 C 
ENDROOT
BRANCH   1   2
ATOM      2  N   UNL     1      -0.658  -6.900   4.017  0.00  0.00    -0.190 NA
ATOM      3  H   UNL     1      -1.540  -7.112   3.675  0.00  0.00    +0.148 HD
BRANCH   2   4
ATOM      4  S   UNL     1       0.028  -7.850   5.188  0.00  0.00    +0.061 S 
ATOM      5  O   UNL     1      -0.921  -8.863   5.495  0.00  0.00    -0.153 OA
ATOM      6  O   UNL     1       1.345  -8.148   4.748  0.00  0.00    -0.153 OA
BRANCH   4   7
ATOM      7  C   UNL     1       0.191  -6.858   6.635  0.00  0.00    +0.133 A 
ATOM      8  C   UNL     1      -0.508  -7.170   7.750  0.00  0.00    +0.031 A 
ATOM      9  C   UNL     1      -0.403  -6.407   8.914  0.00  0.00    +0.004 A 
ATOM     10  C   UNL     1       0.403  -5.322   8.977  0.00  0.00    +0.031 A 
ATOM     11  C   UNL     1       1.168  -4.934   7.844  0.00  0.00    +0.102 A 
ATOM     12  C   UNL     1       1.063  -5.735   6.630  0.00  0.00    +0.126 A 
ATOM     13  N   UNL     1       1.827  -5.282   5.635  0.00  0.00    -0.189 NA
ATOM     14  S   UNL     1       2.583  -3.989   6.222  0.00  0.00    +0.117 S 
ATOM     15  N   UNL     1       2.008  -3.905   7.722  0.00  0.00    -0.191 NA
ENDBRANCH   4   7
ENDBRANCH   2   4
ENDBRANCH   1   2
BRANCH   1  16
ATOM     16  C   UNL     1      -0.589  -5.263   2.202  0.00  0.00    +0.054 C 
BRANCH  16  19
ATOM     17  N   UNL     1       0.762  -1.976   1.234  0.00  0.00    -0.332 N 
ATOM     18  C   UNL     1      -0.143  -2.777   1.876  0.00  0.00    +0.092 A 
ATOM     19  C   UNL     1       0.159  -4.068   1.668  0.00  0.00    -0.019 A 
ATOM     20  C   UNL     1       1.355  -4.093   0.824  0.00  0.00    +0.022 A 
ATOM     21  C   UNL     1       1.689  -2.748   0.575  0.00  0.00    +0.141 A 
ATOM     22  N   UNL     1       2.741  -2.458  -0.178  0.00  0.00    -0.237 NA
ATOM     23  C   UNL     1       3.491  -3.399  -0.710  0.00  0.00    +0.113 A 
ATOM     24  C   UNL     1       3.219  -4.744  -0.510  0.00  0.00    +0.020 A 
ATOM     25  C   UNL     1       2.139  -5.109   0.273  0.00  0.00    +0.013 A 
BRANCH  17  26
ATOM     26  C   UNL     1       0.742  -0.511   1.242  0.00  0.00    +0.123 C 
BRANCH  26  28
ATOM     27  C   UNL     1      -0.019   1.526   0.010  0.00  0.00    +0.005 C 
ATOM     28  C   UNL     1       0.002  -0.004   0.002  0.00  0.00    +0.018 C 
ENDBRANCH  26  28
ENDBRANCH  17  26
ENDBRANCH  16  19
ENDBRANCH   1  16
TORSDOF 7
