REMARK  Name = ZINC25679047
REMARK  10 active torsions:
REMARK  status: ('A' for Active; 'I' for Inactive)
REMARK    1  A    between atoms: C_1  and  C_2
REMARK    2  A    between atoms: C_2  and  C_3
REMARK    3  A    between atoms: C_2  and  C_4
REMARK    4  A    between atoms: C_7  and  C_10
REMARK    5  A    between atoms: C_12  and  C_15
REMARK    6  A    between atoms: C_15  and  N_16
REMARK    7  A    between atoms: N_16  and  C_17
REMARK    8  A    between atoms: N_16  and  C_18
REMARK    9  A    between atoms: C_18  and  C_19
REMARK   10  A    between atoms: N_21  and  C_22
REMARK                            x       y       z     vdW  Elec       q    Type
REMARK                         _______ _______ _______ _____ _____    ______ ____
ROOT
ATOM      1  C   UNL     1      -4.024   5.381   7.026  0.00  0.00    +0.022 C 
ENDROOT
BRANCH   1   4
ATOM      2  C   UNL     1      -2.702   2.960   4.721  0.00  0.00    +0.202 A 
ATOM      3  N   UNL     1      -2.916   4.248   5.070  0.00  0.00    -0.193 NA
ATOM      4  C   UNL     1      -3.553   4.201   6.214  0.00  0.00    +0.211 A 
ATOM      5  O   UNL     1      -3.708   2.911   6.525  0.00  0.00    -0.340 OA
ATOM      6  N   UNL     1      -3.221   2.213   5.660  0.00  0.00    -0.056 NA
BRANCH   2  10
ATOM      7  C   UNL     1      -0.729   1.591   1.211  0.00  0.00    -0.045 A 
ATOM      8  C   UNL     1      -0.869   2.949   1.438  0.00  0.00    +0.004 A 
ATOM      9  C   UNL     1      -1.513   3.398   2.572  0.00  0.00    +0.012 A 
ATOM     10  C   UNL     1      -2.013   2.482   3.496  0.00  0.00    +0.022 A 
ATOM     11  C   UNL     1      -1.864   1.116   3.265  0.00  0.00    +0.012 A 
ATOM     12  C   UNL     1      -1.223   0.678   2.124  0.00  0.00    +0.004 A 
BRANCH   7  14
ATOM     13  C   UNL     1       1.403   1.642  -0.055  0.00  0.00    +0.012 C 
ATOM     14  C   UNL     1      -0.030   1.106  -0.033  0.00  0.00    +0.013 C 
ATOM     15  C   UNL     1      -0.781   1.608  -1.268  0.00  0.00    +0.012 C 
ENDBRANCH   7  14
ENDBRANCH   2  10
ENDBRANCH   1   4
BRANCH   1  16
ATOM     16  N   UNL     1      -5.386   5.746   6.615  0.00  0.00    +0.389 N 
ATOM     17  C   UNL     1      -6.341   4.683   6.956  0.00  0.00    -0.095 C 
ATOM     18  H   UNL     1      -5.389   5.865   5.521  0.00  0.00    -0.081 HD
BRANCH  16  19
ATOM     19  C   UNL     1      -5.789   7.027   7.209  0.00  0.00    +0.019 C 
BRANCH  19  20
ATOM     20  C   UNL     1      -7.079   7.489   6.581  0.00  0.00    +0.201 C 
ATOM     21  O   UNL     1      -7.609   6.817   5.722  0.00  0.00    -0.278 OA
ATOM     22  N   UNL     1      -7.642   8.649   6.973  0.00  0.00    -0.286 N 
ATOM     23  H   UNL     1      -7.211   9.213   7.813  0.00  0.00    +0.155 HD
BRANCH  22  24
ATOM     24  C   UNL     1      -8.775   9.136   6.310  0.00  0.00    +0.047 A 
ATOM     25  C   UNL     1      -9.025   8.765   4.996  0.00  0.00    +0.024 A 
ATOM     26  C   UNL     1     -10.146   9.244   4.346  0.00  0.00    +0.002 A 
ATOM     27  C   UNL     1     -11.014  10.099   5.000  0.00  0.00    +0.001 A 
ATOM     28  C   UNL     1     -10.766  10.474   6.308  0.00  0.00    +0.017 A 
ATOM     29  C   UNL     1      -9.648   9.995   6.965  0.00  0.00    +0.039 A 
ATOM     30 BR   UNL     1      -9.309  10.509   8.752  0.00  0.00    -0.048 Br
ENDBRANCH  22  24
ENDBRANCH  19  20
ENDBRANCH  16  19
ENDBRANCH   1  16
TORSDOF 7
