REMARK  Name = ZINC11872068
REMARK  11 active torsions:
REMARK  status: ('A' for Active; 'I' for Inactive)
REMARK    1  A    between atoms: C_1  and  C_2
REMARK    2  A    between atoms: C_7  and  C_8
REMARK    3  A    between atoms: C_8  and  C_9
REMARK    4  A    between atoms: C_9  and  C_21
REMARK    5  A    between atoms: N_12  and  C_16
REMARK    6  A    between atoms: C_16  and  C_17
REMARK    7  A    between atoms: C_17  and  C_18
REMARK    8  A    between atoms: C_18  and  N_75
REMARK    9  A    between atoms: C_19  and  N_75
REMARK   10  A    between atoms: C_20  and  N_75
REMARK   11  A    between atoms: C_27  and  C_29
REMARK                            x       y       z     vdW  Elec       q    Type
REMARK                         _______ _______ _______ _____ _____    ______ ____
ROOT
ATOM      1  C   UNL     1       1.753   1.645  -0.687  0.00  0.00    +0.119 C 
ATOM      2  C   UNL     1       2.691   0.865  -1.587  0.00  0.00    +0.247 C 
ATOM      3  O   UNL     1       2.954  -0.317  -1.523  0.00  0.00    -0.273 OA
ATOM      4  N   UNL     1       3.173   1.759  -2.473  0.00  0.00    -0.224 N 
ATOM      5  C   UNL     1       2.676   2.983  -2.260  0.00  0.00    +0.309 C 
ATOM      6  O   UNL     1       2.962   3.955  -2.930  0.00  0.00    -0.252 OA
ATOM      7  N   UNL     1       1.823   3.017  -1.220  0.00  0.00    -0.284 N 
ATOM      8  H   UNL     1       1.345   3.792  -0.887  0.00  0.00    +0.151 HD
ENDROOT
BRANCH   1   9
ATOM      9  C   UNL     1       0.328   1.098  -0.792  0.00  0.00    +0.025 C 
ATOM     10  C   UNL     1      -0.618   1.980   0.026  0.00  0.00    +0.025 C 
ATOM     11  C   UNL     1      -2.037   1.410  -0.052  0.00  0.00    +0.108 C 
ATOM     12  N   UNL     1      -2.413   1.271  -1.466  0.00  0.00    -0.298 N 
ATOM     13  C   UNL     1      -1.526   0.518  -2.362  0.00  0.00    +0.108 C 
ATOM     14  C   UNL     1      -0.112   1.098  -2.257  0.00  0.00    +0.025 C 
ATOM     15  C   UNL     1      -3.551   1.824  -1.931  0.00  0.00    +0.242 C 
ATOM     16  O   UNL     1      -3.819   1.758  -3.115  0.00  0.00    -0.270 OA
BRANCH  15  17
ATOM     17  C   UNL     1      -4.469   2.506  -1.006  0.00  0.00    +0.011 C 
ATOM     18  C   UNL     1      -4.189   3.743  -0.655  0.00  0.00    -0.018 C 
ATOM     19  C   UNL     1      -5.031   4.554   0.286  0.00  0.00    +0.027 C 
ATOM     20  C   UNL     1      -6.420   3.928   0.423  0.00  0.00    +0.004 C 
ATOM     21  C   UNL     1      -6.253   2.433   0.722  0.00  0.00    +0.005 C 
ATOM     22  C   UNL     1      -5.674   1.754  -0.522  0.00  0.00    +0.040 C 
ENDBRANCH  15  17
ENDBRANCH   1   9
BRANCH   1  23
ATOM     23  C   UNL     1       2.238   1.606   0.763  0.00  0.00    +0.071 C 
BRANCH  23  30
ATOM     24  C   UNL     1       4.583  -0.082   0.807  0.00  0.00    +0.044 C 
ATOM     25  C   UNL     1       4.731   1.416   0.873  0.00  0.00    -0.047 A 
ATOM     26  C   UNL     1       5.990   1.983   0.949  0.00  0.00    +0.003 A 
ATOM     27  C   UNL     1       6.126   3.357   1.013  0.00  0.00    +0.000 A 
ATOM     28  C   UNL     1       5.004   4.165   0.998  0.00  0.00    +0.000 A 
ATOM     29  C   UNL     1       3.746   3.598   0.917  0.00  0.00    +0.004 A 
ATOM     30  C   UNL     1       3.610   2.224   0.852  0.00  0.00    -0.042 A 
ENDBRANCH  23  30
ENDBRANCH   1  23
BRANCH   4  31
ATOM     31  C   UNL     1       4.125   1.432  -3.537  0.00  0.00    +0.116 C 
BRANCH  31  32
ATOM     32  C   UNL     1       5.553   1.609  -3.017  0.00  0.00    +0.001 C 
BRANCH  32  33
ATOM     33  C   UNL     1       6.548   1.268  -4.128  0.00  0.00    -0.078 C 
BRANCH  33  36
ATOM     34  C   UNL     1       8.897   0.897  -4.581  0.00  0.00    -0.097 C 
ATOM     35  C   UNL     1       8.199   2.849  -3.330  0.00  0.00    -0.097 C 
ATOM     36  N   UNL     1       7.921   1.423  -3.604  0.00  0.00    +0.376 N 
ATOM     37  H   UNL     1       8.005   0.893  -2.729  0.00  0.00    -0.083 HD
ENDBRANCH  33  36
ENDBRANCH  32  33
ENDBRANCH  31  32
ENDBRANCH   4  31
TORSDOF 8
