REMARK  Name = ZINC26641772
REMARK  10 active torsions:
REMARK  status: ('A' for Active; 'I' for Inactive)
REMARK    1  A    between atoms: C_1  and  C_2
REMARK    2  A    between atoms: C_2  and  C_3
REMARK    3  A    between atoms: C_2  and  C_4
REMARK    4  A    between atoms: C_4  and  C_5
REMARK    5  A    between atoms: C_11  and  C_12
REMARK    6  A    between atoms: C_15  and  O_18
REMARK    7  A    between atoms: O_18  and  C_19
REMARK    8  A    between atoms: C_19  and  C_20
REMARK    9  A    between atoms: C_20  and  O_21
REMARK   10  A    between atoms: O_21  and  C_22
REMARK                            x       y       z     vdW  Elec       q    Type
REMARK                         _______ _______ _______ _____ _____    ______ ____
ROOT
ATOM      1  C   UNL     1       2.549  -7.582   7.400  0.00  0.00    +0.100 C 
ATOM      2  N   UNL     1       1.799  -7.188   6.412  0.00  0.00    -0.169 NA
ATOM      3  N   UNL     1       1.458  -8.043   5.386  0.00  0.00    -0.152 N 
ATOM      4  C   UNL     1       0.582  -7.746   4.325  0.00  0.00    +0.152 C 
ATOM      5  N   UNL     1      -0.304  -6.787   4.380  0.00  0.00    -0.283 NA
ATOM      6  C   UNL     1       0.758  -8.628   3.137  0.00  0.00    +0.081 C 
ATOM      7  C   UNL     1       0.546  -8.172   1.856  0.00  0.00    +0.024 C 
ATOM      8  C   UNL     1       1.182 -10.024   3.410  0.00  0.00    +0.273 C 
ATOM      9  O   UNL     1       0.920 -10.925   2.629  0.00  0.00    -0.268 OA
ATOM     10  N   UNL     1       1.864 -10.268   4.546  0.00  0.00    -0.152 NA
ATOM     11  C   UNL     1       2.003  -9.309   5.428  0.00  0.00    +0.181 C 
ATOM     12  S   UNL     1       2.891  -9.281   6.962  0.00  0.00    -0.038 S 
ATOM     13  H   UNL     1      -0.390  -6.169   5.285  0.00  0.00    +0.188 HD
ENDROOT
BRANCH   7  14
ATOM     14  C   UNL     1       0.304  -6.747   1.617  0.00  0.00    -0.024 A 
ATOM     15  C   UNL     1       0.926  -5.782   2.422  0.00  0.00    +0.011 A 
ATOM     16  C   UNL     1       0.697  -4.455   2.194  0.00  0.00    +0.046 A 
ATOM     17  C   UNL     1      -0.152  -4.060   1.165  0.00  0.00    +0.121 A 
ATOM     18  C   UNL     1      -0.776  -5.013   0.366  0.00  0.00    +0.046 A 
ATOM     19  C   UNL     1      -0.550  -6.343   0.581  0.00  0.00    +0.011 A 
BRANCH  17  20
ATOM     20  O   UNL     1      -0.376  -2.740   0.944  0.00  0.00    -0.489 OA
BRANCH  20  21
ATOM     21  C   UNL     1      -1.258  -2.403  -0.129  0.00  0.00    +0.270 C 
BRANCH  21  22
ATOM     22  C   UNL     1      -1.387  -0.882  -0.224  0.00  0.00    +0.270 C 
BRANCH  22  23
ATOM     23  O   UNL     1      -0.124  -0.318  -0.583  0.00  0.00    -0.489 OA
BRANCH  23  24
ATOM     24  C   UNL     1      -0.065   1.034  -0.710  0.00  0.00    +0.121 A 
ATOM     25  C   UNL     1      -1.202   1.801  -0.500  0.00  0.00    +0.045 A 
ATOM     26  C   UNL     1      -1.138   3.176  -0.625  0.00  0.00    +0.004 A 
ATOM     27  C   UNL     1       0.054   3.785  -0.970  0.00  0.00    +0.000 A 
ATOM     28  C   UNL     1       1.187   3.022  -1.185  0.00  0.00    +0.004 A 
ATOM     29  C   UNL     1       1.130   1.648  -1.056  0.00  0.00    +0.045 A 
ENDBRANCH  23  24
ENDBRANCH  22  23
ENDBRANCH  21  22
ENDBRANCH  20  21
ENDBRANCH  17  20
ENDBRANCH   7  14
BRANCH   1  30
ATOM     30  C   UNL     1       3.010  -6.804   8.606  0.00  0.00    +0.067 C 
BRANCH  30  32
ATOM     31  C   UNL     1       0.929  -5.423   8.643  0.00  0.00    +0.007 C 
ATOM     32  C   UNL     1       2.455  -5.380   8.538  0.00  0.00    -0.011 C 
ATOM     33  C   UNL     1       3.023  -4.555   9.694  0.00  0.00    +0.007 C 
ENDBRANCH  30  32
ENDBRANCH   1  30
TORSDOF 8
