REMARK  Name = ZINC43423912
REMARK  5 active torsions:
REMARK  status: ('A' for Active; 'I' for Inactive)
REMARK    1  A    between atoms: C_1  and  C_2
REMARK    2  A    between atoms: C_2  and  C_4
REMARK    3  A    between atoms: C_2  and  N_25
REMARK    4  A    between atoms: C_4  and  C_6
REMARK    5  A    between atoms: C_4  and  N_13
REMARK                            x       y       z     vdW  Elec       q    Type
REMARK                         _______ _______ _______ _____ _____    ______ ____
ROOT
ATOM      1  C   UNL     1      -1.345  -0.552  -0.009  0.00  0.00    +0.074 C 
ENDROOT
BRANCH   1   2
ATOM      2  N   UNL     1      -2.049  -0.014   1.163  0.00  0.00    -0.289 NA
ATOM      3  C   UNL     1      -2.221   1.443   1.052  0.00  0.00    +0.113 C 
ATOM      4  C   UNL     1      -2.913   1.972   2.311  0.00  0.00    +0.175 C 
ATOM      5  O   UNL     1      -4.157   1.287   2.494  0.00  0.00    -0.374 OA
ATOM      6  C   UNL     1      -4.014  -0.129   2.612  0.00  0.00    +0.135 C 
ATOM      7  C   UNL     1      -3.349  -0.673   1.344  0.00  0.00    +0.086 C 
ATOM      8  C   UNL     1      -3.158  -2.184   1.483  0.00  0.00    +0.021 C 
ATOM      9  C   UNL     1      -4.525  -2.850   1.661  0.00  0.00    +0.002 C 
ATOM     10  C   UNL     1      -5.207  -2.299   2.914  0.00  0.00    +0.003 C 
ATOM     11  C   UNL     1      -5.385  -0.785   2.780  0.00  0.00    +0.033 C 
ENDBRANCH   1   2
BRANCH   1  12
ATOM     12  C   UNL     1       0.142  -0.398   0.183  0.00  0.00    -0.014 A 
ATOM     13  C   UNL     1       0.629   0.475   1.138  0.00  0.00    +0.006 A 
ATOM     14  C   UNL     1       1.992   0.617   1.315  0.00  0.00    +0.000 A 
ATOM     15  C   UNL     1       2.870  -0.115   0.537  0.00  0.00    +0.001 A 
ATOM     16  C   UNL     1       2.385  -0.989  -0.418  0.00  0.00    +0.020 A 
ATOM     17  C   UNL     1       1.020  -1.135  -0.591  0.00  0.00    +0.046 A 
ATOM     18 CL   UNL     1       0.409  -2.236  -1.786  0.00  0.00    -0.083 Cl
ENDBRANCH   1  12
BRANCH   1  20
ATOM     19  C   UNL     1      -3.306   0.308  -1.297  0.00  0.00    -0.012 C 
ATOM     20  C   UNL     1      -1.779   0.214  -1.260  0.00  0.00    -0.056 C 
BRANCH  20  21
ATOM     21  N   UNL     1      -1.206   1.567  -1.230  0.00  0.00    +0.381 N 
ATOM     22  H   UNL     1      -1.543   2.057  -0.415  0.00  0.00    -0.090 HD
ATOM     23  H   UNL     1      -0.200   1.505  -1.193  0.00  0.00    -0.090 HD
ATOM     24  H   UNL     1      -1.482   2.068  -2.061  0.00  0.00    -0.090 HD
ENDBRANCH  20  21
ENDBRANCH   1  20
TORSDOF 4
