REMARK  Name = ZINC04973604
REMARK  4 active torsions:
REMARK  status: ('A' for Active; 'I' for Inactive)
REMARK    1  A    between atoms: C_1  and  O_2
REMARK    2  A    between atoms: O_2  and  C_3
REMARK    3  A    between atoms: C_7  and  C_9
REMARK    4  A    between atoms: C_14  and  C_24
REMARK                            x       y       z     vdW  Elec       q    Type
REMARK                         _______ _______ _______ _____ _____    ______ ____
ROOT
ATOM      1  C   UNL     1       0.002  -0.004   0.002  0.00  0.00    +0.032 C 
ATOM      2  C   UNL     1       0.825  -0.464   1.204  0.00  0.00    +0.059 C 
ATOM      3  C   UNL     1       2.241   0.079   1.099  0.00  0.00    +0.017 C 
ATOM      4  C   UNL     1       2.468   1.277   0.534  0.00  0.00    +0.039 C 
ATOM      5  C   UNL     1       3.815   1.945   0.386  0.00  0.00    +0.172 C 
ATOM      6  N   UNL     1       4.944   1.085   0.667  0.00  0.00    -0.329 N 
ATOM      7  C   UNL     1       5.155   0.567   1.944  0.00  0.00    +0.049 A 
ATOM      8  C   UNL     1       6.232   0.967   2.718  0.00  0.00    +0.025 A 
ATOM      9  C   UNL     1       6.342   0.510   4.019  0.00  0.00    +0.002 A 
ATOM     10  C   UNL     1       5.387  -0.341   4.545  0.00  0.00    +0.002 A 
ATOM     11  C   UNL     1       4.321  -0.760   3.768  0.00  0.00    +0.025 A 
ATOM     12  C   UNL     1       4.219  -0.317   2.461  0.00  0.00    +0.052 A 
ATOM     13  N   UNL     1       3.199  -0.733   1.612  0.00  0.00    -0.316 N 
ATOM     14  C   UNL     1       1.395   2.028  -0.000  0.00  0.00    +0.163 C 
ATOM     15  O   UNL     1       1.628   3.117  -0.487  0.00  0.00    -0.292 OA
ATOM     16  C   UNL     1      -0.019   1.529   0.010  0.00  0.00    +0.088 C 
ATOM     17  H   UNL     1       5.565   0.865  -0.045  0.00  0.00    +0.147 HD
ATOM     18  H   UNL     1       3.171  -1.672   1.370  0.00  0.00    +0.152 HD
ENDROOT
BRANCH   1  23
ATOM     19  C   UNL     1      -3.215  -1.821  -0.790  0.00  0.00    +0.120 A 
ATOM     20  C   UNL     1      -3.988  -1.506   0.318  0.00  0.00    +0.045 A 
ATOM     21  C   UNL     1      -3.467  -0.708   1.317  0.00  0.00    +0.004 A 
ATOM     22  C   UNL     1      -2.175  -0.227   1.217  0.00  0.00    +0.004 A 
ATOM     23  C   UNL     1      -1.404  -0.534   0.111  0.00  0.00    -0.040 A 
ATOM     24  C   UNL     1      -1.920  -1.333  -0.891  0.00  0.00    +0.049 A 
BRANCH  19  26
ATOM     25  C   UNL     1      -5.064  -3.074  -1.604  0.00  0.00    +0.277 C 
ATOM     26  O   UNL     1      -3.725  -2.607  -1.775  0.00  0.00    -0.495 OA
ENDBRANCH  19  26
ENDBRANCH   1  23
BRANCH   5  27
ATOM     27  C   UNL     1       3.869   3.126   1.321  0.00  0.00    +0.130 A 
ATOM     28  C   UNL     1       3.584   4.400   0.997  0.00  0.00    +0.047 A 
ATOM     29  C   UNL     1       3.764   5.170   2.169  0.00  0.00    +0.041 A 
ATOM     30  C   UNL     1       4.146   4.321   3.139  0.00  0.00    +0.195 A 
ATOM     31  O   UNL     1       4.203   3.083   2.621  0.00  0.00    -0.466 OA
ENDBRANCH   5  27
TORSDOF 3
