REMARK  Name = ZINC35641029
REMARK  11 active torsions:
REMARK  status: ('A' for Active; 'I' for Inactive)
REMARK    1  A    between atoms: C_1  and  C_2
REMARK    2  A    between atoms: C_2  and  O_3
REMARK    3  A    between atoms: O_3  and  C_4
REMARK    4  A    between atoms: C_4  and  C_6
REMARK    5  A    between atoms: C_7  and  C_22
REMARK    6  A    between atoms: N_8  and  C_21
REMARK    7  A    between atoms: C_12  and  C_14
REMARK    8  A    between atoms: C_22  and  N_23
REMARK    9  A    between atoms: N_23  and  C_24
REMARK   10  A    between atoms: N_23  and  C_25
REMARK   11  A    between atoms: N_28  and  C_31
REMARK                            x       y       z     vdW  Elec       q    Type
REMARK                         _______ _______ _______ _____ _____    ______ ____
ROOT
ATOM      1  C   UNL     1       0.975  -2.839  -2.196  0.00  0.00    +0.080 C 
ATOM      2  C   UNL     1       1.440  -4.082  -2.445  0.00  0.00    +0.041 C 
ATOM      3  N   UNL     1       2.437  -4.293  -3.354  0.00  0.00    -0.260 N 
ATOM      4  C   UNL     1       3.021  -3.313  -4.055  0.00  0.00    +0.307 C 
ATOM      5  O   UNL     1       3.901  -3.599  -4.843  0.00  0.00    -0.252 OA
ATOM      6  N   UNL     1       2.665  -2.021  -3.916  0.00  0.00    -0.288 N 
ATOM      7  C   UNL     1       1.593  -1.688  -2.963  0.00  0.00    +0.144 C 
ATOM      8  C   UNL     1       2.892  -5.667  -3.574  0.00  0.00    +0.139 C 
ATOM      9  H   UNL     1       3.102  -1.327  -4.434  0.00  0.00    +0.151 HD
ENDROOT
BRANCH   7  10
ATOM     10  C   UNL     1       0.492  -0.990  -3.720  0.00  0.00    -0.021 A 
ATOM     11  C   UNL     1       0.027  -1.520  -4.909  0.00  0.00    +0.006 A 
ATOM     12  C   UNL     1      -0.983  -0.881  -5.604  0.00  0.00    +0.002 A 
ATOM     13  C   UNL     1      -1.527   0.290  -5.110  0.00  0.00    +0.020 A 
ATOM     14  C   UNL     1      -1.062   0.821  -3.920  0.00  0.00    +0.041 A 
ATOM     15  C   UNL     1      -0.056   0.177  -3.222  0.00  0.00    +0.025 A 
ATOM     16 CL   UNL     1      -1.746   2.291  -3.300  0.00  0.00    -0.084 Cl
ENDBRANCH   7  10
BRANCH   1  17
ATOM     17  C   UNL     1      -0.058  -2.619  -1.254  0.00  0.00    +0.339 C 
ATOM     18  O   UNL     1      -0.631  -3.566  -0.748  0.00  0.00    -0.245 OA
BRANCH  17  19
ATOM     19  O   UNL     1      -0.408  -1.360  -0.918  0.00  0.00    -0.462 OA
BRANCH  19  21
ATOM     20  C   UNL     1      -1.713   0.275   0.292  0.00  0.00    +0.048 C 
ATOM     21  C   UNL     1      -1.459  -1.212   0.039  0.00  0.00    +0.229 C 
ENDBRANCH  19  21
ENDBRANCH  17  19
ENDBRANCH   1  17
BRANCH   2  22
ATOM     22  C   UNL     1       0.849  -5.256  -1.707  0.00  0.00    +0.136 C 
BRANCH  22  23
ATOM     23  N   UNL     1      -0.388  -5.682  -2.374  0.00  0.00    -0.297 NA
ATOM     24  C   UNL     1      -0.107  -6.214  -3.715  0.00  0.00    +0.105 C 
BRANCH  23  25
ATOM     25  C   UNL     1      -1.114  -6.665  -1.560  0.00  0.00    +0.053 C 
ATOM     26  C   UNL     1      -0.286  -7.948  -1.446  0.00  0.00    +0.000 C 
ATOM     27  C   UNL     1      -1.082  -8.994  -0.663  0.00  0.00    -0.078 C 
ATOM     28  N   UNL     1      -2.339  -9.283  -1.364  0.00  0.00    +0.378 N 
ATOM     29  C   UNL     1      -3.170  -8.073  -1.414  0.00  0.00    -0.078 C 
ATOM     30  C   UNL     1      -2.454  -6.991  -2.225  0.00  0.00    +0.000 C 
ATOM     31  C   UNL     1      -3.063 -10.343  -0.651  0.00  0.00    -0.096 C 
ATOM     32  H   UNL     1      -2.137  -9.589  -2.303  0.00  0.00    -0.082 HD
ENDBRANCH  23  25
ENDBRANCH  22  23
ENDBRANCH   2  22
TORSDOF 7
