REMARK  Name = ZINC46894901
REMARK  8 active torsions:
REMARK  status: ('A' for Active; 'I' for Inactive)
REMARK    1  A    between atoms: C_1  and  C_2
REMARK    2  A    between atoms: C_2  and  C_3
REMARK    3  A    between atoms: C_2  and  C_4
REMARK    4  A    between atoms: C_2  and  C_5
REMARK    5  A    between atoms: C_5  and  C_7
REMARK    6  A    between atoms: C_5  and  N_13
REMARK    7  A    between atoms: N_16  and  C_17
REMARK    8  A    between atoms: C_21  and  N_23
REMARK                            x       y       z     vdW  Elec       q    Type
REMARK                         _______ _______ _______ _____ _____    ______ ____
ROOT
ATOM      1  N   UNL     1      -0.012   0.024  -2.437  0.00  0.00    -0.292 N 
ATOM      2  C   UNL     1      -1.051  -0.680  -2.929  0.00  0.00    +0.304 C 
ATOM      3  O   UNL     1      -1.395  -1.714  -2.390  0.00  0.00    -0.252 OA
ATOM      4  N   UNL     1      -1.708  -0.237  -4.019  0.00  0.00    -0.269 N 
ATOM      5  H   UNL     1       0.263   0.848  -2.867  0.00  0.00    +0.151 HD
ATOM      6  H   UNL     1      -1.476   0.620  -4.411  0.00  0.00    +0.156 HD
ENDROOT
BRANCH   4   7
ATOM      7  C   UNL     1      -2.726  -1.013  -4.586  0.00  0.00    +0.037 A 
ATOM      8  C   UNL     1      -3.558  -1.770  -3.771  0.00  0.00    +0.023 A 
ATOM      9  C   UNL     1      -4.563  -2.536  -4.329  0.00  0.00    +0.004 A 
ATOM     10  C   UNL     1      -4.744  -2.552  -5.699  0.00  0.00    +0.024 A 
ATOM     11  C   UNL     1      -3.915  -1.797  -6.519  0.00  0.00    +0.040 A 
ATOM     12  C   UNL     1      -2.908  -1.022  -5.961  0.00  0.00    +0.047 A 
BRANCH  11  13
ATOM     13  N   UNL     1      -4.098  -1.813  -7.906  0.00  0.00    -0.254 N 
ATOM     14  C   UNL     1      -5.199  -2.486  -8.612  0.00  0.00    +0.134 C 
ATOM     15  C   UNL     1      -4.920  -2.190 -10.099  0.00  0.00    +0.125 C 
ATOM     16  N   UNL     1      -3.692  -1.382 -10.072  0.00  0.00    -0.297 N 
ATOM     17  C   UNL     1      -3.302  -1.214  -8.802  0.00  0.00    +0.307 C 
ATOM     18  O   UNL     1      -2.314  -0.579  -8.489  0.00  0.00    -0.252 OA
ATOM     19  H   UNL     1      -3.237  -1.024 -10.851  0.00  0.00    +0.150 HD
ENDBRANCH  11  13
ENDBRANCH   4   7
BRANCH   1  20
ATOM     20  C   UNL     1       0.703  -0.458  -1.252  0.00  0.00    +0.110 C 
BRANCH  20  21
ATOM     21  C   UNL     1       2.107   0.088  -1.256  0.00  0.00    -0.027 A 
ATOM     22  C   UNL     1       2.340   1.394  -1.646  0.00  0.00    +0.005 A 
ATOM     23  C   UNL     1       3.628   1.895  -1.650  0.00  0.00    +0.000 A 
ATOM     24  C   UNL     1       4.684   1.091  -1.263  0.00  0.00    +0.000 A 
ATOM     25  C   UNL     1       4.451  -0.214  -0.873  0.00  0.00    +0.000 A 
ATOM     26  C   UNL     1       3.163  -0.714  -0.865  0.00  0.00    +0.005 A 
ENDBRANCH  20  21
BRANCH  20  28
ATOM     27  C   UNL     1      -0.072   1.543   0.028  0.00  0.00    +0.013 C 
ATOM     28  C   UNL     1      -0.024   0.014   0.009  0.00  0.00    -0.015 C 
ATOM     29  C   UNL     1       0.722  -0.489   1.246  0.00  0.00    +0.013 C 
ATOM     30  C   UNL     1      -1.450  -0.541   0.013  0.00  0.00    +0.013 C 
ENDBRANCH  20  28
ENDBRANCH   1  20
TORSDOF 5
