REMARK  Name = ZINC13499441
REMARK  14 active torsions:
REMARK  status: ('A' for Active; 'I' for Inactive)
REMARK    1  A    between atoms: C_1  and  C_2
REMARK    2  A    between atoms: C_2  and  C_3
REMARK    3  A    between atoms: C_3  and  C_4
REMARK    4  A    between atoms: C_4  and  C_6
REMARK    5  A    between atoms: C_4  and  N_71
REMARK    6  A    between atoms: N_10  and  C_11
REMARK    7  A    between atoms: C_11  and  C_12
REMARK    8  A    between atoms: C_11  and  C_13
REMARK    9  A    between atoms: C_11  and  C_14
REMARK   10  A    between atoms: C_15  and  C_16
REMARK   11  A    between atoms: C_15  and  N_71
REMARK   12  A    between atoms: C_20  and  C_29
REMARK   13  A    between atoms: C_21  and  C_28
REMARK   14  A    between atoms: C_30  and  N_71
REMARK                            x       y       z     vdW  Elec       q    Type
REMARK                         _______ _______ _______ _____ _____    ______ ____
ROOT
ATOM      1  N   UNL     1      -6.244   3.021  -1.129  0.00  0.00    +0.391 N 
ATOM      2  H   UNL     1      -5.249   3.276  -1.158  0.00  0.00    -0.080 HD
ENDROOT
BRANCH   1   3
ATOM      3  C   UNL     1      -6.503   1.980  -2.145  0.00  0.00    -0.067 C 
ATOM      4  C   UNL     1      -5.226   1.137  -2.341  0.00  0.00    -0.015 C 
ATOM      5  C   UNL     1      -5.195   0.844  -3.862  0.00  0.00    -0.002 C 
ATOM      6  C   UNL     1      -5.709   2.169  -4.477  0.00  0.00    -0.002 C 
ATOM      7  C   UNL     1      -6.810   2.636  -3.503  0.00  0.00    -0.015 C 
ENDBRANCH   1   3
BRANCH   1   8
ATOM      8  C   UNL     1      -7.055   4.222  -1.418  0.00  0.00    +0.003 C 
BRANCH   8   9
ATOM      9  C   UNL     1      -8.475   3.834  -1.743  0.00  0.00    +0.139 A 
ATOM     10  N   UNL     1      -9.127   2.795  -1.282  0.00  0.00    -0.115 NA
ATOM     11  N   UNL     1     -10.310   2.809  -1.792  0.00  0.00    -0.023 NA
ATOM     12  N   UNL     1     -10.430   3.831  -2.566  0.00  0.00    -0.043 NA
ATOM     13  N   UNL     1      -9.321   4.491  -2.558  0.00  0.00    -0.226 N 
BRANCH  13  14
ATOM     14  C   UNL     1      -9.035   5.721  -3.300  0.00  0.00    +0.059 C 
ATOM     15  C   UNL     1      -7.987   5.435  -4.377  0.00  0.00    +0.036 C 
ATOM     16  C   UNL     1     -10.319   6.228  -3.960  0.00  0.00    +0.036 C 
ATOM     17  C   UNL     1      -8.502   6.785  -2.339  0.00  0.00    +0.036 C 
ENDBRANCH  13  14
ENDBRANCH   8   9
BRANCH   8  18
ATOM     18  C   UNL     1      -7.045   5.142  -0.195  0.00  0.00    -0.008 C 
BRANCH  18  20
ATOM     19  C   UNL     1      -5.589   6.473   1.338  0.00  0.00    +0.004 C 
ATOM     20  C   UNL     1      -5.625   5.656   0.045  0.00  0.00    -0.005 C 
ENDBRANCH  18  20
ENDBRANCH   8  18
ENDBRANCH   1   8
BRANCH   1  21
ATOM     21  C   UNL     1      -6.568   2.505   0.217  0.00  0.00    -0.036 C 
BRANCH  21  22
ATOM     22  C   UNL     1      -5.642   1.359   0.536  0.00  0.00    +0.001 A 
ATOM     23  C   UNL     1      -4.472   1.595   1.180  0.00  0.00    +0.017 A 
ATOM     24  C   UNL     1      -3.595   0.460   1.475  0.00  0.00    -0.001 A 
ATOM     25  C   UNL     1      -2.376   0.641   2.136  0.00  0.00    +0.013 A 
ATOM     26  C   UNL     1      -1.580  -0.439   2.396  0.00  0.00    -0.047 A 
ATOM     27  C   UNL     1      -1.971  -1.714   2.010  0.00  0.00    -0.046 A 
ATOM     28  C   UNL     1      -3.167  -1.915   1.357  0.00  0.00    +0.030 A 
ATOM     29  C   UNL     1      -3.991  -0.830   1.076  0.00  0.00    +0.049 A 
ATOM     30  N   UNL     1      -5.197  -1.004   0.429  0.00  0.00    -0.322 N 
ATOM     31  H   UNL     1      -5.470  -1.894   0.159  0.00  0.00    +0.169 HD
ATOM     32  C   UNL     1      -5.995   0.044   0.163  0.00  0.00    +0.251 A 
ATOM     33  O   UNL     1      -7.051  -0.145  -0.416  0.00  0.00    -0.268 OA
ATOM     34  C   UNL     1      -1.077  -2.890   2.308  0.00  0.00    +0.044 C 
ATOM     35  C   UNL     1      -0.267  -0.244   3.109  0.00  0.00    +0.044 C 
ENDBRANCH  21  22
ENDBRANCH   1  21
TORSDOF 8
