REMARK  Name = ZINC00677254
REMARK  7 active torsions:
REMARK  status: ('A' for Active; 'I' for Inactive)
REMARK    1  A    between atoms: C_1  and  C_2
REMARK    2  A    between atoms: C_3  and  C_23
REMARK    3  A    between atoms: C_4  and  C_14
REMARK    4  A    between atoms: C_17  and  O_21
REMARK    5  A    between atoms: O_21  and  C_22
REMARK    6  A    between atoms: C_23  and  O_25
REMARK    7  A    between atoms: O_25  and  C_26
REMARK                            x       y       z     vdW  Elec       q    Type
REMARK                         _______ _______ _______ _____ _____    ______ ____
ROOT
ATOM      1  C   UNL     1      -2.405   5.755   0.875  0.00  0.00    +0.061 C 
ATOM      2  C   UNL     1      -2.502   4.970   2.158  0.00  0.00    +0.016 C 
ATOM      3  C   UNL     1      -1.960   3.742   2.232  0.00  0.00    +0.065 C 
ATOM      4  C   UNL     1      -2.024   2.938   3.497  0.00  0.00    +0.092 C 
ATOM      5  C   UNL     1      -3.089   3.469   4.424  0.00  0.00    +0.024 C 
ATOM      6  C   UNL     1      -3.594   4.710   4.254  0.00  0.00    +0.015 C 
ATOM      7  N   UNL     1      -3.146   5.509   3.237  0.00  0.00    -0.321 N 
ATOM      8  C   UNL     1      -4.663   5.246   5.173  0.00  0.00    +0.051 C 
ATOM      9  C   UNL     1      -4.498   4.634   6.566  0.00  0.00    +0.014 C 
ATOM     10  C   UNL     1      -4.583   3.109   6.440  0.00  0.00    +0.080 C 
ATOM     11  C   UNL     1      -3.538   2.639   5.466  0.00  0.00    +0.162 C 
ATOM     12  O   UNL     1      -3.072   1.523   5.583  0.00  0.00    -0.292 OA
ATOM     13  H   UNL     1      -3.309   6.595   3.294  0.00  0.00    +0.152 HD
ENDROOT
BRANCH   4  14
ATOM     14  C   UNL     1      -0.688   3.000   4.192  0.00  0.00    -0.034 A 
ATOM     15  C   UNL     1       0.022   1.838   4.428  0.00  0.00    +0.008 A 
ATOM     16  C   UNL     1       1.247   1.892   5.064  0.00  0.00    +0.047 A 
ATOM     17  C   UNL     1       1.765   3.114   5.466  0.00  0.00    +0.134 A 
ATOM     18  C   UNL     1       1.051   4.280   5.227  0.00  0.00    +0.060 A 
ATOM     19  C   UNL     1      -0.172   4.221   4.586  0.00  0.00    +0.023 A 
ATOM     20 BR   UNL     1       1.754   5.949   5.773  0.00  0.00    -0.047 Br
BRANCH  17  21
ATOM     21  O   UNL     1       2.971   3.170   6.091  0.00  0.00    -0.494 OA
ATOM     22  C   UNL     1       3.650   1.931   6.303  0.00  0.00    +0.277 C 
ENDBRANCH  17  21
ENDBRANCH   4  14
BRANCH   3  23
ATOM     23  C   UNL     1      -1.312   3.201   1.098  0.00  0.00    +0.338 C 
ATOM     24  O   UNL     1      -1.339   3.798   0.038  0.00  0.00    -0.245 OA
BRANCH  23  25
ATOM     25  O   UNL     1      -0.662   2.021   1.191  0.00  0.00    -0.458 OA
BRANCH  25  26
ATOM     26  C   UNL     1      -0.030   1.534   0.006  0.00  0.00    +0.177 C 
ATOM     27  C   UNL     1       1.465   1.938  -0.017  0.00  0.00    +0.044 C 
ATOM     28  C   UNL     1       2.092   0.879  -0.957  0.00  0.00    +0.004 C 
ATOM     29  C   UNL     1       1.344  -0.425  -0.609  0.00  0.00    +0.004 C 
ATOM     30  C   UNL     1      -0.005  -0.009   0.003  0.00  0.00    +0.044 C 
ENDBRANCH  25  26
ENDBRANCH  23  25
ENDBRANCH   3  23
TORSDOF 5
