REMARK  Name = ZINC14457691
REMARK  6 active torsions:
REMARK  status: ('A' for Active; 'I' for Inactive)
REMARK    1  A    between atoms: C_1  and  C_2
REMARK    2  A    between atoms: C_5  and  N_27
REMARK    3  A    between atoms: C_9  and  C_18
REMARK    4  A    between atoms: C_19  and  C_26
REMARK    5  A    between atoms: C_21  and  C_25
REMARK    6  A    between atoms: C_23  and  C_24
REMARK                            x       y       z     vdW  Elec       q    Type
REMARK                         _______ _______ _______ _____ _____    ______ ____
ROOT
ATOM      1  C   UNL     1      -2.461  -1.680   2.997  0.00  0.00    +0.045 C 
ATOM      2  C   UNL     1      -2.318  -2.483   1.730  0.00  0.00    -0.029 A 
ATOM      3  C   UNL     1      -3.123  -3.582   1.527  0.00  0.00    +0.007 A 
ATOM      4  C   UNL     1      -3.004  -4.328   0.369  0.00  0.00    +0.033 A 
ATOM      5  C   UNL     1      -2.067  -3.969  -0.582  0.00  0.00    +0.132 A 
ATOM      6  C   UNL     1      -1.250  -2.876  -0.382  0.00  0.00    +0.011 A 
ATOM      7  C   UNL     1      -1.371  -2.105   0.778  0.00  0.00    +0.037 A 
ATOM      8  N   UNL     1      -0.604  -0.973   1.045  0.00  0.00    -0.336 N 
ATOM      9  C   UNL     1       0.461  -0.651   0.081  0.00  0.00    +0.105 C 
ATOM     10  C   UNL     1      -0.087  -0.938  -1.302  0.00  0.00    +0.029 C 
ATOM     11  C   UNL     1      -0.211  -2.492  -1.362  0.00  0.00    +0.051 C 
ATOM     12  C   UNL     1      -0.340  -2.762  -2.815  0.00  0.00    -0.023 C 
ATOM     13  C   UNL     1       0.288  -1.797  -3.480  0.00  0.00    -0.030 C 
ATOM     14  C   UNL     1       0.857  -0.770  -2.498  0.00  0.00    +0.033 C 
ATOM     15  H   UNL     1      -1.191  -0.171   1.216  0.00  0.00    +0.147 HD
ENDROOT
BRANCH   9  16
ATOM     16  C   UNL     1       0.834   0.804   0.195  0.00  0.00    -0.021 A 
ATOM     17  C   UNL     1       2.164   1.172   0.281  0.00  0.00    -0.045 A 
ATOM     18  C   UNL     1       2.506   2.508   0.380  0.00  0.00    +0.007 A 
ATOM     19  C   UNL     1       1.518   3.475   0.404  0.00  0.00    -0.050 A 
ATOM     20  C   UNL     1       0.188   3.106   0.323  0.00  0.00    +0.007 A 
ATOM     21  C   UNL     1      -0.154   1.771   0.218  0.00  0.00    -0.045 A 
ATOM     22  C   UNL     1      -1.604   1.369   0.130  0.00  0.00    +0.044 C 
ATOM     23  C   UNL     1       1.891   4.931   0.517  0.00  0.00    +0.044 C 
ATOM     24  C   UNL     1       3.240   0.118   0.262  0.00  0.00    +0.044 C 
ENDBRANCH   9  16
BRANCH   5  25
ATOM     25  N   UNL     1      -1.938  -4.765  -1.823  0.00  0.00    +0.057 N 
ATOM     26  O   UNL     1      -2.924  -5.014  -2.492  0.00  0.00    -0.126 OA
ATOM     27  O   UNL     1      -0.845  -5.171  -2.175  0.00  0.00    -0.126 OA
ENDBRANCH   5  25
TORSDOF 2
