REMARK  Name = ZINC34911372
REMARK  7 active torsions:
REMARK  status: ('A' for Active; 'I' for Inactive)
REMARK    1  A    between atoms: C_1  and  C_2
REMARK    2  A    between atoms: C_5  and  N_8
REMARK    3  A    between atoms: C_9  and  C_28
REMARK    4  A    between atoms: C_11  and  C_13
REMARK    5  A    between atoms: N_15  and  C_16
REMARK    6  A    between atoms: C_16  and  C_17
REMARK    7  A    between atoms: C_17  and  C_18
REMARK                            x       y       z     vdW  Elec       q    Type
REMARK                         _______ _______ _______ _____ _____    ______ ____
ROOT
ATOM      1  N   UNL     1       0.059  -4.170  -0.021  0.00  0.00    -0.209 N 
ATOM      2  C   UNL     1       0.698  -4.987   0.870  0.00  0.00    +0.200 A 
ATOM      3  N   UNL     1       0.468  -6.233   0.511  0.00  0.00    -0.199 NA
ATOM      4  C   UNL     1      -0.300  -6.254  -0.586  0.00  0.00    +0.237 A 
ATOM      5  N   UNL     1      -0.579  -5.017  -0.942  0.00  0.00    -0.139 NA
ENDROOT
BRANCH   1  10
ATOM      6  C   UNL     1      -0.018   1.503   0.010  0.00  0.00    +0.044 C 
ATOM      7  C   UNL     1       0.002  -0.004   0.002  0.00  0.00    -0.050 A 
ATOM      8  C   UNL     1       0.006  -0.687  -1.200  0.00  0.00    +0.005 A 
ATOM      9  C   UNL     1       0.025  -2.068  -1.211  0.00  0.00    +0.028 A 
ATOM     10  C   UNL     1       0.041  -2.771  -0.013  0.00  0.00    +0.068 A 
ATOM     11  C   UNL     1       0.037  -2.081   1.192  0.00  0.00    +0.028 A 
ATOM     12  C   UNL     1       0.023  -0.700   1.197  0.00  0.00    +0.005 A 
ENDBRANCH   1  10
BRANCH   2  13
ATOM     13  C   UNL     1       1.499  -4.551   2.025  0.00  0.00    +0.172 A 
ATOM     14  C   UNL     1       1.899  -5.336   3.064  0.00  0.00    +0.053 A 
ATOM     15  C   UNL     1       2.638  -4.513   3.933  0.00  0.00    +0.042 A 
ATOM     16  C   UNL     1       2.655  -3.279   3.390  0.00  0.00    +0.196 A 
ATOM     17  O   UNL     1       1.971  -3.306   2.236  0.00  0.00    -0.460 OA
ENDBRANCH   2  13
BRANCH   4  18
ATOM     18  C   UNL     1      -0.766  -7.472  -1.282  0.00  0.00    +0.283 C 
ATOM     19  O   UNL     1      -1.462  -7.376  -2.274  0.00  0.00    -0.267 OA
ATOM     20  N   UNL     1      -0.420  -8.689  -0.817  0.00  0.00    -0.308 N 
ATOM     21  H   UNL     1       0.136  -8.765  -0.025  0.00  0.00    +0.149 HD
BRANCH  20  22
ATOM     22  C   UNL     1      -0.882  -9.896  -1.507  0.00  0.00    +0.109 C 
BRANCH  22  23
ATOM     23  C   UNL     1      -0.352 -11.133  -0.780  0.00  0.00    +0.056 C 
BRANCH  23  24
ATOM     24  C   UNL     1      -0.827 -12.375  -1.489  0.00  0.00    -0.021 A 
ATOM     25  C   UNL     1      -1.918 -13.098  -1.190  0.00  0.00    +0.087 A 
ATOM     26  N   UNL     1      -2.029 -14.155  -2.052  0.00  0.00    -0.360 N 
ATOM     27  H   UNL     1      -2.737 -14.818  -2.033  0.00  0.00    +0.165 HD
ATOM     28  C   UNL     1      -0.985 -14.137  -2.950  0.00  0.00    +0.047 A 
ATOM     29  C   UNL     1      -0.190 -13.018  -2.641  0.00  0.00    +0.003 A 
ATOM     30  C   UNL     1       0.949 -12.742  -3.400  0.00  0.00    +0.010 A 
ATOM     31  C   UNL     1       1.284 -13.559  -4.442  0.00  0.00    +0.001 A 
ATOM     32  C   UNL     1       0.501 -14.662  -4.753  0.00  0.00    +0.002 A 
ATOM     33  C   UNL     1      -0.622 -14.959  -4.012  0.00  0.00    +0.026 A 
ENDBRANCH  23  24
ENDBRANCH  22  23
ENDBRANCH  20  22
ENDBRANCH   4  18
TORSDOF 6
