REMARK  Name = ZINC17102538
REMARK  8 active torsions:
REMARK  status: ('A' for Active; 'I' for Inactive)
REMARK    1  A    between atoms: C_1  and  C_2
REMARK    2  A    between atoms: C_3  and  C_32
REMARK    3  A    between atoms: C_5  and  C_30
REMARK    4  A    between atoms: C_7  and  C_10
REMARK    5  A    between atoms: N_12  and  C_13
REMARK    6  A    between atoms: C_14  and  C_24
REMARK    7  A    between atoms: C_15  and  C_18
REMARK    8  A    between atoms: N_26  and  C_27
REMARK                            x       y       z     vdW  Elec       q    Type
REMARK                         _______ _______ _______ _____ _____    ______ ____
ROOT
ATOM      1  C   UNL     1       2.688   0.507   1.133  0.00  0.00    +0.084 A 
ATOM      2  C   UNL     1       1.959   0.862   0.007  0.00  0.00    +0.073 A 
ATOM      3  C   UNL     1       2.507   0.468  -1.276  0.00  0.00    +0.003 A 
ATOM      4  C   UNL     1       3.688  -0.202  -1.256  0.00  0.00    +0.056 A 
ATOM      5  S   UNL     1       4.063  -0.318   0.481  0.00  0.00    -0.081 S 
ENDROOT
BRANCH   3   6
ATOM      6  C   UNL     1       1.815   0.785  -2.548  0.00  0.00    -0.017 A 
ATOM      7  C   UNL     1       0.464   0.479  -2.705  0.00  0.00    +0.008 A 
ATOM      8  C   UNL     1      -0.176   0.781  -3.890  0.00  0.00    +0.001 A 
ATOM      9  C   UNL     1       0.523   1.378  -4.924  0.00  0.00    +0.000 A 
ATOM     10  C   UNL     1       1.865   1.679  -4.776  0.00  0.00    +0.001 A 
ATOM     11  C   UNL     1       2.514   1.387  -3.594  0.00  0.00    +0.008 A 
ENDBRANCH   3   6
BRANCH   1  14
ATOM     12  C   UNL     1       3.222   0.332   3.433  0.00  0.00    +0.222 C 
ATOM     13  O   UNL     1       4.236  -0.267   3.142  0.00  0.00    -0.275 OA
ATOM     14  N   UNL     1       2.387   0.755   2.464  0.00  0.00    -0.279 N 
ATOM     15  H   UNL     1       1.576   1.234   2.696  0.00  0.00    +0.155 HD
BRANCH  12  21
ATOM     16  C   UNL     1      -0.050  -0.247   7.240  0.00  0.00    +0.039 C 
ATOM     17  C   UNL     1       1.346  -0.021   6.721  0.00  0.00    -0.073 C 
ATOM     18  C   UNL     1       2.288   0.187   7.583  0.00  0.00    -0.073 C 
ATOM     19  C   UNL     1       3.723   0.436   7.218  0.00  0.00    +0.046 C 
ATOM     20  C   UNL     1       3.983  -0.003   5.776  0.00  0.00    +0.118 C 
ATOM     21  C   UNL     1       2.895   0.601   4.880  0.00  0.00    +0.093 C 
ATOM     22  C   UNL     1       1.557  -0.051   5.235  0.00  0.00    +0.044 C 
ATOM     23  C   UNL     1       1.923   0.178   9.045  0.00  0.00    +0.039 C 
BRANCH  20  24
ATOM     24  C   UNL     1       5.336   0.490   5.332  0.00  0.00    +0.360 C 
ATOM     25  O   UNL     1       5.426   1.248   4.396  0.00  0.00    -0.246 OA
ATOM     26  O   UNL     1       6.442   0.088   5.978  0.00  0.00    -0.246 OA
ENDBRANCH  20  24
ENDBRANCH  12  21
ENDBRANCH   1  14
BRANCH   2  27
ATOM     27  C   UNL     1       0.694   1.592   0.110  0.00  0.00    +0.247 C 
ATOM     28  O   UNL     1       0.691   2.809   0.101  0.00  0.00    -0.270 OA
ATOM     29  N   UNL     1      -0.468   0.917   0.215  0.00  0.00    -0.308 N 
ATOM     30  H   UNL     1      -0.466  -0.053   0.222  0.00  0.00    +0.149 HD
BRANCH  29  31
ATOM     31  C   UNL     1      -1.734   1.648   0.311  0.00  0.00    +0.073 C 
ATOM     32  C   UNL     1      -2.757   1.156   1.337  0.00  0.00    +0.024 C 
ATOM     33  C   UNL     1      -3.002   0.930  -0.156  0.00  0.00    +0.024 C 
ENDBRANCH  29  31
ENDBRANCH   2  27
TORSDOF 6
