REMARK  Name = ZINC39917183
REMARK  10 active torsions:
REMARK  status: ('A' for Active; 'I' for Inactive)
REMARK    1  A    between atoms: C_1  and  C_2
REMARK    2  A    between atoms: C_2  and  C_3
REMARK    3  A    between atoms: C_3  and  C_5
REMARK    4  A    between atoms: C_3  and  C_6
REMARK    5  A    between atoms: C_9  and  C_12
REMARK    6  A    between atoms: C_12  and  N_13
REMARK    7  A    between atoms: C_21  and  C_22
REMARK    8  A    between atoms: C_22  and  C_24
REMARK    9  A    between atoms: C_22  and  N_25
REMARK   10  A    between atoms: N_28  and  C_31
REMARK                            x       y       z     vdW  Elec       q    Type
REMARK                         _______ _______ _______ _____ _____    ______ ____
ROOT
ATOM      1  N   UNL     1       1.336  -6.328  -0.247  0.00  0.00    -0.322 N 
ATOM      2  C   UNL     1       0.179  -6.474  -0.986  0.00  0.00    +0.069 A 
ATOM      3  C   UNL     1      -1.173  -6.324  -0.705  0.00  0.00    +0.028 A 
ATOM      4  C   UNL     1      -2.105  -6.551  -1.695  0.00  0.00    +0.002 A 
ATOM      5  C   UNL     1      -1.701  -6.929  -2.968  0.00  0.00    +0.002 A 
ATOM      6  C   UNL     1      -0.376  -7.082  -3.262  0.00  0.00    +0.030 A 
ATOM      7  C   UNL     1       0.587  -6.856  -2.275  0.00  0.00    +0.089 A 
ATOM      8  N   UNL     1       1.943  -6.922  -2.256  0.00  0.00    -0.231 NA
ATOM      9  C   UNL     1       2.381  -6.608  -1.072  0.00  0.00    +0.128 A 
ENDROOT
BRANCH   9  10
ATOM     10  C   UNL     1       3.833  -6.564  -0.672  0.00  0.00    +0.120 C 
ATOM     11  C   UNL     1       4.354  -7.990  -0.487  0.00  0.00    +0.032 C 
BRANCH  10  12
ATOM     12  N   UNL     1       4.610  -5.890  -1.721  0.00  0.00    -0.296 NA
ATOM     13  C   UNL     1       6.030  -5.806  -1.353  0.00  0.00    +0.066 C 
ATOM     14  C   UNL     1       6.812  -5.153  -2.494  0.00  0.00    -0.064 C 
ATOM     15  N   UNL     1       6.275  -3.811  -2.752  0.00  0.00    +0.379 N 
ATOM     16  C   UNL     1       4.862  -3.914  -3.143  0.00  0.00    -0.064 C 
ATOM     17  C   UNL     1       4.064  -4.556  -2.006  0.00  0.00    +0.066 C 
ATOM     18  C   UNL     1       7.038  -3.178  -3.836  0.00  0.00    -0.096 C 
ATOM     19  H   UNL     1       6.352  -3.252  -1.916  0.00  0.00    -0.082 HD
ENDBRANCH  10  12
ENDBRANCH   9  10
BRANCH   1  20
ATOM     20  C   UNL     1       1.423  -5.938   1.163  0.00  0.00    +0.158 C 
BRANCH  20  24
ATOM     21  C   UNL     1       1.690  -1.685   1.452  0.00  0.00    -0.045 A 
ATOM     22  C   UNL     1       0.453  -2.301   1.458  0.00  0.00    +0.004 A 
ATOM     23  C   UNL     1       0.367  -3.678   1.365  0.00  0.00    +0.005 A 
ATOM     24  C   UNL     1       1.517  -4.438   1.264  0.00  0.00    -0.028 A 
ATOM     25  C   UNL     1       2.754  -3.821   1.257  0.00  0.00    +0.005 A 
ATOM     26  C   UNL     1       2.841  -2.444   1.347  0.00  0.00    +0.004 A 
BRANCH  21  27
ATOM     27  C   UNL     1       1.785  -0.184   1.555  0.00  0.00    +0.016 C 
ATOM     28  C   UNL     1       1.153   0.278   2.869  0.00  0.00    +0.012 C 
BRANCH  27  30
ATOM     29  C   UNL     1       1.242   1.971   0.414  0.00  0.00    +0.004 C 
ATOM     30  C   UNL     1       1.041   0.455   0.380  0.00  0.00    +0.004 C 
ENDBRANCH  27  30
ENDBRANCH  21  27
ENDBRANCH  20  24
ENDBRANCH   1  20
TORSDOF 6
