REMARK  Name = ZINC67080167
REMARK  7 active torsions:
REMARK  status: ('A' for Active; 'I' for Inactive)
REMARK    1  A    between atoms: C_1  and  C_2
REMARK    2  A    between atoms: C_6  and  C_7
REMARK    3  A    between atoms: N_9  and  N_10
REMARK    4  A    between atoms: N_13  and  C_14
REMARK    5  A    between atoms: C_14  and  C_15
REMARK    6  A    between atoms: N_18  and  C_21
REMARK    7  A    between atoms: C_21  and  C_22
REMARK                            x       y       z     vdW  Elec       q    Type
REMARK                         _______ _______ _______ _____ _____    ______ ____
ROOT
ATOM      1  N   UNL     1       0.058  -0.732   4.900  0.00  0.00    -0.218 N 
ATOM      2  C   UNL     1       0.080  -1.625   5.909  0.00  0.00    +0.316 C 
ATOM      3  O   UNL     1       0.086  -1.239   7.062  0.00  0.00    -0.251 OA
ATOM      4  N   UNL     1       0.096  -2.945   5.640  0.00  0.00    -0.298 N 
ATOM      5  H   UNL     1       0.047   0.219   5.094  0.00  0.00    +0.174 HD
ATOM      6  H   UNL     1       0.091  -3.253   4.720  0.00  0.00    +0.150 HD
ENDROOT
BRANCH   1   9
ATOM      7  C   UNL     1       0.030  -0.283   2.562  0.00  0.00    +0.267 C 
ATOM      8  O   UNL     1       0.016   0.910   2.805  0.00  0.00    -0.268 OA
ATOM      9  N   UNL     1       0.052  -1.176   3.571  0.00  0.00    -0.229 N 
ATOM     10  H   UNL     1       0.063  -2.126   3.378  0.00  0.00    +0.173 HD
BRANCH   7  16
ATOM     11  C   UNL     1      -0.018   1.503   0.010  0.00  0.00    +0.045 C 
ATOM     12  C   UNL     1       0.002  -0.004   0.002  0.00  0.00    -0.031 A 
ATOM     13  C   UNL     1       0.007  -0.729  -1.166  0.00  0.00    +0.011 A 
ATOM     14  C   UNL     1       0.026  -2.083  -1.101  0.00  0.00    +0.046 A 
ATOM     15  S   UNL     1       0.038  -2.416   0.545  0.00  0.00    -0.092 S 
ATOM     16  C   UNL     1       0.023  -0.748   1.172  0.00  0.00    +0.078 A 
ENDBRANCH   7  16
ENDBRANCH   1   9
BRANCH   4  17
ATOM     17  C   UNL     1       0.119  -3.916   6.737  0.00  0.00    +0.109 C 
BRANCH  17  18
ATOM     18  C   UNL     1       0.133  -5.334   6.163  0.00  0.00    +0.003 C 
ATOM     19  C   UNL     1       1.441  -5.566   5.401  0.00  0.00    -0.014 C 
ATOM     20  C   UNL     1       1.483  -7.010   4.898  0.00  0.00    -0.078 C 
ATOM     21  N   UNL     1       1.409  -7.932   6.038  0.00  0.00    +0.383 N 
ATOM     22  C   UNL     1       0.126  -7.765   6.730  0.00  0.00    -0.078 C 
ATOM     23  C   UNL     1       0.032  -6.350   7.304  0.00  0.00    -0.014 C 
ATOM     24  H   UNL     1       2.164  -7.734   6.678  0.00  0.00    -0.081 HD
BRANCH  21  25
ATOM     25  C   UNL     1       1.529  -9.314   5.556  0.00  0.00    -0.036 C 
BRANCH  25  26
ATOM     26  C   UNL     1       1.576 -10.254   6.733  0.00  0.00    -0.027 A 
ATOM     27  C   UNL     1       0.554 -10.873   7.373  0.00  0.00    +0.009 A 
ATOM     28  C   UNL     1       0.837 -11.703   8.442  0.00  0.00    +0.008 A 
ATOM     29  C   UNL     1       2.128 -11.873   8.819  0.00  0.00    +0.045 A 
ATOM     30  S   UNL     1       2.994 -10.847   7.641  0.00  0.00    -0.103 S 
ENDBRANCH  25  26
ENDBRANCH  21  25
ENDBRANCH  17  18
ENDBRANCH   4  17
TORSDOF 6
