REMARK  Name = ZINC27239128
REMARK  10 active torsions:
REMARK  status: ('A' for Active; 'I' for Inactive)
REMARK    1  A    between atoms: C_1  and  C_2
REMARK    2  A    between atoms: C_5  and  C_8
REMARK    3  A    between atoms: C_8  and  C_9
REMARK    4  A    between atoms: C_8  and  C_16
REMARK    5  A    between atoms: C_8  and  O_33
REMARK    6  A    between atoms: C_13  and  C_15
REMARK    7  A    between atoms: C_16  and  C_18
REMARK    8  A    between atoms: C_16  and  O_26
REMARK    9  A    between atoms: C_18  and  N_19
REMARK   10  A    between atoms: O_26  and  C_27
REMARK                            x       y       z     vdW  Elec       q    Type
REMARK                         _______ _______ _______ _____ _____    ______ ____
ROOT
ATOM      1  C   UNL     1       4.657   0.668   0.252  0.00  0.00    +0.151 C 
ENDROOT
BRANCH   1   6
ATOM      2  C   UNL     1       5.050  -2.094  -4.809  0.00  0.00    +0.044 C 
ATOM      3  C   UNL     1       4.947  -1.374  -3.489  0.00  0.00    -0.050 A 
ATOM      4  C   UNL     1       5.949  -1.511  -2.547  0.00  0.00    +0.004 A 
ATOM      5  C   UNL     1       5.855  -0.851  -1.336  0.00  0.00    +0.007 A 
ATOM      6  C   UNL     1       4.759  -0.052  -1.068  0.00  0.00    -0.008 A 
ATOM      7  C   UNL     1       3.754   0.081  -2.008  0.00  0.00    +0.007 A 
ATOM      8  C   UNL     1       3.850  -0.577  -3.220  0.00  0.00    +0.004 A 
ENDBRANCH   1   6
BRANCH   1   9
ATOM      9  C   UNL     1       3.760  -0.110   1.180  0.00  0.00    -0.008 A 
ATOM     10  C   UNL     1       2.483  -0.456   0.779  0.00  0.00    +0.007 A 
ATOM     11  C   UNL     1       1.661  -1.169   1.631  0.00  0.00    +0.001 A 
ATOM     12  C   UNL     1       2.115  -1.537   2.884  0.00  0.00    +0.003 A 
ATOM     13  C   UNL     1       3.392  -1.192   3.284  0.00  0.00    -0.050 A 
ATOM     14  C   UNL     1       4.216  -0.481   2.431  0.00  0.00    +0.010 A 
ATOM     15  C   UNL     1       3.888  -1.593   4.650  0.00  0.00    +0.044 C 
ENDBRANCH   1   9
BRANCH   1  16
ATOM     16  O   UNL     1       5.957   0.786   0.833  0.00  0.00    -0.376 OA
ATOM     17  H   UNL     1       6.082   1.286   1.804  0.00  0.00    +0.211 HD
ENDBRANCH   1  16
BRANCH   1  18
ATOM     18  C   UNL     1       4.071   2.063   0.027  0.00  0.00    +0.198 C 
BRANCH  18  19
ATOM     19  C   UNL     1       4.841   2.766  -1.093  0.00  0.00    -0.030 C 
BRANCH  19  20
ATOM     20  N   UNL     1       6.215   3.032  -0.650  0.00  0.00    +0.382 N 
ATOM     21  C   UNL     1       6.239   4.056   0.419  0.00  0.00    -0.079 C 
ATOM     22  C   UNL     1       7.626   4.559   0.715  0.00  0.00    -0.019 C 
ATOM     23  C   UNL     1       7.875   5.830  -0.124  0.00  0.00    -0.002 C 
ATOM     24  C   UNL     1       8.197   5.519  -1.513  0.00  0.00    -0.002 C 
ATOM     25  C   UNL     1       7.052   4.767  -2.222  0.00  0.00    -0.019 C 
ATOM     26  C   UNL     1       7.098   3.323  -1.802  0.00  0.00    -0.079 C 
ATOM     27  H   UNL     1       6.624   2.120  -0.191  0.00  0.00    -0.082 HD
ENDBRANCH  19  20
ENDBRANCH  18  19
BRANCH  18  28
ATOM     28  O   UNL     1       2.694   1.948  -0.341  0.00  0.00    -0.487 OA
BRANCH  28  29
ATOM     29  C   UNL     1       1.908   3.038  -0.136  0.00  0.00    +0.121 A 
ATOM     30  C   UNL     1       0.562   2.996  -0.471  0.00  0.00    +0.045 A 
ATOM     31  C   UNL     1      -0.234   4.107  -0.267  0.00  0.00    +0.004 A 
ATOM     32  C   UNL     1       0.307   5.255   0.281  0.00  0.00    +0.000 A 
ATOM     33  C   UNL     1       1.648   5.299   0.617  0.00  0.00    +0.004 A 
ATOM     34  C   UNL     1       2.449   4.193   0.409  0.00  0.00    +0.045 A 
ENDBRANCH  28  29
ENDBRANCH  18  28
ENDBRANCH   1  18
TORSDOF 8
