REMARK  Name = ZINC28651950
REMARK  5 active torsions:
REMARK  status: ('A' for Active; 'I' for Inactive)
REMARK    1  A    between atoms: C_1  and  C_2
REMARK    2  A    between atoms: C_8  and  N_10
REMARK    3  A    between atoms: C_11  and  C_13
REMARK    4  A    between atoms: C_13  and  N_14
REMARK    5  A    between atoms: N_14  and  C_15
REMARK                            x       y       z     vdW  Elec       q    Type
REMARK                         _______ _______ _______ _____ _____    ______ ____
ROOT
ATOM      1  N   UNL     1      -1.186  -0.732   0.010  0.00  0.00    -0.335 N 
ATOM      2  H   UNL     1      -2.152  -0.207   0.022  0.00  0.00    +0.147 HD
ENDROOT
BRANCH   1   3
ATOM      3  C   UNL     1       0.002  -0.004   0.002  0.00  0.00    +0.035 A 
ATOM      4  C   UNL     1       1.225  -0.649  -0.013  0.00  0.00    +0.024 A 
ATOM      5  C   UNL     1       2.431   0.052  -0.021  0.00  0.00    +0.006 A 
ATOM      6  C   UNL     1       2.439   1.415  -0.013  0.00  0.00    -0.039 A 
ATOM      7  C   UNL     1       1.217   2.079   0.002  0.00  0.00    -0.010 A 
ATOM      8  C   UNL     1      -0.017   1.407   0.010  0.00  0.00    +0.003 A 
ATOM      9  C   UNL     1      -1.187   2.180   0.019  0.00  0.00    +0.010 A 
ATOM     10  C   UNL     1      -1.077   3.541   0.030  0.00  0.00    +0.001 A 
ATOM     11  C   UNL     1       0.160   4.189   0.022  0.00  0.00    +0.004 A 
ATOM     12  C   UNL     1       1.314   3.468   0.007  0.00  0.00    -0.039 A 
ATOM     13  C   UNL     1       2.782   3.818  -0.004  0.00  0.00    +0.040 C 
ATOM     14  C   UNL     1       3.524   2.464  -0.017  0.00  0.00    +0.040 C 
ENDBRANCH   1   3
BRANCH   1  15
ATOM     15  C   UNL     1      -1.148  -2.196   0.002  0.00  0.00    +0.197 C 
BRANCH  15  17
ATOM     16  N   UNL     1      -2.766  -4.067   0.008  0.00  0.00    -0.311 N 
ATOM     17  C   UNL     1      -2.555  -2.736   0.013  0.00  0.00    +0.230 C 
ATOM     18  O   UNL     1      -3.497  -1.972   0.026  0.00  0.00    -0.274 OA
ATOM     19  H   UNL     1      -1.912  -4.759  -0.004  0.00  0.00    +0.149 HD
BRANCH  16  26
ATOM     20  C   UNL     1      -3.601  -5.940   2.053  0.00  0.00    +0.009 C 
ATOM     21  C   UNL     1      -4.137  -5.997   0.621  0.00  0.00    +0.006 C 
ATOM     22  C   UNL     1      -5.565  -6.545   0.632  0.00  0.00    +0.005 C 
ATOM     23  C   UNL     1      -6.101  -6.602  -0.800  0.00  0.00    +0.000 C 
ATOM     24  C   UNL     1      -6.099  -5.196  -1.402  0.00  0.00    +0.002 C 
ATOM     25  C   UNL     1      -4.670  -4.648  -1.413  0.00  0.00    +0.022 C 
ATOM     26  C   UNL     1      -4.134  -4.591   0.019  0.00  0.00    +0.076 C 
ENDBRANCH  16  26
ENDBRANCH  15  17
ENDBRANCH   1  15
TORSDOF 4
