REMARK  Name = ZINC06301146
REMARK  8 active torsions:
REMARK  status: ('A' for Active; 'I' for Inactive)
REMARK    1  A    between atoms: C_1  and  C_2
REMARK    2  A    between atoms: C_4  and  C_35
REMARK    3  A    between atoms: C_9  and  C_14
REMARK    4  A    between atoms: C_14  and  C_16
REMARK    5  A    between atoms: C_14  and  N_63
REMARK    6  A    between atoms: N_20  and  C_21
REMARK    7  A    between atoms: C_21  and  C_22
REMARK    8  A    between atoms: C_31  and  C_34
REMARK                            x       y       z     vdW  Elec       q    Type
REMARK                         _______ _______ _______ _____ _____    ______ ____
ROOT
ATOM      1  C   UNL     1       2.461   1.481   2.196  0.00  0.00    +0.039 C 
ENDROOT
BRANCH   1  10
ATOM      2  C   UNL     1       6.329  -4.249  -0.599  0.00  0.00    +0.044 C 
ATOM      3  C   UNL     1       5.773  -3.488   0.577  0.00  0.00    -0.050 A 
ATOM      4  C   UNL     1       6.004  -3.948   1.866  0.00  0.00    +0.008 A 
ATOM      5  C   UNL     1       5.504  -3.268   2.955  0.00  0.00    -0.026 A 
ATOM      6  C   UNL     1       4.761  -2.108   2.764  0.00  0.00    +0.052 A 
ATOM      7  C   UNL     1       4.529  -1.645   1.455  0.00  0.00    -0.001 A 
ATOM      8  C   UNL     1       5.045  -2.352   0.364  0.00  0.00    +0.013 A 
ATOM      9  C   UNL     1       3.741  -0.426   1.263  0.00  0.00    +0.017 A 
ATOM     10  C   UNL     1       3.271   0.221   2.358  0.00  0.00    +0.011 A 
ATOM     11  C   UNL     1       3.532  -0.286   3.650  0.00  0.00    +0.251 A 
ATOM     12  O   UNL     1       3.096   0.308   4.620  0.00  0.00    -0.268 OA
ATOM     13  N   UNL     1       4.250  -1.407   3.835  0.00  0.00    -0.322 N 
ATOM     14  H   UNL     1       4.411  -1.728   4.737  0.00  0.00    +0.169 HD
ATOM     15  C   UNL     1       5.763  -3.779   4.349  0.00  0.00    +0.046 C 
ENDBRANCH   1  10
BRANCH   1  22
ATOM     16  C   UNL     1       4.506   2.736   2.523  0.00  0.00    -0.077 C 
ATOM     17  C   UNL     1       5.184   3.781   3.411  0.00  0.00    -0.015 C 
ATOM     18  C   UNL     1       4.439   5.113   3.282  0.00  0.00    -0.018 C 
ATOM     19  C   UNL     1       2.972   4.908   3.671  0.00  0.00    -0.015 C 
ATOM     20  C   UNL     1       2.358   3.830   2.776  0.00  0.00    -0.077 C 
ATOM     21  C   UNL     1       5.075   6.147   4.214  0.00  0.00    +0.007 C 
ATOM     22  N   UNL     1       3.104   2.568   2.964  0.00  0.00    +0.389 N 
ATOM     23  H   UNL     1       3.096   2.321   3.961  0.00  0.00    -0.080 HD
ENDBRANCH   1  22
BRANCH   1  24
ATOM     24  C   UNL     1       2.379   1.841   0.735  0.00  0.00    +0.143 A 
ATOM     25  N   UNL     1       3.350   2.306  -0.012  0.00  0.00    -0.115 NA
ATOM     26  N   UNL     1       2.885   2.494  -1.198  0.00  0.00    -0.023 NA
ATOM     27  N   UNL     1       1.643   2.156  -1.229  0.00  0.00    -0.044 NA
ATOM     28  N   UNL     1       1.295   1.745  -0.056  0.00  0.00    -0.226 N 
BRANCH  28  29
ATOM     29  C   UNL     1      -0.033   1.270   0.340  0.00  0.00    +0.182 C 
BRANCH  29  30
ATOM     30  C   UNL     1      -0.157  -0.198   0.021  0.00  0.00    -0.026 A 
ATOM     31  C   UNL     1      -0.534  -0.599  -1.247  0.00  0.00    +0.008 A 
ATOM     32  C   UNL     1      -0.643  -1.945  -1.542  0.00  0.00    +0.038 A 
ATOM     33  C   UNL     1      -0.386  -2.891  -0.564  0.00  0.00    +0.123 A 
ATOM     34  C   UNL     1      -0.013  -2.487   0.707  0.00  0.00    +0.038 A 
ATOM     35  C   UNL     1       0.101  -1.141   0.998  0.00  0.00    +0.008 A 
ATOM     36  F   UNL     1      -0.497  -4.207  -0.850  0.00  0.00    -0.205 F 
ENDBRANCH  29  30
ENDBRANCH  28  29
ENDBRANCH   1  24
TORSDOF 5
