REMARK  Name = ZINC39769316
REMARK  10 active torsions:
REMARK  status: ('A' for Active; 'I' for Inactive)
REMARK    1  A    between atoms: C_1  and  C_2
REMARK    2  A    between atoms: C_2  and  N_3
REMARK    3  A    between atoms: C_4  and  N_29
REMARK    4  A    between atoms: C_5  and  C_13
REMARK    5  A    between atoms: C_6  and  C_12
REMARK    6  A    between atoms: C_7  and  C_10
REMARK    7  A    between atoms: N_17  and  C_21
REMARK    8  A    between atoms: C_21  and  C_22
REMARK    9  A    between atoms: C_25  and  C_28
REMARK   10  A    between atoms: C_33  and  C_36
REMARK                            x       y       z     vdW  Elec       q    Type
REMARK                         _______ _______ _______ _____ _____    ______ ____
ROOT
ATOM      1  N   UNL     1       1.236  -0.532  -1.312  0.00  0.00    -0.295 N 
ATOM      2  C   UNL     1       0.370  -0.707  -2.344  0.00  0.00    +0.112 A 
ATOM      3  C   UNL     1       0.740  -1.470  -3.464  0.00  0.00    +0.019 A 
ATOM      4  C   UNL     1       2.016  -2.055  -3.511  0.00  0.00    -0.017 A 
ATOM      5  C   UNL     1       2.885  -1.861  -2.440  0.00  0.00    +0.120 A 
ATOM      6  C   UNL     1       2.465  -1.077  -1.336  0.00  0.00    +0.270 A 
ATOM      7  O   UNL     1       3.223  -0.899  -0.398  0.00  0.00    -0.266 OA
ATOM      8  C   UNL     1       2.438  -2.879  -4.699  0.00  0.00    +0.046 C 
ENDROOT
BRANCH   3   9
ATOM      9  C   UNL     1      -0.198  -1.656  -4.573  0.00  0.00    +0.032 C 
ATOM     10  C   UNL     1       0.078  -1.123  -5.794  0.00  0.00    +0.077 C 
ATOM     11  C   UNL     1       1.153  -0.270  -6.191  0.00  0.00    +0.259 C 
ATOM     12  O   UNL     1       1.998   0.089  -5.390  0.00  0.00    -0.269 OA
ATOM     13  N   UNL     1       1.203   0.118  -7.454  0.00  0.00    -0.251 N 
ATOM     14  C   UNL     1       0.266  -0.281  -8.342  0.00  0.00    +0.121 C 
ATOM     15  S   UNL     1       0.136   0.096 -10.007  0.00  0.00    -0.027 S 
ATOM     16  S   UNL     1      -0.800  -1.306  -7.340  0.00  0.00    -0.061 S 
BRANCH  13  17
ATOM     17  C   UNL     1       2.292   0.993  -7.897  0.00  0.00    +0.150 C 
BRANCH  17  18
ATOM     18  C   UNL     1       3.451   0.153  -8.367  0.00  0.00    -0.030 A 
ATOM     19  C   UNL     1       4.431  -0.235  -7.473  0.00  0.00    +0.005 A 
ATOM     20  C   UNL     1       5.495  -1.005  -7.904  0.00  0.00    +0.003 A 
ATOM     21  C   UNL     1       5.579  -1.387  -9.230  0.00  0.00    -0.050 A 
ATOM     22  C   UNL     1       4.598  -0.999 -10.124  0.00  0.00    +0.003 A 
ATOM     23  C   UNL     1       3.532  -0.233  -9.692  0.00  0.00    +0.005 A 
ATOM     24  C   UNL     1       6.739  -2.226  -9.701  0.00  0.00    +0.044 C 
ENDBRANCH  17  18
ENDBRANCH  13  17
ENDBRANCH   3   9
BRANCH   2  25
ATOM     25  N   UNL     1      -0.868  -0.136  -2.293  0.00  0.00    -0.316 N 
ATOM     26  C   UNL     1      -1.117   1.169  -2.918  0.00  0.00    +0.106 C 
ATOM     27  C   UNL     1      -2.309   1.040  -3.872  0.00  0.00    +0.019 C 
ATOM     28  C   UNL     1      -3.507   0.469  -3.110  0.00  0.00    +0.006 C 
ATOM     29  C   UNL     1      -3.160  -0.923  -2.579  0.00  0.00    +0.003 C 
ATOM     30  C   UNL     1      -1.979  -0.819  -1.616  0.00  0.00    +0.109 C 
ATOM     31  C   UNL     1      -4.370  -1.507  -1.846  0.00  0.00    +0.009 C 
ENDBRANCH   2  25
BRANCH   1  33
ATOM     32  C   UNL     1       1.307   1.710  -0.337  0.00  0.00    +0.027 C 
ATOM     33  C   UNL     1       0.825   0.269  -0.156  0.00  0.00    +0.123 C 
ENDBRANCH   1  33
BRANCH   5  34
ATOM     34  C   UNL     1       4.193  -2.443  -2.457  0.00  0.00    +0.105 C 
ATOM     35  N   UNL     1       5.231  -2.906  -2.470  0.00  0.00    -0.191 NA
ENDBRANCH   5  34
TORSDOF 6
