REMARK  Name = ZINC09092086
REMARK  10 active torsions:
REMARK  status: ('A' for Active; 'I' for Inactive)
REMARK    1  A    between atoms: C_1  and  C_2
REMARK    2  A    between atoms: C_2  and  C_3
REMARK    3  A    between atoms: C_3  and  C_5
REMARK    4  A    between atoms: C_3  and  C_6
REMARK    5  A    between atoms: C_9  and  N_12
REMARK    6  A    between atoms: C_22  and  S_23
REMARK    7  A    between atoms: S_23  and  C_24
REMARK    8  A    between atoms: C_24  and  C_26
REMARK    9  A    between atoms: C_24  and  C_27
REMARK   10  A    between atoms: N_32  and  C_33
REMARK                            x       y       z     vdW  Elec       q    Type
REMARK                         _______ _______ _______ _____ _____    ______ ____
ROOT
ATOM      1  N   UNL     1      -6.334   1.113  -1.184  0.00  0.00    -0.255 N 
ATOM      2  C   UNL     1      -6.990   0.098  -1.793  0.00  0.00    +0.267 A 
ATOM      3  O   UNL     1      -7.729   0.302  -2.739  0.00  0.00    -0.267 OA
ATOM      4  C   UNL     1      -6.784  -1.258  -1.267  0.00  0.00    +0.067 A 
ATOM      5  C   UNL     1      -7.419  -2.368  -1.824  0.00  0.00    +0.035 A 
ATOM      6  C   UNL     1      -7.188  -3.618  -1.290  0.00  0.00    +0.042 A 
ATOM      7  C   UNL     1      -6.330  -3.777  -0.208  0.00  0.00    +0.022 A 
ATOM      8  C   UNL     1      -5.698  -2.703   0.352  0.00  0.00    +0.030 A 
ATOM      9  C   UNL     1      -5.912  -1.422  -0.167  0.00  0.00    +0.079 A 
ATOM     10  N   UNL     1      -5.304  -0.334   0.361  0.00  0.00    -0.223 NA
ATOM     11  C   UNL     1      -5.504   0.866  -0.125  0.00  0.00    +0.177 A 
ATOM     12 CL   UNL     1      -7.975  -5.005  -1.976  0.00  0.00    -0.084 Cl
ENDROOT
BRANCH   1  16
ATOM     13  C   UNL     1      -6.835   5.017  -2.554  0.00  0.00    -0.044 A 
ATOM     14  C   UNL     1      -7.670   4.518  -1.571  0.00  0.00    +0.006 A 
ATOM     15  C   UNL     1      -7.507   3.225  -1.115  0.00  0.00    +0.026 A 
ATOM     16  C   UNL     1      -6.503   2.425  -1.644  0.00  0.00    +0.052 A 
ATOM     17  C   UNL     1      -5.662   2.930  -2.627  0.00  0.00    +0.026 A 
ATOM     18  C   UNL     1      -5.834   4.223  -3.083  0.00  0.00    +0.006 A 
BRANCH  13  19
ATOM     19  C   UNL     1      -7.016   6.428  -3.050  0.00  0.00    +0.016 C 
ATOM     20  C   UNL     1      -5.736   7.227  -2.795  0.00  0.00    +0.012 C 
BRANCH  19  22
ATOM     21  C   UNL     1      -7.620   7.828  -5.030  0.00  0.00    +0.004 C 
ATOM     22  C   UNL     1      -7.313   6.407  -4.551  0.00  0.00    +0.004 C 
ENDBRANCH  19  22
ENDBRANCH  13  19
ENDBRANCH   1  16
BRANCH  11  23
ATOM     23  S   UNL     1      -4.670   2.226   0.623  0.00  0.00    -0.075 S 
BRANCH  23  24
ATOM     24  C   UNL     1      -3.754   1.357   1.920  0.00  0.00    +0.137 C 
ATOM     25  C   UNL     1      -4.739   0.748   2.920  0.00  0.00    +0.029 C 
BRANCH  24  26
ATOM     26  C   UNL     1      -2.851   2.330   2.634  0.00  0.00    +0.233 C 
ATOM     27  O   UNL     1      -3.121   3.511   2.647  0.00  0.00    -0.274 OA
ATOM     28  N   UNL     1      -1.742   1.885   3.259  0.00  0.00    -0.239 N 
ATOM     29  C   UNL     1      -0.932   2.756   3.893  0.00  0.00    +0.306 C 
ATOM     30  O   UNL     1      -1.203   3.940   3.906  0.00  0.00    -0.252 OA
ATOM     31  N   UNL     1       0.180   2.312   4.513  0.00  0.00    -0.302 N 
ATOM     32  C   UNL     1       1.061   3.258   5.202  0.00  0.00    +0.129 C 
ATOM     33  H   UNL     1      -1.526   0.940   3.249  0.00  0.00    +0.159 HD
ATOM     34  H   UNL     1       0.396   1.367   4.503  0.00  0.00    +0.150 HD
ENDBRANCH  24  26
ENDBRANCH  23  24
ENDBRANCH  11  23
TORSDOF 6
