REMARK  Name = ZINC13640250
REMARK  8 active torsions:
REMARK  status: ('A' for Active; 'I' for Inactive)
REMARK    1  A    between atoms: C_1  and  C_2
REMARK    2  A    between atoms: C_2  and  C_3
REMARK    3  A    between atoms: C_2  and  C_4
REMARK    4  A    between atoms: C_4  and  O_5
REMARK    5  A    between atoms: O_5  and  C_6
REMARK    6  A    between atoms: C_13  and  C_22
REMARK    7  A    between atoms: C_25  and  O_29
REMARK    8  A    between atoms: C_27  and  O_28
REMARK                            x       y       z     vdW  Elec       q    Type
REMARK                         _______ _______ _______ _____ _____    ______ ____
ROOT
ATOM      1  C   UNL     1       0.270   0.507   4.076  0.00  0.00    +0.142 A 
ATOM      2  C   UNL     1       1.226  -0.175   4.805  0.00  0.00    +0.047 A 
ATOM      3  C   UNL     1       1.275  -0.027   6.179  0.00  0.00    +0.004 A 
ATOM      4  C   UNL     1       0.367   0.791   6.819  0.00  0.00    +0.006 A 
ATOM      5  C   UNL     1      -0.601   1.479   6.097  0.00  0.00    -0.016 A 
ATOM      6  C   UNL     1      -0.651   1.337   4.723  0.00  0.00    +0.074 A 
ATOM      7  N   UNL     1      -1.602   1.997   3.941  0.00  0.00    -0.334 N 
ATOM      8  C   UNL     1      -2.079   3.228   4.572  0.00  0.00    +0.109 C 
ATOM      9  C   UNL     1      -2.672   2.901   5.944  0.00  0.00    +0.029 C 
ATOM     10  C   UNL     1      -1.553   2.356   6.856  0.00  0.00    +0.049 C 
ATOM     11  C   UNL     1      -0.850   3.595   7.359  0.00  0.00    -0.023 C 
ATOM     12  C   UNL     1      -1.631   4.641   7.251  0.00  0.00    -0.030 C 
ATOM     13  C   UNL     1      -2.972   4.245   6.665  0.00  0.00    +0.033 C 
ATOM     14  H   UNL     1      -1.244   2.180   3.015  0.00  0.00    +0.147 HD
ENDROOT
BRANCH   8  15
ATOM     15  C   UNL     1      -0.927   4.186   4.738  0.00  0.00    +0.015 A 
ATOM     16  C   UNL     1       0.344   3.702   4.981  0.00  0.00    +0.012 A 
ATOM     17  C   UNL     1       1.403   4.577   5.129  0.00  0.00    +0.046 A 
ATOM     18  C   UNL     1       1.190   5.946   5.045  0.00  0.00    +0.120 A 
ATOM     19  C   UNL     1      -0.085   6.434   4.806  0.00  0.00    +0.091 A 
ATOM     20  C   UNL     1      -1.145   5.554   4.653  0.00  0.00    +0.125 A 
BRANCH  20  21
ATOM     21  O   UNL     1      -2.396   6.030   4.420  0.00  0.00    -0.506 OA
ATOM     22  H   UNL     1      -2.870   6.298   5.219  0.00  0.00    +0.292 HD
ENDBRANCH  20  21
BRANCH  18  23
ATOM     23  O   UNL     1       2.231   6.806   5.195  0.00  0.00    -0.507 OA
ATOM     24  H   UNL     1       2.382   7.086   6.109  0.00  0.00    +0.292 HD
ENDBRANCH  18  23
ENDBRANCH   8  15
BRANCH   1  25
ATOM     25  O   UNL     1       0.221   0.366   2.724  0.00  0.00    -0.490 OA
BRANCH  25  26
ATOM     26  C   UNL     1       1.191  -0.496   2.126  0.00  0.00    +0.232 C 
BRANCH  26  28
ATOM     27  C   UNL     1       2.093  -1.351  -0.041  0.00  0.00    +0.010 C 
ATOM     28  C   UNL     1       0.980  -0.528   0.611  0.00  0.00    +0.020 C 
ATOM     29  C   UNL     1      -0.375  -1.164   0.298  0.00  0.00    +0.010 C 
ENDBRANCH  26  28
ENDBRANCH  25  26
ENDBRANCH   1  25
TORSDOF 6
