REMARK  Name = ZINC04454932
REMARK  12 active torsions:
REMARK  status: ('A' for Active; 'I' for Inactive)
REMARK    1  A    between atoms: C_1  and  C_2
REMARK    2  A    between atoms: C_2  and  C_3
REMARK    3  A    between atoms: C_3  and  C_4
REMARK    4  A    between atoms: C_3  and  C_5
REMARK    5  A    between atoms: C_3  and  C_6
REMARK    6  A    between atoms: N_12  and  C_17
REMARK    7  A    between atoms: C_17  and  C_18
REMARK    8  A    between atoms: N_20  and  C_21
REMARK    9  A    between atoms: C_21  and  C_22
REMARK   10  A    between atoms: C_22  and  C_23
REMARK   11  A    between atoms: C_23  and  N_67
REMARK   12  A    between atoms: C_28  and  C_30
REMARK                            x       y       z     vdW  Elec       q    Type
REMARK                         _______ _______ _______ _____ _____    ______ ____
ROOT
ATOM      1  C   UNL     1       5.486   8.799  -7.256  0.00  0.00    -0.040 A 
ATOM      2  C   UNL     1       6.776   9.222  -7.520  0.00  0.00    +0.008 A 
ATOM      3  C   UNL     1       7.628   9.549  -6.481  0.00  0.00    +0.048 A 
ATOM      4  C   UNL     1       7.189   9.453  -5.172  0.00  0.00    +0.143 A 
ATOM      5  C   UNL     1       5.888   9.026  -4.907  0.00  0.00    +0.079 A 
ATOM      6  C   UNL     1       5.040   8.700  -5.951  0.00  0.00    +0.031 A 
ATOM      7  N   UNL     1       5.456   8.933  -3.576  0.00  0.00    -0.257 N 
ATOM      8  C   UNL     1       6.172   9.549  -2.610  0.00  0.00    +0.258 C 
ATOM      9  O   UNL     1       5.831   9.461  -1.450  0.00  0.00    -0.271 OA
ATOM     10  C   UNL     1       7.398  10.344  -2.980  0.00  0.00    +0.325 C 
ATOM     11  O   UNL     1       8.012   9.772  -4.139  0.00  0.00    -0.481 OA
ENDROOT
BRANCH   1  12
ATOM     12  C   UNL     1       4.564   8.445  -8.395  0.00  0.00    -0.010 C 
ATOM     13  C   UNL     1       4.127   6.985  -8.262  0.00  0.00    +0.016 C 
ATOM     14  C   UNL     1       3.333   9.352  -8.354  0.00  0.00    +0.016 C 
BRANCH  12  16
ATOM     15  C   UNL     1       4.361   8.280 -10.879  0.00  0.00    +0.005 C 
ATOM     16  C   UNL     1       5.297   8.639  -9.724  0.00  0.00    +0.007 C 
ENDBRANCH  12  16
ENDBRANCH   1  12
BRANCH   7  17
ATOM     17  C   UNL     1       4.244   8.182  -3.239  0.00  0.00    +0.209 C 
BRANCH  17  18
ATOM     18  C   UNL     1       4.604   6.747  -2.954  0.00  0.00    +0.231 C 
ATOM     19  O   UNL     1       5.760   6.386  -3.026  0.00  0.00    -0.274 OA
ATOM     20  N   UNL     1       3.642   5.864  -2.620  0.00  0.00    -0.314 N 
ATOM     21  H   UNL     1       2.718   6.153  -2.563  0.00  0.00    +0.149 HD
BRANCH  20  22
ATOM     22  C   UNL     1       3.993   4.469  -2.344  0.00  0.00    +0.102 C 
BRANCH  22  23
ATOM     23  C   UNL     1       2.726   3.685  -1.992  0.00  0.00    +0.000 C 
BRANCH  23  24
ATOM     24  C   UNL     1       3.092   2.228  -1.703  0.00  0.00    -0.077 C 
BRANCH  24  31
ATOM     25  C   UNL     1       1.357   1.878  -0.052  0.00  0.00    -0.078 C 
ATOM     26  C   UNL     1       0.017   1.184   0.203  0.00  0.00    -0.019 C 
ATOM     27  C   UNL     1       0.217  -0.334   0.155  0.00  0.00    -0.003 C 
ATOM     28  C   UNL     1       0.804  -0.721  -1.205  0.00  0.00    -0.016 C 
ATOM     29  C   UNL     1       2.121   0.029  -1.418  0.00  0.00    -0.072 C 
ATOM     30  C   UNL     1       2.702  -0.340  -2.785  0.00  0.00    -0.013 C 
ATOM     31  N   UNL     1       1.856   1.483  -1.386  0.00  0.00    +0.381 N 
ATOM     32  H   UNL     1       1.142   1.707  -2.089  0.00  0.00    -0.081 HD
ENDBRANCH  24  31
ENDBRANCH  23  24
ENDBRANCH  22  23
ENDBRANCH  20  22
ENDBRANCH  17  18
ENDBRANCH   7  17
TORSDOF 8
