REMARK  Name = ZINC63383939
REMARK  9 active torsions:
REMARK  status: ('A' for Active; 'I' for Inactive)
REMARK    1  A    between atoms: C_1  and  C_2
REMARK    2  A    between atoms: C_2  and  C_3
REMARK    3  A    between atoms: C_3  and  C_5
REMARK    4  A    between atoms: C_3  and  C_6
REMARK    5  A    between atoms: C_6  and  C_8
REMARK    6  A    between atoms: C_6  and  N_17
REMARK    7  A    between atoms: N_10  and  C_11
REMARK    8  A    between atoms: C_11  and  C_12
REMARK    9  A    between atoms: C_18  and  C_20
REMARK                            x       y       z     vdW  Elec       q    Type
REMARK                         _______ _______ _______ _____ _____    ______ ____
ROOT
ATOM      1  C   UNL     1      -0.071  -2.906  -5.332  0.00  0.00    +0.167 C 
ATOM      2  C   UNL     1      -0.773  -2.161  -6.484  0.00  0.00    +0.065 C 
ATOM      3  C   UNL     1      -1.802  -3.104  -7.056  0.00  0.00    -0.034 C 
ATOM      4  C   UNL     1      -2.023  -3.481  -8.312  0.00  0.00    -0.001 A 
ATOM      5  C   UNL     1      -1.418  -3.051  -9.583  0.00  0.00    +0.010 A 
ATOM      6  C   UNL     1      -1.877  -3.667 -10.704  0.00  0.00    +0.001 A 
ATOM      7  C   UNL     1      -2.865  -4.656 -10.689  0.00  0.00    +0.002 A 
ATOM      8  C   UNL     1      -3.481  -5.107  -9.567  0.00  0.00    +0.026 A 
ATOM      9  C   UNL     1      -3.087  -4.530  -8.325  0.00  0.00    +0.043 A 
ATOM     10  N   UNL     1      -3.516  -4.756  -7.119  0.00  0.00    -0.375 N 
ATOM     11  C   UNL     1      -2.823  -3.846  -6.205  0.00  0.00    +0.131 C 
ATOM     12  C   UNL     1      -2.051  -4.598  -5.122  0.00  0.00    +0.134 C 
ATOM     13  N   UNL     1      -0.618  -4.267  -5.266  0.00  0.00    -0.276 N 
ATOM     14  C   UNL     1       0.082  -5.414  -5.341  0.00  0.00    +0.248 C 
ATOM     15  O   UNL     1       1.295  -5.492  -5.340  0.00  0.00    -0.270 OA
ATOM     16  C   UNL     1      -0.832  -6.556  -5.425  0.00  0.00    +0.042 A 
ATOM     17  C   UNL     1      -2.174  -6.077  -5.285  0.00  0.00    -0.013 A 
ATOM     18  C   UNL     1      -3.268  -6.912  -5.319  0.00  0.00    +0.006 A 
ATOM     19  C   UNL     1      -3.022  -8.272  -5.481  0.00  0.00    +0.000 A 
ATOM     20  C   UNL     1      -1.740  -8.770  -5.601  0.00  0.00    +0.001 A 
ATOM     21  C   UNL     1      -0.576  -7.919  -5.590  0.00  0.00    +0.013 A 
ATOM     22  H   UNL     1      -4.182  -5.415  -6.867  0.00  0.00    +0.160 HD
ENDROOT
BRANCH   1  24
ATOM     23  N   UNL     1       0.079  -0.915  -3.872  0.00  0.00    -0.302 N 
ATOM     24  C   UNL     1      -0.329  -2.190  -4.032  0.00  0.00    +0.235 C 
ATOM     25  O   UNL     1      -0.903  -2.761  -3.128  0.00  0.00    -0.274 OA
ATOM     26  H   UNL     1       0.537  -0.458  -4.594  0.00  0.00    +0.150 HD
BRANCH  23  27
ATOM     27  C   UNL     1      -0.172  -0.219  -2.607  0.00  0.00    +0.162 C 
BRANCH  27  28
ATOM     28  C   UNL     1      -0.209   1.268  -2.851  0.00  0.00    +0.234 C 
ATOM     29  O   UNL     1       0.280   1.729  -3.861  0.00  0.00    -0.274 OA
ATOM     30  N   UNL     1      -0.784   2.085  -1.947  0.00  0.00    -0.307 N 
ATOM     31  H   UNL     1      -1.106   1.727  -1.105  0.00  0.00    +0.149 HD
BRANCH  30  32
ATOM     32  C   UNL     1      -0.923   3.515  -2.235  0.00  0.00    +0.178 C 
BRANCH  32  33
ATOM     33  C   UNL     1      -1.593   4.199  -1.072  0.00  0.00    +0.122 A 
ATOM     34  C   UNL     1      -0.967   4.747  -0.015  0.00  0.00    +0.046 A 
ATOM     35  C   UNL     1      -1.972   5.274   0.828  0.00  0.00    +0.041 A 
ATOM     36  C   UNL     1      -3.152   5.017   0.236  0.00  0.00    +0.195 A 
ATOM     37  O   UNL     1      -2.916   4.371  -0.917  0.00  0.00    -0.466 OA
ENDBRANCH  32  33
ENDBRANCH  30  32
ENDBRANCH  27  28
BRANCH  27  38
ATOM     38  C   UNL     1       0.946  -0.546  -1.615  0.00  0.00    +0.015 C 
ATOM     39  C   UNL     1       2.302  -0.249  -2.259  0.00  0.00    +0.010 C 
BRANCH  38  41
ATOM     40  C   UNL     1      -0.419  -2.292  -0.462  0.00  0.00    +0.004 C 
ATOM     41  C   UNL     1       0.874  -2.026  -1.236  0.00  0.00    +0.002 C 
ENDBRANCH  38  41
ENDBRANCH  27  38
ENDBRANCH  23  27
ENDBRANCH   1  24
TORSDOF 7
