REMARK  Name = ZINC64143397
REMARK  12 active torsions:
REMARK  status: ('A' for Active; 'I' for Inactive)
REMARK    1  A    between atoms: C_1  and  C_2
REMARK    2  A    between atoms: C_2  and  C_3
REMARK    3  A    between atoms: C_2  and  C_4
REMARK    4  A    between atoms: C_4  and  C_5
REMARK    5  A    between atoms: C_5  and  C_7
REMARK    6  A    between atoms: C_5  and  N_30
REMARK    7  A    between atoms: N_16  and  C_19
REMARK    8  A    between atoms: C_19  and  C_20
REMARK    9  A    between atoms: C_31  and  C_33
REMARK   10  A    between atoms: C_36  and  C_38
REMARK   11  A    between atoms: C_38  and  O_39
REMARK   12  A    between atoms: O_39  and  C_40
REMARK                            x       y       z     vdW  Elec       q    Type
REMARK                         _______ _______ _______ _____ _____    ______ ____
ROOT
ATOM      1  C   UNL     1       0.635   0.008   3.863  0.00  0.00    +0.219 C 
ATOM      2  N   UNL     1       0.754  -1.312   4.516  0.00  0.00    -0.170 NA
ATOM      3  N   UNL     1      -0.185  -1.495   5.315  0.00  0.00    -0.172 NA
ATOM      4  C   UNL     1      -1.089  -0.353   5.292  0.00  0.00    +0.200 C 
ATOM      5  N   UNL     1      -0.213   0.771   4.792  0.00  0.00    -0.254 NA
ATOM      6  C   UNL     1      -1.080   1.772   4.261  0.00  0.00    +0.104 C 
ATOM      7  C   UNL     1      -2.067   2.317   5.287  0.00  0.00    +0.100 C 
ATOM      8  N   UNL     1      -3.237   1.474   5.452  0.00  0.00    -0.299 NA
ATOM      9  C   UNL     1      -3.054   0.470   6.556  0.00  0.00    +0.088 C 
ATOM     10  C   UNL     1      -1.577   0.107   6.664  0.00  0.00    +0.060 C 
ENDROOT
BRANCH   1  11
ATOM     11  C   UNL     1      -0.042  -0.124   2.497  0.00  0.00    +0.115 C 
BRANCH  11  12
ATOM     12  N   UNL     1      -1.243  -0.953   2.626  0.00  0.00    -0.303 N 
ATOM     13  C   UNL     1      -2.362  -0.627   1.949  0.00  0.00    +0.280 C 
ATOM     14  O   UNL     1      -2.375   0.356   1.232  0.00  0.00    -0.267 OA
ATOM     15  H   UNL     1      -1.232  -1.736   3.197  0.00  0.00    +0.150 HD
BRANCH  13  16
ATOM     16  C   UNL     1      -3.564  -1.457   2.078  0.00  0.00    +0.190 A 
ATOM     17  C   UNL     1      -4.757  -1.244   1.447  0.00  0.00    +0.055 A 
ATOM     18  C   UNL     1      -5.618  -2.274   1.857  0.00  0.00    +0.048 A 
ATOM     19  C   UNL     1      -4.923  -3.060   2.708  0.00  0.00    +0.131 A 
ATOM     20  O   UNL     1      -3.684  -2.567   2.834  0.00  0.00    -0.453 OA
BRANCH  19  21
ATOM     21  C   UNL     1      -5.452  -4.291   3.397  0.00  0.00    +0.233 C 
BRANCH  21  22
ATOM     22  O   UNL     1      -5.208  -5.437   2.580  0.00  0.00    -0.375 OA
ATOM     23  C   UNL     1      -5.674  -6.664   3.145  0.00  0.00    +0.194 C 
ENDBRANCH  21  22
ENDBRANCH  19  21
ENDBRANCH  13  16
ENDBRANCH  11  12
BRANCH  11  24
ATOM     24  C   UNL     1       0.926  -0.778   1.509  0.00  0.00    +0.028 C 
BRANCH  24  26
ATOM     25  C   UNL     1       0.118   0.639  -0.383  0.00  0.00    +0.007 C 
ATOM     26  C   UNL     1       0.296  -0.796   0.115  0.00  0.00    -0.015 C 
ATOM     27  C   UNL     1       1.209  -1.560  -0.847  0.00  0.00    +0.007 C 
ENDBRANCH  24  26
ENDBRANCH  11  24
ENDBRANCH   1  11
BRANCH   8  28
ATOM     28  C   UNL     1      -4.443   2.284   5.672  0.00  0.00    +0.113 C 
BRANCH  28  29
ATOM     29  C   UNL     1      -4.751   3.092   4.410  0.00  0.00    +0.117 C 
ATOM     30  C   UNL     1      -6.085   3.791   4.551  0.00  0.00    +0.008 C 
ATOM     31  C   UNL     1      -6.867   3.309   3.558  0.00  0.00    -0.004 A 
ATOM     32  C   UNL     1      -8.254   3.585   3.162  0.00  0.00    +0.010 A 
ATOM     33  C   UNL     1      -8.774   2.931   2.098  0.00  0.00    +0.001 A 
ATOM     34  C   UNL     1      -8.025   1.999   1.367  0.00  0.00    +0.002 A 
ATOM     35  C   UNL     1      -6.745   1.693   1.670  0.00  0.00    +0.026 A 
ATOM     36  C   UNL     1      -6.097   2.321   2.769  0.00  0.00    +0.043 A 
ATOM     37  N   UNL     1      -4.885   2.196   3.256  0.00  0.00    -0.377 N 
ATOM     38  H   UNL     1      -4.193   1.611   2.911  0.00  0.00    +0.160 HD
ENDBRANCH  28  29
ENDBRANCH   8  28
TORSDOF 9
