REMARK  Name = ZINC03592661
REMARK  7 active torsions:
REMARK  status: ('A' for Active; 'I' for Inactive)
REMARK    1  A    between atoms: C_1  and  C_2
REMARK    2  A    between atoms: N_10  and  C_14
REMARK    3  A    between atoms: C_14  and  C_15
REMARK    4  A    between atoms: N_17  and  C_18
REMARK    5  A    between atoms: C_23  and  C_24
REMARK    6  A    between atoms: C_24  and  C_25
REMARK    7  A    between atoms: C_24  and  C_26
REMARK                            x       y       z     vdW  Elec       q    Type
REMARK                         _______ _______ _______ _____ _____    ______ ____
ROOT
ATOM      1  C   UNL     1       0.446   7.984   0.038  0.00  0.00    +0.007 C 
ATOM      2  C   UNL     1       0.982   6.551   0.022  0.00  0.00    -0.014 C 
ATOM      3  C   UNL     1       0.504   5.814   1.276  0.00  0.00    +0.006 C 
ATOM      4  C   UNL     1       1.050   4.384   1.265  0.00  0.00    +0.035 C 
ATOM      5  C   UNL     1       0.564   3.661   0.014  0.00  0.00    +0.113 C 
ATOM      6  C   UNL     1       1.011   4.397  -1.244  0.00  0.00    +0.035 C 
ATOM      7  C   UNL     1       0.465   5.827  -1.223  0.00  0.00    +0.006 C 
ATOM      8  C   UNL     1       1.070   2.237  -0.002  0.00  0.00    +0.247 C 
ATOM      9  O   UNL     1       2.225   1.869  -0.021  0.00  0.00    -0.273 OA
ATOM     10  N   UNL     1      -0.034   1.461   0.011  0.00  0.00    -0.215 N 
ATOM     11  C   UNL     1      -1.152   2.197   0.028  0.00  0.00    +0.310 C 
ATOM     12  O   UNL     1      -2.272   1.724   0.037  0.00  0.00    -0.252 OA
ATOM     13  N   UNL     1      -0.897   3.519   0.036  0.00  0.00    -0.285 N 
ATOM     14  H   UNL     1      -1.550   4.236   0.050  0.00  0.00    +0.151 HD
ENDROOT
BRANCH  10  15
ATOM     15  C   UNL     1      -0.011  -0.003   0.003  0.00  0.00    +0.214 C 
BRANCH  15  16
ATOM     16  C   UNL     1       0.019  -0.514   1.421  0.00  0.00    +0.235 C 
ATOM     17  O   UNL     1       0.022   0.269   2.347  0.00  0.00    -0.274 OA
ATOM     18  N   UNL     1       0.043  -1.840   1.659  0.00  0.00    -0.284 N 
ATOM     19  H   UNL     1      -0.026  -2.467   0.922  0.00  0.00    +0.155 HD
BRANCH  18  20
ATOM     20  C   UNL     1       0.168  -2.313   2.970  0.00  0.00    +0.037 A 
ATOM     21  C   UNL     1      -0.423  -1.620   4.019  0.00  0.00    +0.023 A 
ATOM     22  C   UNL     1      -0.303  -2.092   5.311  0.00  0.00    +0.002 A 
ATOM     23  C   UNL     1       0.413  -3.248   5.562  0.00  0.00    +0.000 A 
ATOM     24  C   UNL     1       1.007  -3.937   4.521  0.00  0.00    +0.006 A 
ATOM     25  C   UNL     1       0.887  -3.473   3.226  0.00  0.00    -0.024 A 
BRANCH  25  26
ATOM     26  C   UNL     1       1.535  -4.224   2.092  0.00  0.00    +0.015 C 
ATOM     27  C   UNL     1       3.027  -4.398   2.382  0.00  0.00    +0.012 C 
ATOM     28  C   UNL     1       0.880  -5.599   1.950  0.00  0.00    +0.012 C 
ENDBRANCH  25  26
ENDBRANCH  18  20
ENDBRANCH  15  16
ENDBRANCH  10  15
TORSDOF 4
