REMARK  Name = ZINC22697444
REMARK  12 active torsions:
REMARK  status: ('A' for Active; 'I' for Inactive)
REMARK    1  A    between atoms: C_1  and  C_2
REMARK    2  A    between atoms: C_2  and  C_3
REMARK    3  A    between atoms: C_2  and  C_4
REMARK    4  A    between atoms: C_4  and  C_6
REMARK    5  A    between atoms: C_4  and  N_23
REMARK    6  A    between atoms: N_11  and  C_14
REMARK    7  A    between atoms: C_14  and  C_15
REMARK    8  A    between atoms: C_24  and  C_26
REMARK    9  A    between atoms: C_29  and  C_32
REMARK   10  A    between atoms: C_32  and  C_33
REMARK   11  A    between atoms: C_32  and  C_34
REMARK   12  A    between atoms: C_32  and  C_35
REMARK                            x       y       z     vdW  Elec       q    Type
REMARK                         _______ _______ _______ _____ _____    ______ ____
ROOT
ATOM      1  C   UNL     1      -0.977   0.269  -4.335  0.00  0.00    +0.162 C 
ENDROOT
BRANCH   1   2
ATOM      2  C   UNL     1      -0.227   0.353  -3.030  0.00  0.00    +0.236 C 
ATOM      3  O   UNL     1       0.804  -0.268  -2.882  0.00  0.00    -0.274 OA
ATOM      4  N   UNL     1      -0.702   1.119  -2.028  0.00  0.00    -0.303 N 
ATOM      5  C   UNL     1      -0.044   1.134  -0.713  0.00  0.00    +0.089 C 
ATOM      6  C   UNL     1      -1.102   0.885   0.368  0.00  0.00    -0.059 C 
ATOM      7  N   UNL     1      -2.199   1.850   0.206  0.00  0.00    +0.387 N 
ATOM      8  C   UNL     1      -2.879   1.677  -1.084  0.00  0.00    -0.059 C 
ATOM      9  C   UNL     1      -1.892   1.962  -2.221  0.00  0.00    +0.089 C 
ATOM     10  H   UNL     1      -1.759   2.858   0.217  0.00  0.00    -0.081 HD
BRANCH   7  11
ATOM     11  C   UNL     1      -3.151   1.755   1.321  0.00  0.00    +0.019 C 
BRANCH  11  12
ATOM     12  C   UNL     1      -3.736   0.367   1.365  0.00  0.00    +0.199 C 
ATOM     13  O   UNL     1      -3.430  -0.447   0.520  0.00  0.00    -0.278 OA
ATOM     14  N   UNL     1      -4.598   0.030   2.344  0.00  0.00    -0.303 N 
ATOM     15  C   UNL     1      -4.973   1.003   3.379  0.00  0.00    +0.107 C 
ATOM     16  C   UNL     1      -6.506   1.099   3.427  0.00  0.00    +0.019 C 
ATOM     17  C   UNL     1      -7.092  -0.299   3.638  0.00  0.00    +0.003 C 
ATOM     18  C   UNL     1      -6.702  -1.200   2.463  0.00  0.00    +0.019 C 
ATOM     19  C   UNL     1      -5.176  -1.319   2.401  0.00  0.00    +0.107 C 
ENDBRANCH  11  12
ENDBRANCH   7  11
ENDBRANCH   1   2
BRANCH   1  20
ATOM     20  N   UNL     1      -0.765  -1.050  -4.936  0.00  0.00    -0.300 N 
ATOM     21  C   UNL     1      -1.675  -1.555  -5.792  0.00  0.00    +0.245 C 
ATOM     22  O   UNL     1      -2.673  -0.917  -6.064  0.00  0.00    -0.270 OA
ATOM     23  H   UNL     1       0.138  -1.628  -4.689  0.00  0.00    +0.150 HD
BRANCH  21  24
ATOM     24  C   UNL     1      -1.461  -2.886  -6.398  0.00  0.00    +0.037 A 
ATOM     25  C   UNL     1      -0.314  -3.620  -6.092  0.00  0.00    +0.013 A 
ATOM     26  C   UNL     1      -0.122  -4.863  -6.658  0.00  0.00    +0.005 A 
ATOM     27  C   UNL     1      -1.059  -5.379  -7.536  0.00  0.00    -0.042 A 
ATOM     28  C   UNL     1      -2.196  -4.655  -7.848  0.00  0.00    +0.005 A 
ATOM     29  C   UNL     1      -2.402  -3.413  -7.285  0.00  0.00    +0.013 A 
BRANCH  27  30
ATOM     30  C   UNL     1      -0.840  -6.736  -8.155  0.00  0.00    -0.013 C 
ATOM     31  C   UNL     1      -0.787  -6.599  -9.678  0.00  0.00    +0.015 C 
ATOM     32  C   UNL     1       0.481  -7.320  -7.649  0.00  0.00    +0.015 C 
ATOM     33  C   UNL     1      -1.991  -7.665  -7.765  0.00  0.00    +0.015 C 
ENDBRANCH  27  30
ENDBRANCH  21  24
ENDBRANCH   1  20
BRANCH   1  35
ATOM     34  C   UNL     1      -1.323   1.361  -6.555  0.00  0.00    +0.009 C 
ATOM     35  C   UNL     1      -0.467   1.352  -5.287  0.00  0.00    +0.012 C 
ATOM     36  C   UNL     1      -0.555   2.717  -4.602  0.00  0.00    +0.009 C 
ENDBRANCH   1  35
TORSDOF 7
