REMARK  Name = ZINC19974564
REMARK  5 active torsions:
REMARK  status: ('A' for Active; 'I' for Inactive)
REMARK    1  A    between atoms: C_4  and  C_7
REMARK    2  A    between atoms: C_8  and  C_9
REMARK    3  A    between atoms: C_11  and  C_22
REMARK    4  A    between atoms: C_13  and  C_15
REMARK    5  A    between atoms: C_20  and  O_21
REMARK                            x       y       z     vdW  Elec       q    Type
REMARK                         _______ _______ _______ _____ _____    ______ ____
ROOT
ATOM      1  C   UNL     1      -3.615   2.092   0.030  0.00  0.00    +0.157 A 
ATOM      2  N   UNL     1      -2.452   1.438   0.016  0.00  0.00    -0.208 NA
ATOM      3  C   UNL     1      -1.309   2.116   0.020  0.00  0.00    +0.164 A 
ATOM      4  N   UNL     1      -1.324   3.446   0.027  0.00  0.00    -0.208 NA
ATOM      5  C   UNL     1      -2.483   4.101   0.036  0.00  0.00    +0.168 A 
ATOM      6  N   UNL     1      -3.628   3.425   0.037  0.00  0.00    -0.208 NA
ENDROOT
BRANCH   5   7
ATOM      7  C   UNL     1      -2.497   5.581   0.044  0.00  0.00    +0.061 A 
ATOM      8  C   UNL     1      -1.298   6.294   0.048  0.00  0.00    +0.015 A 
ATOM      9  C   UNL     1      -1.317   7.673   0.050  0.00  0.00    +0.001 A 
ATOM     10  C   UNL     1      -2.523   8.354   0.059  0.00  0.00    +0.004 A 
ATOM     11  C   UNL     1      -3.716   7.659   0.061  0.00  0.00    +0.046 A 
ATOM     12  C   UNL     1      -3.713   6.273   0.054  0.00  0.00    +0.128 A 
BRANCH  12  13
ATOM     13  O   UNL     1      -4.886   5.589   0.056  0.00  0.00    -0.506 OA
ATOM     14  H   UNL     1      -5.841   6.134   0.064  0.00  0.00    +0.292 HD
ENDBRANCH  12  13
ENDBRANCH   5   7
BRANCH   3  15
ATOM     15  C   UNL     1      -0.017   1.390   0.010  0.00  0.00    +0.019 A 
ATOM     16  C   UNL     1       1.184   2.098   0.002  0.00  0.00    +0.011 A 
ATOM     17  C   UNL     1       2.384   1.416  -0.013  0.00  0.00    +0.001 A 
ATOM     18  C   UNL     1       2.396   0.033  -0.021  0.00  0.00    +0.000 A 
ATOM     19  C   UNL     1       1.208  -0.675  -0.013  0.00  0.00    +0.001 A 
ATOM     20  C   UNL     1       0.002  -0.004   0.002  0.00  0.00    +0.011 A 
ENDBRANCH   3  15
BRANCH   1  22
ATOM     21  C   UNL     1      -4.867  -0.002   0.024  0.00  0.00    +0.011 C 
ATOM     22  C   UNL     1      -4.881   1.342   0.032  0.00  0.00    +0.049 C 
BRANCH  21  26
ATOM     23  C   UNL     1      -8.518  -2.163   0.029  0.00  0.00    +0.000 A 
ATOM     24  C   UNL     1      -7.314  -2.845   0.019  0.00  0.00    +0.001 A 
ATOM     25  C   UNL     1      -6.123  -2.150   0.018  0.00  0.00    +0.008 A 
ATOM     26  C   UNL     1      -6.135  -0.752   0.026  0.00  0.00    -0.025 A 
ATOM     27  C   UNL     1      -7.354  -0.070   0.040  0.00  0.00    +0.008 A 
ATOM     28  C   UNL     1      -8.537  -0.779   0.036  0.00  0.00    +0.001 A 
ENDBRANCH  21  26
ENDBRANCH   1  22
TORSDOF 5
