REMARK  Name = ZINC39753275
REMARK  7 active torsions:
REMARK  status: ('A' for Active; 'I' for Inactive)
REMARK    1  A    between atoms: C_1  and  C_2
REMARK    2  A    between atoms: C_2  and  O_3
REMARK    3  A    between atoms: O_3  and  C_4
REMARK    4  A    between atoms: C_4  and  C_6
REMARK    5  A    between atoms: C_7  and  N_33
REMARK    6  A    between atoms: C_21  and  C_23
REMARK    7  A    between atoms: C_25  and  N_30
REMARK                            x       y       z     vdW  Elec       q    Type
REMARK                         _______ _______ _______ _____ _____    ______ ____
ROOT
ATOM      1  C   UNL     1       1.446  -2.348   2.433  0.00  0.00    +0.102 C 
ATOM      2  C   UNL     1       1.476  -3.693   2.588  0.00  0.00    +0.194 C 
ATOM      3  O   UNL     1       2.105  -4.278   3.633  0.00  0.00    -0.445 OA
ATOM      4  C   UNL     1       2.855  -3.484   4.401  0.00  0.00    +0.129 C 
ATOM      5  C   UNL     1       4.090  -3.857   4.909  0.00  0.00    +0.035 A 
ATOM      6  C   UNL     1       4.627  -5.138   4.662  0.00  0.00    +0.013 A 
ATOM      7  C   UNL     1       5.838  -5.472   5.186  0.00  0.00    +0.001 A 
ATOM      8  C   UNL     1       6.562  -4.573   5.964  0.00  0.00    +0.002 A 
ATOM      9  C   UNL     1       6.098  -3.321   6.234  0.00  0.00    +0.024 A 
ATOM     10  C   UNL     1       4.857  -2.906   5.723  0.00  0.00    +0.044 A 
ATOM     11  N   UNL     1       4.405  -1.673   5.981  0.00  0.00    -0.284 N 
ATOM     12  C   UNL     1       3.244  -1.211   5.560  0.00  0.00    +0.229 C 
ATOM     13  O   UNL     1       2.905  -0.074   5.832  0.00  0.00    -0.275 OA
ATOM     14  C   UNL     1       2.334  -2.097   4.739  0.00  0.00    +0.154 C 
ATOM     15  C   UNL     1       2.124  -1.403   3.387  0.00  0.00    +0.082 C 
ATOM     16  H   UNL     1       4.966  -1.083   6.509  0.00  0.00    +0.155 HD
ENDROOT
BRANCH  15  17
ATOM     17  C   UNL     1       1.262  -0.183   3.581  0.00  0.00    -0.018 A 
ATOM     18  C   UNL     1      -0.014  -0.313   4.096  0.00  0.00    +0.038 A 
ATOM     19  C   UNL     1      -0.806   0.806   4.274  0.00  0.00    +0.127 A 
ATOM     20  C   UNL     1      -0.322   2.057   3.936  0.00  0.00    +0.034 A 
ATOM     21  C   UNL     1       0.954   2.188   3.420  0.00  0.00    +0.022 A 
ATOM     22  C   UNL     1       1.748   1.069   3.248  0.00  0.00    +0.045 A 
ATOM     23 CL   UNL     1       3.354   1.234   2.607  0.00  0.00    -0.083 Cl
BRANCH  19  24
ATOM     24  N   UNL     1      -2.172   0.666   4.826  0.00  0.00    +0.056 N 
ATOM     25  O   UNL     1      -2.595  -0.427   5.121  0.00  0.00    -0.126 OA
ATOM     26  O   UNL     1      -2.864   1.645   4.981  0.00  0.00    -0.126 OA
ENDBRANCH  19  24
ENDBRANCH  15  17
BRANCH   2  27
ATOM     27  N   UNL     1       0.852  -4.483   1.660  0.00  0.00    -0.329 N 
ATOM     28  H   UNL     1       0.475  -4.086   0.859  0.00  0.00    +0.145 HD
ATOM     29  H   UNL     1       0.786  -5.441   1.804  0.00  0.00    +0.145 HD
ENDBRANCH   2  27
BRANCH   1  30
ATOM     30  C   UNL     1       0.757  -1.813   1.332  0.00  0.00    +0.341 C 
ATOM     31  O   UNL     1       1.377  -1.396   0.370  0.00  0.00    -0.245 OA
BRANCH  30  32
ATOM     32  O   UNL     1      -0.592  -1.762   1.341  0.00  0.00    -0.462 OA
BRANCH  32  34
ATOM     33  C   UNL     1      -2.745  -1.230   0.379  0.00  0.00    +0.048 C 
ATOM     34  C   UNL     1      -1.227  -1.205   0.188  0.00  0.00    +0.229 C 
ENDBRANCH  32  34
ENDBRANCH  30  32
ENDBRANCH   1  30
TORSDOF 6
