REMARK  Name = ZINC09789113
REMARK  10 active torsions:
REMARK  status: ('A' for Active; 'I' for Inactive)
REMARK    1  A    between atoms: C_1  and  C_2
REMARK    2  A    between atoms: C_5  and  N_8
REMARK    3  A    between atoms: C_9  and  C_33
REMARK    4  A    between atoms: C_10  and  N_14
REMARK    5  A    between atoms: C_11  and  C_13
REMARK    6  A    between atoms: C_15  and  C_17
REMARK    7  A    between atoms: C_17  and  N_67
REMARK    8  A    between atoms: C_23  and  C_25
REMARK    9  A    between atoms: C_28  and  O_31
REMARK   10  A    between atoms: O_31  and  C_32
REMARK                            x       y       z     vdW  Elec       q    Type
REMARK                         _______ _______ _______ _____ _____    ______ ____
ROOT
ATOM      1  N   UNL     1      -2.258   0.197   4.302  0.00  0.00    -0.284 N 
ATOM      2  C   UNL     1      -1.602  -0.458   3.324  0.00  0.00    +0.201 C 
ATOM      3  O   UNL     1      -1.760  -1.652   3.180  0.00  0.00    -0.278 OA
ATOM      4  H   UNL     1      -2.195   1.162   4.367  0.00  0.00    +0.155 HD
ENDROOT
BRANCH   1   7
ATOM      5  N   UNL     1      -3.920  -1.238   7.104  0.00  0.00    -0.235 N 
ATOM      6  C   UNL     1      -3.030  -0.353   6.577  0.00  0.00    +0.063 A 
ATOM      7  C   UNL     1      -3.035  -0.521   5.230  0.00  0.00    +0.078 A 
ATOM      8  C   UNL     1      -3.957  -1.535   4.927  0.00  0.00    +0.082 A 
ATOM      9  N   UNL     1      -4.481  -1.965   6.046  0.00  0.00    -0.170 NA
ATOM     10  C   UNL     1      -4.287  -2.043   3.547  0.00  0.00    +0.069 C 
ATOM     11  C   UNL     1      -2.193   0.635   7.348  0.00  0.00    +0.068 C 
BRANCH   5  16
ATOM     12  C   UNL     1      -5.140  -1.870  12.611  0.00  0.00    +0.044 C 
ATOM     13  C   UNL     1      -4.816  -1.702  11.149  0.00  0.00    -0.050 A 
ATOM     14  C   UNL     1      -4.649  -0.435  10.620  0.00  0.00    +0.005 A 
ATOM     15  C   UNL     1      -4.352  -0.279   9.280  0.00  0.00    +0.028 A 
ATOM     16  C   UNL     1      -4.221  -1.394   8.464  0.00  0.00    +0.066 A 
ATOM     17  C   UNL     1      -4.395  -2.664   8.997  0.00  0.00    +0.028 A 
ATOM     18  C   UNL     1      -4.685  -2.815  10.338  0.00  0.00    +0.005 A 
ENDBRANCH   5  16
ENDBRANCH   1   7
BRANCH   2  19
ATOM     19  C   UNL     1      -0.671   0.294   2.408  0.00  0.00    +0.020 C 
BRANCH  19  26
ATOM     20  C   UNL     1      -1.315  -1.163   0.576  0.00  0.00    -0.077 C 
ATOM     21  C   UNL     1      -0.830  -1.429  -0.827  0.00  0.00    -0.019 C 
ATOM     22  C   UNL     1      -0.376  -2.888  -1.002  0.00  0.00    -0.002 C 
ATOM     23  C   UNL     1       0.416  -3.397   0.219  0.00  0.00    -0.001 C 
ATOM     24  C   UNL     1       1.383  -2.370   0.751  0.00  0.00    -0.011 C 
ATOM     25  C   UNL     1       0.692  -1.560   1.871  0.00  0.00    -0.037 C 
ATOM     26  N   UNL     1      -0.164  -0.567   1.324  0.00  0.00    +0.390 N 
ATOM     27  H   UNL     1       0.383   0.006   0.671  0.00  0.00    -0.080 HD
BRANCH  25  28
ATOM     28  C   UNL     1       1.744  -0.861   2.692  0.00  0.00    -0.061 A 
ATOM     29  C   UNL     1       2.283   0.334   2.252  0.00  0.00    +0.005 A 
ATOM     30  C   UNL     1       3.243   0.980   3.006  0.00  0.00    +0.046 A 
ATOM     31  C   UNL     1       3.676   0.423   4.200  0.00  0.00    +0.120 A 
ATOM     32  C   UNL     1       3.139  -0.779   4.637  0.00  0.00    +0.046 A 
ATOM     33  C   UNL     1       2.174  -1.418   3.882  0.00  0.00    +0.005 A 
BRANCH  31  34
ATOM     34  O   UNL     1       4.625   1.053   4.941  0.00  0.00    -0.495 OA
ATOM     35  C   UNL     1       5.133   2.287   4.430  0.00  0.00    +0.277 C 
ENDBRANCH  31  34
ENDBRANCH  25  28
ENDBRANCH  19  26
ENDBRANCH   2  19
TORSDOF 6
