REMARK  Name = ZINC65833936
REMARK  10 active torsions:
REMARK  status: ('A' for Active; 'I' for Inactive)
REMARK    1  A    between atoms: C_1  and  C_2
REMARK    2  A    between atoms: C_4  and  N_22
REMARK    3  A    between atoms: C_6  and  S_9
REMARK    4  A    between atoms: C_7  and  C_8
REMARK    5  A    between atoms: S_9  and  N_12
REMARK    6  A    between atoms: N_12  and  C_13
REMARK    7  A    between atoms: N_16  and  C_18
REMARK    8  A    between atoms: C_18  and  C_19
REMARK    9  A    between atoms: C_18  and  C_20
REMARK   10  A    between atoms: C_18  and  C_21
REMARK                            x       y       z     vdW  Elec       q    Type
REMARK                         _______ _______ _______ _____ _____    ______ ____
ROOT
ATOM      1  S   UNL     1       0.538  -3.063   2.575  0.00  0.00    +0.073 S 
ATOM      2  O   UNL     1      -0.281  -2.520   3.602  0.00  0.00    -0.150 OA
ATOM      3  O   UNL     1       0.278  -4.328   1.983  0.00  0.00    -0.150 OA
ENDROOT
BRANCH   1   9
ATOM      4  C   UNL     1       2.167  -1.433  -2.117  0.00  0.00    +0.044 C 
ATOM      5  C   UNL     1       1.326  -1.188  -0.890  0.00  0.00    -0.044 A 
ATOM      6  C   UNL     1       0.562  -0.039  -0.794  0.00  0.00    +0.036 A 
ATOM      7  C   UNL     1      -0.209   0.186   0.331  0.00  0.00    +0.128 A 
ATOM      8  C   UNL     1      -0.216  -0.738   1.359  0.00  0.00    +0.061 A 
ATOM      9  C   UNL     1       0.547  -1.886   1.263  0.00  0.00    +0.114 A 
ATOM     10  C   UNL     1       1.315  -2.113   0.136  0.00  0.00    -0.021 A 
ATOM     11  C   UNL     1       2.143  -3.368   0.029  0.00  0.00    +0.046 C 
BRANCH   7  12
ATOM     12  N   UNL     1      -1.026   1.415   0.434  0.00  0.00    +0.056 N 
ATOM     13  O   UNL     1      -1.019   2.223  -0.466  0.00  0.00    -0.126 OA
ATOM     14  O   UNL     1      -1.700   1.612   1.418  0.00  0.00    -0.126 OA
ENDBRANCH   7  12
ENDBRANCH   1   9
BRANCH   1  15
ATOM     15  N   UNL     1       2.077  -3.131   3.182  0.00  0.00    -0.213 N 
ATOM     16  H   UNL     1       2.599  -3.943   3.091  0.00  0.00    +0.174 HD
BRANCH  15  17
ATOM     17  C   UNL     1       2.628  -2.010   3.831  0.00  0.00    +0.085 A 
ATOM     18  C   UNL     1       2.560  -0.682   3.385  0.00  0.00    +0.158 A 
ATOM     19  N   UNL     1       3.184   0.076   4.251  0.00  0.00    -0.177 NA
ATOM     20  N   UNL     1       3.673  -0.740   5.280  0.00  0.00    -0.264 N 
ATOM     21  C   UNL     1       3.313  -2.021   5.003  0.00  0.00    +0.133 A 
BRANCH  20  22
ATOM     22  C   UNL     1       4.432  -0.290   6.449  0.00  0.00    +0.055 C 
ATOM     23  C   UNL     1       5.906  -0.663   6.274  0.00  0.00    +0.036 C 
ATOM     24  C   UNL     1       4.302   1.228   6.590  0.00  0.00    +0.036 C 
ATOM     25  C   UNL     1       3.881  -0.968   7.706  0.00  0.00    +0.036 C 
ENDBRANCH  20  22
ENDBRANCH  15  17
ENDBRANCH   1  15
TORSDOF 5
