REMARK  Name = ZINC20573605
REMARK  10 active torsions:
REMARK  status: ('A' for Active; 'I' for Inactive)
REMARK    1  A    between atoms: C_1  and  S_2
REMARK    2  A    between atoms: S_2  and  C_3
REMARK    3  A    between atoms: C_3  and  C_4
REMARK    4  A    between atoms: C_4  and  C_5
REMARK    5  A    between atoms: C_5  and  C_7
REMARK    6  A    between atoms: C_5  and  N_24
REMARK    7  A    between atoms: C_25  and  C_27
REMARK    8  A    between atoms: C_27  and  C_28
REMARK    9  A    between atoms: C_28  and  C_29
REMARK   10  A    between atoms: C_29  and  C_30
REMARK                            x       y       z     vdW  Elec       q    Type
REMARK                         _______ _______ _______ _____ _____    ______ ____
ROOT
ATOM      1  C   UNL     1       2.009  -3.772  -2.979  0.00  0.00    +0.236 C 
ATOM      2  O   UNL     1       1.361  -4.519  -3.682  0.00  0.00    -0.274 OA
ATOM      3  N   UNL     1       3.002  -4.262  -2.211  0.00  0.00    -0.300 N 
ATOM      4  C   UNL     1       3.716  -3.391  -1.267  0.00  0.00    +0.110 C 
ATOM      5  C   UNL     1       5.220  -3.497  -1.541  0.00  0.00    +0.047 C 
ATOM      6  C   UNL     1       5.642  -4.966  -1.489  0.00  0.00    +0.064 C 
ATOM      7  C   UNL     1       4.897  -5.758  -2.564  0.00  0.00    +0.047 C 
ATOM      8  C   UNL     1       3.386  -5.677  -2.297  0.00  0.00    +0.110 C 
ATOM      9  C   UNL     1       7.128  -5.074  -1.716  0.00  0.00    +0.057 A 
ATOM     10  C   UNL     1       8.016  -5.295  -0.719  0.00  0.00    +0.039 A 
ATOM     11  N   UNL     1       9.251  -5.335  -1.283  0.00  0.00    -0.349 N 
ATOM     12  H   UNL     1      10.092  -5.480  -0.821  0.00  0.00    +0.166 HD
ATOM     13  C   UNL     1       9.085  -5.137  -2.612  0.00  0.00    +0.171 A 
ATOM     14  N   UNL     1       7.810  -4.981  -2.859  0.00  0.00    -0.348 N 
ATOM     15  C   UNL     1       7.620  -5.452   0.727  0.00  0.00    +0.070 C 
ATOM     16  C   UNL     1       6.183  -4.932   0.881  0.00  0.00    +0.088 C 
ATOM     17  N   UNL     1       5.331  -5.521  -0.162  0.00  0.00    -0.305 NA
ATOM     18  H   UNL     1       4.354  -5.402   0.059  0.00  0.00    +0.123 HD
ATOM     19  H   UNL     1       7.421  -4.824  -3.733  0.00  0.00    +0.166 HD
ENDROOT
BRANCH   1  20
ATOM     20  C   UNL     1       1.703  -2.297  -2.965  0.00  0.00    +0.160 C 
BRANCH  20  21
ATOM     21  N   UNL     1       1.028  -1.926  -4.212  0.00  0.00    -0.304 N 
ATOM     22  C   UNL     1       1.099  -0.659  -4.665  0.00  0.00    +0.214 C 
ATOM     23  O   UNL     1       1.721   0.175  -4.042  0.00  0.00    -0.276 OA
ATOM     24  H   UNL     1       0.530  -2.592  -4.710  0.00  0.00    +0.149 HD
BRANCH  22  25
ATOM     25  C   UNL     1       0.405  -0.277  -5.947  0.00  0.00    +0.096 C 
BRANCH  25  26
ATOM     26  C   UNL     1       0.641   1.207  -6.233  0.00  0.00    +0.014 C 
BRANCH  26  27
ATOM     27  C   UNL     1      -0.064   1.594  -7.535  0.00  0.00    +0.035 C 
BRANCH  27  28
ATOM     28  C   UNL     1       0.169   3.056  -7.816  0.00  0.00    -0.047 A 
ATOM     29  C   UNL     1      -0.709   4.004  -7.324  0.00  0.00    +0.003 A 
ATOM     30  C   UNL     1      -0.495   5.345  -7.582  0.00  0.00    +0.000 A 
ATOM     31  C   UNL     1       0.597   5.739  -8.333  0.00  0.00    +0.000 A 
ATOM     32  C   UNL     1       1.475   4.792  -8.825  0.00  0.00    +0.000 A 
ATOM     33  C   UNL     1       1.264   3.451  -8.563  0.00  0.00    +0.003 A 
ENDBRANCH  27  28
ENDBRANCH  26  27
ENDBRANCH  25  26
ENDBRANCH  22  25
ENDBRANCH  20  21
BRANCH  20  34
ATOM     34  C   UNL     1       0.793  -1.976  -1.778  0.00  0.00    +0.042 C 
BRANCH  34  35
ATOM     35  C   UNL     1       0.597  -0.462  -1.680  0.00  0.00    +0.071 C 
BRANCH  35  37
ATOM     36  C   UNL     1      -0.613   1.728  -0.295  0.00  0.00    +0.084 C 
ATOM     37  S   UNL     1      -0.482  -0.082  -0.272  0.00  0.00    -0.164 S 
ENDBRANCH  35  37
ENDBRANCH  34  35
ENDBRANCH  20  34
ENDBRANCH   1  20
TORSDOF 9
