REMARK  Name = ZINC39637305
REMARK  5 active torsions:
REMARK  status: ('A' for Active; 'I' for Inactive)
REMARK    1  A    between atoms: C_1  and  C_2
REMARK    2  A    between atoms: C_7  and  N_12
REMARK    3  A    between atoms: C_9  and  C_11
REMARK    4  A    between atoms: C_13  and  C_15
REMARK    5  A    between atoms: C_26  and  C_28
REMARK                            x       y       z     vdW  Elec       q    Type
REMARK                         _______ _______ _______ _____ _____    ______ ____
ROOT
ATOM      1  C   UNL     1       2.581  -4.559   4.139  0.00  0.00    +0.100 C 
ATOM      2  C   UNL     1       3.794  -3.603   4.189  0.00  0.00    +0.121 C 
ATOM      3  N   UNL     1       4.948  -4.478   4.503  0.00  0.00    -0.296 N 
ATOM      4  C   UNL     1       4.700  -5.711   3.717  0.00  0.00    +0.115 C 
ATOM      5  C   UNL     1       3.180  -5.941   3.829  0.00  0.00    -0.004 C 
ATOM      6  C   UNL     1       2.875  -6.916   4.962  0.00  0.00    -0.010 C 
ATOM      7  C   UNL     1       3.432  -8.297   4.604  0.00  0.00    -0.082 C 
ATOM      8  N   UNL     1       2.821  -8.763   3.353  0.00  0.00    +0.379 N 
ATOM      9  C   UNL     1       3.195  -7.870   2.250  0.00  0.00    -0.082 C 
ATOM     10  C   UNL     1       2.629  -6.471   2.508  0.00  0.00    -0.010 C 
ATOM     11  C   UNL     1       5.987  -4.214   5.318  0.00  0.00    +0.248 C 
ATOM     12  O   UNL     1       6.911  -5.000   5.400  0.00  0.00    -0.270 OA
ATOM     13  H   UNL     1       3.143  -9.698   3.152  0.00  0.00    -0.086 HD
ATOM     14  H   UNL     1       1.817  -8.770   3.453  0.00  0.00    -0.086 HD
ENDROOT
BRANCH  11  15
ATOM     15  C   UNL     1       6.005  -2.968   6.113  0.00  0.00    +0.057 A 
ATOM     16  C   UNL     1       5.473  -1.791   5.583  0.00  0.00    +0.014 A 
ATOM     17  C   UNL     1       5.492  -0.631   6.330  0.00  0.00    +0.002 A 
ATOM     18  C   UNL     1       6.037  -0.631   7.602  0.00  0.00    +0.021 A 
ATOM     19  C   UNL     1       6.567  -1.793   8.134  0.00  0.00    +0.060 A 
ATOM     20  C   UNL     1       6.549  -2.964   7.399  0.00  0.00    +0.071 A 
ATOM     21 CL   UNL     1       7.207  -4.424   8.071  0.00  0.00    -0.081 Cl
ATOM     22 CL   UNL     1       7.249  -1.782   9.731  0.00  0.00    -0.082 Cl
ENDBRANCH  11  15
BRANCH   1  24
ATOM     23  N   UNL     1       0.311  -4.401   3.168  0.00  0.00    -0.312 N 
ATOM     24  C   UNL     1       1.629  -4.142   3.048  0.00  0.00    +0.218 C 
ATOM     25  O   UNL     1       2.048  -3.574   2.062  0.00  0.00    -0.275 OA
ATOM     26  H   UNL     1      -0.024  -4.856   3.956  0.00  0.00    +0.149 HD
BRANCH  23  32
ATOM     27  C   UNL     1      -4.384  -3.214   2.173  0.00  0.00    +0.008 C 
ATOM     28  C   UNL     1      -2.982  -3.393   1.586  0.00  0.00    -0.009 C 
ATOM     29  C   UNL     1      -3.018  -4.472   0.501  0.00  0.00    +0.003 C 
ATOM     30  C   UNL     1      -1.617  -4.651  -0.086  0.00  0.00    +0.002 C 
ATOM     31  C   UNL     1      -0.650  -5.074   1.022  0.00  0.00    +0.022 C 
ATOM     32  C   UNL     1      -0.614  -3.996   2.107  0.00  0.00    +0.076 C 
ATOM     33  C   UNL     1      -2.016  -3.817   2.694  0.00  0.00    +0.009 C 
ATOM     34  C   UNL     1      -2.486  -5.138   3.304  0.00  0.00    +0.009 C 
ENDBRANCH  23  32
ENDBRANCH   1  24
TORSDOF 3
