REMARK  Name = ZINC02975314
REMARK  10 active torsions:
REMARK  status: ('A' for Active; 'I' for Inactive)
REMARK    1  A    between atoms: C_1  and  N_58
REMARK    2  A    between atoms: C_2  and  C_3
REMARK    3  A    between atoms: C_2  and  N_58
REMARK    4  A    between atoms: C_3  and  C_4
REMARK    5  A    between atoms: C_4  and  N_5
REMARK    6  A    between atoms: C_6  and  C_8
REMARK    7  A    between atoms: C_8  and  C_9
REMARK    8  A    between atoms: C_9  and  N_10
REMARK    9  A    between atoms: C_26  and  C_27
REMARK   10  A    between atoms: C_26  and  N_58
REMARK                            x       y       z     vdW  Elec       q    Type
REMARK                         _______ _______ _______ _____ _____    ______ ____
ROOT
ATOM      1  C   UNL     1       1.227  11.410  -5.975  0.00  0.00    +0.117 C 
ENDROOT
BRANCH   1   3
ATOM      2  N   UNL     1       0.788   9.675  -4.268  0.00  0.00    -0.315 N 
ATOM      3  C   UNL     1       1.009  10.974  -4.549  0.00  0.00    +0.215 C 
ATOM      4  O   UNL     1       1.033  11.793  -3.654  0.00  0.00    -0.276 OA
ATOM      5  H   UNL     1       0.769   9.020  -4.983  0.00  0.00    +0.149 HD
BRANCH   2   6
ATOM      6  C   UNL     1       0.576   9.251  -2.881  0.00  0.00    +0.102 C 
BRANCH   6   7
ATOM      7  C   UNL     1       0.349   7.739  -2.839  0.00  0.00    +0.000 C 
BRANCH   7   8
ATOM      8  C   UNL     1       0.128   7.296  -1.391  0.00  0.00    -0.077 C 
BRANCH   8  10
ATOM      9  C   UNL     1      -1.345   5.481  -2.023  0.00  0.00    -0.096 C 
ATOM     10  N   UNL     1      -0.069   5.832  -1.365  0.00  0.00    +0.381 N 
ATOM     11  H   UNL     1       0.702   5.383  -1.873  0.00  0.00    -0.082 HD
BRANCH  10  12
ATOM     12  C   UNL     1      -0.070   5.347   0.031  0.00  0.00    -0.043 C 
BRANCH  12  13
ATOM     13  C   UNL     1      -0.050   3.840   0.023  0.00  0.00    -0.064 A 
ATOM     14  C   UNL     1       1.156   3.165   0.008  0.00  0.00    +0.002 A 
ATOM     15  C   UNL     1       1.175   1.783   0.000  0.00  0.00    +0.000 A 
ATOM     16  C   UNL     1      -0.013   1.076   0.008  0.00  0.00    +0.000 A 
ATOM     17  C   UNL     1      -1.219   1.751   0.017  0.00  0.00    +0.000 A 
ATOM     18  C   UNL     1      -1.238   3.133   0.030  0.00  0.00    +0.002 A 
ENDBRANCH  12  13
ENDBRANCH  10  12
ENDBRANCH   8  10
ENDBRANCH   7   8
ENDBRANCH   6   7
ENDBRANCH   2   6
ENDBRANCH   1   3
BRANCH   1  19
ATOM     19  C   UNL     1       1.454  12.922  -6.017  0.00  0.00    +0.136 C 
BRANCH  19  20
ATOM     20  N   UNL     1       1.666  13.346  -7.403  0.00  0.00    -0.288 N 
ATOM     21  C   UNL     1       0.604  13.708  -8.155  0.00  0.00    +0.262 A 
ATOM     22  O   UNL     1      -0.522  13.685  -7.694  0.00  0.00    -0.267 OA
ATOM     23  C   UNL     1       0.842  14.130  -9.544  0.00  0.00    +0.067 A 
ATOM     24  C   UNL     1      -0.205  14.518 -10.381  0.00  0.00    +0.065 A 
ATOM     25  C   UNL     1       0.067  14.907 -11.677  0.00  0.00    +0.167 A 
ATOM     26  C   UNL     1       1.383  14.911 -12.150  0.00  0.00    +0.168 A 
ATOM     27  C   UNL     1       2.426  14.526 -11.323  0.00  0.00    +0.076 A 
ATOM     28  C   UNL     1       2.166  14.135 -10.021  0.00  0.00    +0.057 A 
ATOM     29  N   UNL     1       3.185  13.743  -9.163  0.00  0.00    -0.334 N 
ATOM     30  H   UNL     1       4.103  13.742  -9.477  0.00  0.00    +0.168 HD
ATOM     31  C   UNL     1       2.913  13.372  -7.900  0.00  0.00    +0.161 A 
ATOM     32  S   UNL     1       4.210  12.906  -6.884  0.00  0.00    -0.013 S 
ATOM     33  O   UNL     1       1.376  15.330 -13.448  0.00  0.00    -0.453 OA
ATOM     34  C   UNL     1       0.102  15.973 -13.639  0.00  0.00    +0.466 C 
ATOM     35  O   UNL     1      -0.757  15.325 -12.683  0.00  0.00    -0.453 OA
ENDBRANCH  19  20
ENDBRANCH   1  19
TORSDOF 9
