REMARK  Name = ZINC20633191
REMARK  6 active torsions:
REMARK  status: ('A' for Active; 'I' for Inactive)
REMARK    1  A    between atoms: C_1  and  C_2
REMARK    2  A    between atoms: C_3  and  C_23
REMARK    3  A    between atoms: C_4  and  C_16
REMARK    4  A    between atoms: C_23  and  O_25
REMARK    5  A    between atoms: O_25  and  C_26
REMARK    6  A    between atoms: C_26  and  C_27
REMARK                            x       y       z     vdW  Elec       q    Type
REMARK                         _______ _______ _______ _____ _____    ______ ____
ROOT
ATOM      1  C   UNL     1      -1.143   7.136   0.649  0.00  0.00    +0.061 C 
ATOM      2  C   UNL     1      -0.429   5.849   0.327  0.00  0.00    +0.020 C 
ATOM      3  C   UNL     1       0.912   5.839   0.320  0.00  0.00    +0.080 C 
ATOM      4  C   UNL     1       1.725   4.613   0.001  0.00  0.00    +0.161 C 
ATOM      5  N   UNL     1       0.856   3.436   0.011  0.00  0.00    -0.300 N 
ATOM      6  C   UNL     1       1.198   2.103   0.002  0.00  0.00    +0.071 A 
ATOM      7  C   UNL     1       2.400   1.410  -0.013  0.00  0.00    +0.028 A 
ATOM      8  C   UNL     1       2.401   0.031  -0.021  0.00  0.00    +0.002 A 
ATOM      9  C   UNL     1       1.205  -0.673  -0.013  0.00  0.00    +0.002 A 
ATOM     10  C   UNL     1       0.002  -0.004   0.002  0.00  0.00    +0.030 A 
ATOM     11  C   UNL     1      -0.017   1.393   0.010  0.00  0.00    +0.091 A 
ATOM     12  N   UNL     1      -1.021   2.311   0.030  0.00  0.00    -0.214 NA
ATOM     13  C   UNL     1      -0.515   3.510   0.029  0.00  0.00    +0.202 A 
ATOM     14  N   UNL     1      -1.175   4.731   0.052  0.00  0.00    -0.288 N 
ATOM     15  H   UNL     1      -2.254   4.823  -0.139  0.00  0.00    +0.155 HD
ENDROOT
BRANCH   4  16
ATOM     16  C   UNL     1       2.349   4.765  -1.361  0.00  0.00    -0.002 A 
ATOM     17  C   UNL     1       1.547   4.933  -2.475  0.00  0.00    +0.007 A 
ATOM     18  C   UNL     1       2.120   5.072  -3.725  0.00  0.00    +0.000 A 
ATOM     19  C   UNL     1       3.495   5.045  -3.863  0.00  0.00    +0.001 A 
ATOM     20  C   UNL     1       4.298   4.878  -2.751  0.00  0.00    +0.020 A 
ATOM     21  C   UNL     1       3.726   4.743  -1.498  0.00  0.00    +0.046 A 
ATOM     22 CL   UNL     1       4.734   4.540  -0.100  0.00  0.00    -0.083 Cl
ENDBRANCH   4  16
BRANCH   3  23
ATOM     23  C   UNL     1       1.595   7.037   0.627  0.00  0.00    +0.339 C 
ATOM     24  O   UNL     1       0.966   8.045   0.890  0.00  0.00    -0.245 OA
BRANCH  23  25
ATOM     25  O   UNL     1       2.944   7.063   0.630  0.00  0.00    -0.457 OA
BRANCH  25  26
ATOM     26  C   UNL     1       3.568   8.308   0.949  0.00  0.00    +0.259 C 
BRANCH  26  27
ATOM     27  C   UNL     1       5.066   8.146   0.902  0.00  0.00    +0.006 C 
ATOM     28  C   UNL     1       5.804   9.048   0.304  0.00  0.00    +0.007 C 
ENDBRANCH  26  27
ENDBRANCH  25  26
ENDBRANCH  23  25
ENDBRANCH   3  23
TORSDOF 5
