REMARK  Name = ZINC16115368
REMARK  7 active torsions:
REMARK  status: ('A' for Active; 'I' for Inactive)
REMARK    1  A    between atoms: C_1  and  C_2
REMARK    2  A    between atoms: C_2  and  C_3
REMARK    3  A    between atoms: C_8  and  C_21
REMARK    4  A    between atoms: C_12  and  C_15
REMARK    5  A    between atoms: C_13  and  O_14
REMARK    6  A    between atoms: C_15  and  N_59
REMARK    7  A    between atoms: N_24  and  C_26
REMARK                            x       y       z     vdW  Elec       q    Type
REMARK                         _______ _______ _______ _____ _____    ______ ____
ROOT
ATOM      1  C   UNL     1      -2.437   1.279  -2.902  0.00  0.00    -0.005 A 
ATOM      2  C   UNL     1      -2.112   2.477  -3.471  0.00  0.00    +0.022 A 
ATOM      3  C   UNL     1      -1.092   3.252  -2.917  0.00  0.00    +0.065 A 
ATOM      4  C   UNL     1      -0.714   4.550  -3.503  0.00  0.00    +0.200 A 
ATOM      5  O   UNL     1      -1.275   4.994  -4.491  0.00  0.00    -0.286 OA
ATOM      6  C   UNL     1       0.375   5.286  -2.839  0.00  0.00    +0.067 A 
ATOM      7  C   UNL     1       0.960   4.738  -1.744  0.00  0.00    +0.208 A 
ATOM      8  O   UNL     1       0.586   3.556  -1.245  0.00  0.00    -0.462 OA
ATOM      9  C   UNL     1      -0.398   2.806  -1.778  0.00  0.00    +0.143 A 
ATOM     10  C   UNL     1      -0.742   1.585  -1.213  0.00  0.00    +0.021 A 
ATOM     11  C   UNL     1      -1.752   0.825  -1.778  0.00  0.00    +0.125 A 
ENDROOT
BRANCH   6  12
ATOM     12  C   UNL     1       0.825   6.603  -3.358  0.00  0.00    +0.027 A 
ATOM     13  C   UNL     1       1.161   6.900  -4.693  0.00  0.00    +0.143 A 
ATOM     14  N   UNL     1       1.508   8.159  -4.758  0.00  0.00    -0.174 NA
ATOM     15  N   UNL     1       1.409   8.715  -3.477  0.00  0.00    -0.239 N 
ATOM     16  C   UNL     1       0.982   7.745  -2.628  0.00  0.00    +0.123 A 
BRANCH  15  17
ATOM     17  C   UNL     1       1.695  10.043  -3.131  0.00  0.00    +0.065 A 
ATOM     18  C   UNL     1       1.548  10.467  -1.818  0.00  0.00    +0.028 A 
ATOM     19  C   UNL     1       1.835  11.775  -1.480  0.00  0.00    +0.002 A 
ATOM     20  C   UNL     1       2.258  12.665  -2.450  0.00  0.00    +0.000 A 
ATOM     21  C   UNL     1       2.401  12.247  -3.760  0.00  0.00    +0.002 A 
ATOM     22  C   UNL     1       2.120  10.939  -4.104  0.00  0.00    +0.028 A 
ENDBRANCH  15  17
ENDBRANCH   6  12
BRANCH   1  24
ATOM     23  C   UNL     1      -4.852   0.730  -2.769  0.00  0.00    +0.009 C 
ATOM     24  C   UNL     1      -3.538   0.441  -3.498  0.00  0.00    +0.035 C 
ENDBRANCH   1  24
BRANCH  11  25
ATOM     25  O   UNL     1      -2.082  -0.371  -1.226  0.00  0.00    -0.506 OA
ATOM     26  H   UNL     1      -2.769  -0.316  -0.549  0.00  0.00    +0.292 HD
ENDBRANCH  11  25
BRANCH  10  27
ATOM     27  C   UNL     1      -0.013   1.086   0.008  0.00  0.00    -0.036 C 
BRANCH  27  33
ATOM     28  C   UNL     1      -0.620   3.022   1.329  0.00  0.00    -0.078 C 
ATOM     29  C   UNL     1      -1.466   3.491   2.514  0.00  0.00    -0.019 C 
ATOM     30  C   UNL     1      -0.950   2.833   3.797  0.00  0.00    -0.004 C 
ATOM     31  C   UNL     1      -0.998   1.311   3.635  0.00  0.00    -0.019 C 
ATOM     32  C   UNL     1      -0.165   0.905   2.417  0.00  0.00    -0.078 C 
ATOM     33  N   UNL     1      -0.729   1.552   1.213  0.00  0.00    +0.383 N 
ATOM     34  H   UNL     1      -1.720   1.296   1.131  0.00  0.00    -0.081 HD
ENDBRANCH  27  33
ENDBRANCH  10  27
TORSDOF 6
