REMARK  Name = ZINC12946816
REMARK  5 active torsions:
REMARK  status: ('A' for Active; 'I' for Inactive)
REMARK    1  A    between atoms: C_1  and  C_2
REMARK    2  A    between atoms: C_4  and  C_9
REMARK    3  A    between atoms: C_5  and  C_8
REMARK    4  A    between atoms: C_9  and  C_11
REMARK    5  A    between atoms: C_11  and  N_12
REMARK                            x       y       z     vdW  Elec       q    Type
REMARK                         _______ _______ _______ _____ _____    ______ ____
ROOT
ATOM      1  N   UNL     1       1.792  -4.183  -0.038  0.00  0.00    -0.217 N 
ATOM      2  C   UNL     1       2.204  -4.832   1.072  0.00  0.00    +0.247 C 
ATOM      3  O   UNL     1       2.012  -4.514   2.225  0.00  0.00    -0.273 OA
ATOM      4  C   UNL     1       2.955  -6.039   0.570  0.00  0.00    +0.113 C 
ATOM      5  C   UNL     1       2.307  -7.338   1.066  0.00  0.00    +0.035 C 
ATOM      6  C   UNL     1       3.508  -8.292   1.295  0.00  0.00    +0.003 C 
ATOM      7  C   UNL     1       4.600  -7.344   1.853  0.00  0.00    +0.003 C 
ATOM      8  C   UNL     1       4.406  -6.034   1.058  0.00  0.00    +0.035 C 
ATOM      9  N   UNL     1       2.882  -5.935  -0.889  0.00  0.00    -0.285 N 
ATOM     10  C   UNL     1       2.176  -4.818  -1.153  0.00  0.00    +0.310 C 
ATOM     11  O   UNL     1       1.919  -4.429  -2.275  0.00  0.00    -0.252 OA
ATOM     12  H   UNL     1       3.263  -6.550  -1.536  0.00  0.00    +0.151 HD
ENDROOT
BRANCH   1  13
ATOM     13  C   UNL     1       1.015  -2.940  -0.024  0.00  0.00    +0.197 C 
BRANCH  13  14
ATOM     14  C   UNL     1       1.953  -1.761  -0.026  0.00  0.00    +0.183 C 
ATOM     15  O   UNL     1       3.153  -1.941  -0.038  0.00  0.00    -0.290 OA
BRANCH  14  19
ATOM     16  C   UNL     1      -1.256   2.196   0.020  0.00  0.00    +0.063 C 
ATOM     17  C   UNL     1      -0.016   1.339   0.009  0.00  0.00    +0.014 A 
ATOM     18  C   UNL     1       0.002  -0.004   0.002  0.00  0.00    +0.034 A 
ATOM     19  C   UNL     1       1.417  -0.399  -0.014  0.00  0.00    +0.039 A 
ATOM     20  C   UNL     1       2.138   0.781  -0.014  0.00  0.00    +0.024 A 
ATOM     21  N   UNL     1       1.267   1.805  -0.000  0.00  0.00    -0.362 N 
ATOM     22  H   UNL     1       1.515   2.743   0.002  0.00  0.00    +0.165 HD
ATOM     23  C   UNL     1       3.641   0.898  -0.028  0.00  0.00    +0.064 C 
ENDBRANCH  14  19
ENDBRANCH  13  14
ENDBRANCH   1  13
TORSDOF 3
