REMARK  Name = ZINC61596016
REMARK  5 active torsions:
REMARK  status: ('A' for Active; 'I' for Inactive)
REMARK    1  A    between atoms: C_1  and  C_2
REMARK    2  A    between atoms: C_2  and  C_3
REMARK    3  A    between atoms: C_3  and  N_4
REMARK    4  A    between atoms: C_10  and  S_11
REMARK    5  A    between atoms: S_11  and  C_12
REMARK                            x       y       z     vdW  Elec       q    Type
REMARK                         _______ _______ _______ _____ _____    ______ ____
ROOT
ATOM      1  S   UNL     1      -1.685  -2.235  -2.637  0.00  0.00    -0.029 S 
ENDROOT
BRANCH   1   2
ATOM      2  C   UNL     1      -2.489  -3.729  -3.110  0.00  0.00    +0.117 A 
ATOM      3  C   UNL     1      -3.720  -3.703  -3.812  0.00  0.00    +0.033 A 
ATOM      4  C   UNL     1      -4.351  -2.504  -4.160  0.00  0.00    +0.012 A 
ATOM      5  C   UNL     1      -5.536  -2.541  -4.836  0.00  0.00    +0.001 A 
ATOM      6  C   UNL     1      -6.124  -3.754  -5.184  0.00  0.00    +0.002 A 
ATOM      7  C   UNL     1      -5.533  -4.939  -4.859  0.00  0.00    +0.028 A 
ATOM      8  C   UNL     1      -4.316  -4.938  -4.164  0.00  0.00    +0.077 A 
ATOM      9  N   UNL     1      -3.693  -6.076  -3.821  0.00  0.00    -0.217 NA
ATOM     10  C   UNL     1      -2.553  -6.041  -3.170  0.00  0.00    +0.224 A 
ATOM     11  N   UNL     1      -1.956  -4.910  -2.825  0.00  0.00    -0.210 NA
ATOM     12 CL   UNL     1      -1.791  -7.543  -2.751  0.00  0.00    -0.041 Cl
ENDBRANCH   1   2
BRANCH   1  19
ATOM     13  N   UNL     1       0.738  -1.962  -1.265  0.00  0.00    -0.270 N 
ATOM     14  C   UNL     1       1.697  -2.741  -0.727  0.00  0.00    +0.345 A 
ATOM     15  O   UNL     1       2.698  -2.356  -0.149  0.00  0.00    -0.245 OA
ATOM     16  N   UNL     1       1.348  -4.026  -0.944  0.00  0.00    -0.226 N 
ATOM     17  H   UNL     1       1.846  -4.811  -0.669  0.00  0.00    +0.194 HD
ATOM     18  N   UNL     1       0.131  -4.018  -1.639  0.00  0.00    -0.144 NA
ATOM     19  C   UNL     1      -0.223  -2.778  -1.818  0.00  0.00    +0.198 A 
BRANCH  13  20
ATOM     20  C   UNL     1       0.718  -0.497  -1.257  0.00  0.00    +0.129 C 
BRANCH  20  22
ATOM     21  C   UNL     1      -0.019   1.526   0.010  0.00  0.00    +0.005 C 
ATOM     22  C   UNL     1       0.002  -0.004   0.002  0.00  0.00    +0.018 C 
ENDBRANCH  20  22
ENDBRANCH  13  20
ENDBRANCH   1  19
TORSDOF 4
