REMARK  Name = ZINC08892626
REMARK  7 active torsions:
REMARK  status: ('A' for Active; 'I' for Inactive)
REMARK    1  A    between atoms: C_4  and  C_7
REMARK    2  A    between atoms: C_10  and  S_13
REMARK    3  A    between atoms: N_11  and  N_12
REMARK    4  A    between atoms: S_13  and  C_14
REMARK    5  A    between atoms: C_14  and  C_15
REMARK    6  A    between atoms: C_15  and  O_16
REMARK    7  A    between atoms: O_16  and  C_17
REMARK                            x       y       z     vdW  Elec       q    Type
REMARK                         _______ _______ _______ _____ _____    ______ ____
ROOT
ATOM      1  S   UNL     1      -3.205   1.567   0.281  0.00  0.00    -0.081 S 
ENDROOT
BRANCH   1   5
ATOM      2  C   UNL     1      -0.282   1.804  -2.290  0.00  0.00    +0.154 A 
ATOM      3  N   UNL     1      -1.301   2.230  -2.982  0.00  0.00    -0.132 NA
ATOM      4  N   UNL     1      -2.363   2.213  -2.259  0.00  0.00    -0.121 NA
ATOM      5  C   UNL     1      -2.077   1.768  -1.057  0.00  0.00    +0.209 A 
ATOM      6  N   UNL     1      -0.741   1.490  -1.041  0.00  0.00    -0.228 N 
BRANCH   2  10
ATOM      7  C   UNL     1       3.143   1.968  -4.895  0.00  0.00    +0.000 C 
ATOM      8  C   UNL     1       2.630   0.593  -4.462  0.00  0.00    +0.001 C 
ATOM      9  C   UNL     1       1.187   0.720  -3.968  0.00  0.00    +0.011 C 
ATOM     10  C   UNL     1       1.139   1.680  -2.777  0.00  0.00    +0.059 C 
ATOM     11  C   UNL     1       1.652   3.055  -3.210  0.00  0.00    +0.011 C 
ATOM     12  C   UNL     1       3.095   2.928  -3.704  0.00  0.00    +0.001 C 
ENDBRANCH   2  10
BRANCH   6  13
ATOM     13  N   UNL     1      -0.012   1.005   0.008  0.00  0.00    -0.295 N 
ATOM     14  H   UNL     1       0.002  -0.004   0.002  0.00  0.00    +0.163 HD
ATOM     15  H   UNL     1       0.925   1.379   0.001  0.00  0.00    +0.163 HD
ENDBRANCH   6  13
ENDBRANCH   1   5
BRANCH   1  16
ATOM     16  C   UNL     1      -4.733   2.133  -0.507  0.00  0.00    +0.118 C 
BRANCH  16  17
ATOM     17  C   UNL     1      -5.887   2.045   0.494  0.00  0.00    +0.240 C 
BRANCH  17  18
ATOM     18  O   UNL     1      -7.093   2.492  -0.129  0.00  0.00    -0.488 OA
BRANCH  18  19
ATOM     19  C   UNL     1      -8.221   2.477   0.630  0.00  0.00    +0.160 A 
ATOM     20  C   UNL     1      -9.030   1.350   0.651  0.00  0.00    +0.104 A 
ATOM     21  C   UNL     1     -10.174   1.334   1.428  0.00  0.00    +0.083 A 
ATOM     22  C   UNL     1     -10.519   2.447   2.175  0.00  0.00    +0.081 A 
ATOM     23  C   UNL     1      -9.717   3.576   2.151  0.00  0.00    +0.083 A 
ATOM     24  C   UNL     1      -8.569   3.592   1.379  0.00  0.00    +0.104 A 
ATOM     25 CL   UNL     1      -7.563   5.007   1.349  0.00  0.00    -0.078 Cl
ATOM     26 CL   UNL     1     -10.153   4.970   3.088  0.00  0.00    -0.080 Cl
ATOM     27 CL   UNL     1     -11.960   2.428   3.144  0.00  0.00    -0.080 Cl
ATOM     28 CL   UNL     1     -11.181  -0.079   1.461  0.00  0.00    -0.080 Cl
ATOM     29 CL   UNL     1      -8.601  -0.044  -0.292  0.00  0.00    -0.078 Cl
ENDBRANCH  18  19
ENDBRANCH  17  18
ENDBRANCH  16  17
ENDBRANCH   1  16
TORSDOF 7
