REMARK  Name = ZINC57509339
REMARK  5 active torsions:
REMARK  status: ('A' for Active; 'I' for Inactive)
REMARK    1  A    between atoms: C_1  and  C_2
REMARK    2  A    between atoms: C_2  and  C_3
REMARK    3  A    between atoms: C_2  and  C_4
REMARK    4  A    between atoms: C_7  and  S_10
REMARK    5  A    between atoms: S_10  and  C_13
REMARK                            x       y       z     vdW  Elec       q    Type
REMARK                         _______ _______ _______ _____ _____    ______ ____
ROOT
ATOM      1  S   UNL     1      -5.658  -2.093   0.045  0.00  0.00    +0.032 S 
ATOM      2  O   UNL     1      -5.665  -3.264  -0.760  0.00  0.00    -0.164 OA
ATOM      3  O   UNL     1      -6.078  -2.099   1.403  0.00  0.00    -0.164 OA
ENDROOT
BRANCH   1   4
ATOM      4  C   UNL     1      -6.659  -0.905  -0.786  0.00  0.00    +0.176 A 
ATOM      5  C   UNL     1      -6.829   0.371  -0.258  0.00  0.00    +0.146 A 
ATOM      6  N   UNL     1      -7.582   1.251  -0.892  0.00  0.00    -0.229 NA
ATOM      7  C   UNL     1      -8.189   0.942  -2.037  0.00  0.00    +0.180 A 
ATOM      8  S   UNL     1      -9.155   2.118  -2.820  0.00  0.00    -0.011 S 
ATOM      9  N   UNL     1      -8.056  -0.279  -2.589  0.00  0.00    -0.300 N 
ATOM     10  H   UNL     1      -8.506  -0.485  -3.423  0.00  0.00    +0.171 HD
ATOM     11  C   UNL     1      -7.285  -1.223  -1.977  0.00  0.00    +0.278 A 
ATOM     12  O   UNL     1      -7.140  -2.449  -2.523  0.00  0.00    -0.266 OA
ENDBRANCH   1   4
BRANCH   1  16
ATOM     13  C   UNL     1      -1.412  -0.526   0.013  0.00  0.00    -0.045 A 
ATOM     14  C   UNL     1      -2.259  -0.204   1.056  0.00  0.00    +0.006 A 
ATOM     15  C   UNL     1      -3.556  -0.683   1.066  0.00  0.00    +0.027 A 
ATOM     16  C   UNL     1      -4.006  -1.482   0.032  0.00  0.00    +0.094 A 
ATOM     17  C   UNL     1      -3.159  -1.803  -1.012  0.00  0.00    +0.027 A 
ATOM     18  C   UNL     1      -1.863  -1.321  -1.024  0.00  0.00    +0.006 A 
BRANCH  13  20
ATOM     19  C   UNL     1      -0.019   1.526   0.010  0.00  0.00    +0.012 C 
ATOM     20  C   UNL     1       0.002  -0.004   0.002  0.00  0.00    +0.013 C 
ATOM     21  C   UNL     1       0.742  -0.511   1.242  0.00  0.00    +0.012 C 
ENDBRANCH  13  20
ENDBRANCH   1  16
TORSDOF 3
