REMARK  Name = ZINC59489323
REMARK  16 active torsions:
REMARK  status: ('A' for Active; 'I' for Inactive)
REMARK    1  A    between atoms: C_1  and  C_2
REMARK    2  A    between atoms: C_2  and  C_28
REMARK    3  A    between atoms: N_3  and  N_4
REMARK    4  A    between atoms: C_5  and  S_7
REMARK    5  A    between atoms: S_7  and  C_8
REMARK    6  A    between atoms: N_13  and  C_16
REMARK    7  A    between atoms: C_16  and  C_17
REMARK    8  A    between atoms: C_17  and  C_18
REMARK    9  A    between atoms: C_21  and  O_26
REMARK   10  A    between atoms: C_22  and  O_24
REMARK   11  A    between atoms: O_24  and  C_25
REMARK   12  A    between atoms: O_26  and  C_27
REMARK   13  A    between atoms: C_29  and  C_30
REMARK   14  A    between atoms: C_33  and  N_36
REMARK   15  A    between atoms: N_36  and  C_37
REMARK   16  A    between atoms: N_36  and  C_38
REMARK                            x       y       z     vdW  Elec       q    Type
REMARK                         _______ _______ _______ _____ _____    ______ ____
ROOT
ATOM      1  N   UNL     1       0.032  -0.026   2.254  0.00  0.00    -0.259 N 
ATOM      2  C   UNL     1       0.038  -0.692   3.393  0.00  0.00    +0.146 C 
ATOM      3  N   UNL     1       0.042  -2.065   3.386  0.00  0.00    -0.338 N 
ATOM      4  H   UNL     1       0.039  -2.545   2.543  0.00  0.00    +0.144 HD
ATOM      5  H   UNL     1       0.046  -2.554   4.223  0.00  0.00    +0.144 HD
ATOM      6  H   UNL     1       0.030   0.944   2.259  0.00  0.00    +0.191 HD
ENDROOT
BRANCH   1   9
ATOM      7  C   UNL     1       0.019   1.504   0.010  0.00  0.00    +0.067 C 
ATOM      8  C   UNL     1       0.023  -0.003   0.002  0.00  0.00    +0.058 C 
ATOM      9  N   UNL     1       0.029  -0.665   1.133  0.00  0.00    -0.177 NA
BRANCH   8  10
ATOM     10  C   UNL     1       0.020  -0.703  -1.225  0.00  0.00    +0.025 C 
ATOM     11  C   UNL     1       0.023  -2.055  -1.232  0.00  0.00    +0.010 C 
BRANCH  11  12
ATOM     12  C   UNL     1       0.020  -2.784  -2.510  0.00  0.00    -0.025 A 
ATOM     13  C   UNL     1       0.019  -2.079  -3.719  0.00  0.00    +0.010 A 
ATOM     14  C   UNL     1       0.016  -2.766  -4.913  0.00  0.00    +0.023 A 
ATOM     15  C   UNL     1       0.014  -4.157  -4.918  0.00  0.00    +0.029 A 
ATOM     16  C   UNL     1       0.015  -4.861  -3.718  0.00  0.00    +0.023 A 
ATOM     17  C   UNL     1       0.023  -4.183  -2.520  0.00  0.00    +0.010 A 
BRANCH  15  18
ATOM     18  N   UNL     1       0.011  -4.848  -6.130  0.00  0.00    -0.336 N 
ATOM     19  C   UNL     1      -0.117  -4.114  -7.391  0.00  0.00    +0.129 C 
ATOM     20  C   UNL     1       0.136  -6.308  -6.141  0.00  0.00    +0.129 C 
ENDBRANCH  15  18
ENDBRANCH  11  12
ENDBRANCH   8  10
ENDBRANCH   1   9
BRANCH   2  21
ATOM     21  S   UNL     1       0.043   0.181   4.923  0.00  0.00    -0.078 S 
BRANCH  21  22
ATOM     22  C   UNL     1       0.051  -1.131   6.177  0.00  0.00    +0.149 C 
ATOM     23  C   UNL     1       0.127  -0.527   7.594  0.00  0.00    +0.120 C 
ATOM     24  C   UNL     1      -1.156  -0.992   8.247  0.00  0.00    +0.223 C 
ATOM     25  O   UNL     1      -1.500  -0.737   9.381  0.00  0.00    -0.275 OA
ATOM     26  N   UNL     1      -1.852  -1.731   7.374  0.00  0.00    -0.241 N 
ATOM     27  C   UNL     1      -1.266  -1.877   6.175  0.00  0.00    +0.236 C 
ATOM     28  O   UNL     1      -1.717  -2.503   5.241  0.00  0.00    -0.274 OA
BRANCH  26  29
ATOM     29  C   UNL     1      -3.147  -2.333   7.700  0.00  0.00    +0.121 C 
BRANCH  29  30
ATOM     30  C   UNL     1      -4.269  -1.355   7.343  0.00  0.00    +0.054 C 
BRANCH  30  31
ATOM     31  C   UNL     1      -5.601  -1.974   7.678  0.00  0.00    -0.042 A 
ATOM     32  C   UNL     1      -6.267  -2.732   6.733  0.00  0.00    +0.007 A 
ATOM     33  C   UNL     1      -7.489  -3.302   7.036  0.00  0.00    +0.049 A 
ATOM     34  C   UNL     1      -8.050  -3.115   8.289  0.00  0.00    +0.161 A 
ATOM     35  C   UNL     1      -7.379  -2.353   9.241  0.00  0.00    +0.162 A 
ATOM     36  C   UNL     1      -6.152  -1.788   8.933  0.00  0.00    +0.053 A 
BRANCH  35  37
ATOM     37  O   UNL     1      -7.925  -2.167  10.473  0.00  0.00    -0.491 OA
ATOM     38  C   UNL     1      -7.180  -1.373  11.399  0.00  0.00    +0.277 C 
ENDBRANCH  35  37
BRANCH  34  39
ATOM     39  O   UNL     1      -9.252  -3.675   8.589  0.00  0.00    -0.491 OA
ATOM     40  C   UNL     1      -9.883  -4.444   7.563  0.00  0.00    +0.277 C 
ENDBRANCH  34  39
ENDBRANCH  30  31
ENDBRANCH  29  30
ENDBRANCH  26  29
ENDBRANCH  21  22
ENDBRANCH   2  21
TORSDOF 11
