REMARK  Name = ZINC43781601
REMARK  7 active torsions:
REMARK  status: ('A' for Active; 'I' for Inactive)
REMARK    1  A    between atoms: C_1  and  C_2
REMARK    2  A    between atoms: C_2  and  C_3
REMARK    3  A    between atoms: C_14  and  C_15
REMARK    4  A    between atoms: C_14  and  O_17
REMARK    5  A    between atoms: O_17  and  C_18
REMARK    6  A    between atoms: C_18  and  C_20
REMARK    7  A    between atoms: N_26  and  O_27
REMARK                            x       y       z     vdW  Elec       q    Type
REMARK                         _______ _______ _______ _____ _____    ______ ____
ROOT
ATOM      1  C   UNL     1       0.606  -0.499  -1.314  0.00  0.00    +0.025 C 
ATOM      2  C   UNL     1       2.077  -0.134  -1.373  0.00  0.00    +0.012 C 
ATOM      3  C   UNL     1       2.734  -0.694  -0.102  0.00  0.00    +0.005 C 
ATOM      4  C   UNL     1       2.533  -2.201   0.021  0.00  0.00    -0.000 C 
ATOM      5  C   UNL     1       1.049  -2.587  -0.057  0.00  0.00    -0.003 C 
ATOM      6  C   UNL     1       0.516  -2.047  -1.385  0.00  0.00    +0.004 C 
ATOM      7  C   UNL     1      -0.983  -2.260  -1.629  0.00  0.00    +0.009 C 
ATOM      8  C   UNL     1      -1.328  -1.150  -2.659  0.00  0.00    +0.062 C 
ATOM      9  C   UNL     1      -0.260  -0.043  -2.484  0.00  0.00    +0.179 C 
ATOM     10  C   UNL     1       0.927  -4.113  -0.025  0.00  0.00    +0.008 C 
ATOM     11  C   UNL     1       1.417  -4.629   1.329  0.00  0.00    +0.031 C 
ATOM     12  C   UNL     1       2.828  -4.122   1.565  0.00  0.00    -0.064 C 
ATOM     13  C   UNL     1       3.744  -5.003   1.951  0.00  0.00    +0.026 C 
ATOM     14  C   UNL     1       5.126  -4.563   2.211  0.00  0.00    +0.080 C 
ATOM     15  N   UNL     1       6.122  -5.390   2.184  0.00  0.00    -0.092 NA
ATOM     16  C   UNL     1       5.318  -3.088   2.510  0.00  0.00    +0.059 C 
ATOM     17  C   UNL     1       4.584  -2.304   1.423  0.00  0.00    +0.014 C 
ATOM     18  C   UNL     1       3.101  -2.677   1.364  0.00  0.00    +0.019 C 
ENDROOT
BRANCH   1  20
ATOM     19  C   UNL     1       0.300   1.487   0.171  0.00  0.00    +0.004 C 
ATOM     20  C   UNL     1       0.002  -0.004   0.002  0.00  0.00    +0.009 C 
ENDBRANCH   1  20
BRANCH   9  21
ATOM     21  C   UNL     1      -0.904   1.243  -2.170  0.00  0.00    -0.058 C 
ATOM     22  C   UNL     1      -1.419   2.268  -1.921  0.00  0.00    +0.008 C 
ENDBRANCH   9  21
BRANCH  15  23
ATOM     23  O   UNL     1       7.435  -4.925   2.440  0.00  0.00    -0.409 OA
ATOM     24  H   UNL     1       8.112  -5.614   2.398  0.00  0.00    +0.328 HD
ENDBRANCH  15  23
BRANCH   9  25
ATOM     25  O   UNL     1       0.531   0.074  -3.668  0.00  0.00    -0.445 OA
BRANCH  25  26
ATOM     26  C   UNL     1      -0.100   0.469  -4.785  0.00  0.00    +0.305 C 
ATOM     27  O   UNL     1      -1.284   0.708  -4.758  0.00  0.00    -0.251 OA
ATOM     28  C   UNL     1       0.668   0.616  -6.073  0.00  0.00    +0.136 C 
ENDBRANCH  25  26
ENDBRANCH   9  25
TORSDOF 5
