REMARK  Name = ZINC57383507
REMARK  9 active torsions:
REMARK  status: ('A' for Active; 'I' for Inactive)
REMARK    1  A    between atoms: C_1  and  C_2
REMARK    2  A    between atoms: C_2  and  C_3
REMARK    3  A    between atoms: C_2  and  C_4
REMARK    4  A    between atoms: C_4  and  C_6
REMARK    5  A    between atoms: C_4  and  N_13
REMARK    6  A    between atoms: N_13  and  C_14
REMARK    7  A    between atoms: C_14  and  C_15
REMARK    8  A    between atoms: N_17  and  C_18
REMARK    9  A    between atoms: C_19  and  C_23
REMARK                            x       y       z     vdW  Elec       q    Type
REMARK                         _______ _______ _______ _____ _____    ______ ____
ROOT
ATOM      1  C   UNL     1      -1.701  -0.412   2.609  0.00  0.00    +0.178 C 
ENDROOT
BRANCH   1   2
ATOM      2  C   UNL     1      -2.318   0.315   3.776  0.00  0.00    +0.231 C 
ATOM      3  O   UNL     1      -2.873   1.379   3.603  0.00  0.00    -0.274 OA
ATOM      4  N   UNL     1      -2.253  -0.217   5.013  0.00  0.00    -0.278 N 
ATOM      5  H   UNL     1      -1.809  -1.069   5.151  0.00  0.00    +0.155 HD
BRANCH   4   6
ATOM      6  C   UNL     1      -2.821   0.451   6.087  0.00  0.00    +0.084 A 
ATOM      7  C   UNL     1      -2.845   0.061   7.418  0.00  0.00    +0.065 A 
ATOM      8  C   UNL     1      -3.510   0.953   8.340  0.00  0.00    +0.022 A 
ATOM      9  C   UNL     1      -4.035   2.070   7.801  0.00  0.00    +0.048 A 
ATOM     10  S   UNL     1      -3.630   1.921   6.075  0.00  0.00    -0.081 S 
BRANCH   7  11
ATOM     11  C   UNL     1      -2.229  -1.192   7.865  0.00  0.00    +0.244 C 
ATOM     12  O   UNL     1      -1.677  -1.920   7.061  0.00  0.00    -0.270 OA
ATOM     13  N   UNL     1      -2.273  -1.536   9.167  0.00  0.00    -0.325 N 
ATOM     14  H   UNL     1      -2.713  -0.956   9.808  0.00  0.00    +0.145 HD
ATOM     15  H   UNL     1      -1.866  -2.365   9.464  0.00  0.00    +0.145 HD
ENDBRANCH   7  11
ENDBRANCH   4   6
ENDBRANCH   1   2
BRANCH   1  16
ATOM     16  N   UNL     1      -1.905   0.370   1.382  0.00  0.00    -0.301 NA
ATOM     17  H   UNL     1      -1.458   1.272   1.449  0.00  0.00    +0.123 HD
BRANCH  16  18
ATOM     18  C   UNL     1      -1.430  -0.367   0.204  0.00  0.00    +0.087 C 
BRANCH  18  19
ATOM     19  C   UNL     1      -2.139   0.140  -1.026  0.00  0.00    -0.030 A 
ATOM     20  C   UNL     1      -2.372   1.494  -1.179  0.00  0.00    +0.006 A 
ATOM     21  C   UNL     1      -3.022   1.960  -2.307  0.00  0.00    +0.020 A 
ATOM     22  C   UNL     1      -3.440   1.072  -3.281  0.00  0.00    +0.041 A 
ATOM     23  C   UNL     1      -3.207  -0.283  -3.126  0.00  0.00    +0.020 A 
ATOM     24  C   UNL     1      -2.551  -0.748  -2.001  0.00  0.00    +0.006 A 
ATOM     25 CL   UNL     1      -4.257   1.656  -4.697  0.00  0.00    -0.084 Cl
ENDBRANCH  18  19
BRANCH  18  27
ATOM     26  C   UNL     1       0.596  -1.035  -1.096  0.00  0.00    +0.009 C 
ATOM     27  C   UNL     1       0.077  -0.159   0.045  0.00  0.00    +0.004 C 
ATOM     28  C   UNL     1       0.359   1.311  -0.272  0.00  0.00    +0.009 C 
ENDBRANCH  18  27
ENDBRANCH  16  18
ENDBRANCH   1  16
TORSDOF 7
