REMARK  Name = ZINC57608101
REMARK  12 active torsions:
REMARK  status: ('A' for Active; 'I' for Inactive)
REMARK    1  A    between atoms: C_1  and  C_2
REMARK    2  A    between atoms: C_9  and  C_14
REMARK    3  A    between atoms: C_14  and  C_16
REMARK    4  A    between atoms: C_14  and  N_25
REMARK    5  A    between atoms: N_20  and  C_21
REMARK    6  A    between atoms: C_21  and  C_22
REMARK    7  A    between atoms: C_21  and  C_23
REMARK    8  A    between atoms: C_21  and  C_24
REMARK    9  A    between atoms: N_25  and  C_26
REMARK   10  A    between atoms: N_25  and  C_33
REMARK   11  A    between atoms: C_26  and  C_27
REMARK   12  A    between atoms: C_33  and  C_34
REMARK                            x       y       z     vdW  Elec       q    Type
REMARK                         _______ _______ _______ _____ _____    ______ ____
ROOT
ATOM      1  C   UNL     1      -0.342  -4.125   3.717  0.00  0.00    +0.163 C 
ENDROOT
BRANCH   1  10
ATOM      2  C   UNL     1      -1.878   2.267   0.197  0.00  0.00    +0.044 C 
ATOM      3  C   UNL     1      -1.646   0.778   0.176  0.00  0.00    -0.050 A 
ATOM      4  C   UNL     1      -1.716   0.088  -1.026  0.00  0.00    +0.005 A 
ATOM      5  C   UNL     1      -1.507  -1.274  -1.069  0.00  0.00    +0.026 A 
ATOM      6  C   UNL     1      -1.223  -1.965   0.104  0.00  0.00    +0.049 A 
ATOM      7  C   UNL     1      -1.153  -1.262   1.321  0.00  0.00    -0.001 A 
ATOM      8  C   UNL     1      -1.363   0.121   1.340  0.00  0.00    +0.013 A 
ATOM      9  C   UNL     1      -0.853  -1.998   2.551  0.00  0.00    +0.021 A 
ATOM     10  C   UNL     1      -0.653  -3.337   2.471  0.00  0.00    +0.042 A 
ATOM     11  C   UNL     1      -0.735  -3.995   1.225  0.00  0.00    +0.254 A 
ATOM     12  O   UNL     1      -0.552  -5.199   1.176  0.00  0.00    -0.268 OA
ATOM     13  N   UNL     1      -1.009  -3.327   0.091  0.00  0.00    -0.322 N 
ATOM     14  H   UNL     1      -1.059  -3.811  -0.748  0.00  0.00    +0.169 HD
ENDBRANCH   1  10
BRANCH   1  15
ATOM     15  C   UNL     1       1.050  -4.693   3.619  0.00  0.00    +0.174 A 
ATOM     16  N   UNL     1       1.430  -5.711   2.887  0.00  0.00    -0.111 NA
ATOM     17  N   UNL     1       2.693  -5.886   3.074  0.00  0.00    -0.023 NA
ATOM     18  N   UNL     1       3.128  -5.006   3.906  0.00  0.00    -0.043 NA
ATOM     19  N   UNL     1       2.146  -4.248   4.261  0.00  0.00    -0.222 N 
BRANCH  19  20
ATOM     20  C   UNL     1       2.212  -3.118   5.191  0.00  0.00    +0.059 C 
ATOM     21  C   UNL     1       1.343  -3.414   6.415  0.00  0.00    +0.036 C 
ATOM     22  C   UNL     1       3.661  -2.904   5.633  0.00  0.00    +0.036 C 
ATOM     23  C   UNL     1       1.699  -1.855   4.496  0.00  0.00    +0.036 C 
ENDBRANCH  19  20
ENDBRANCH   1  15
BRANCH   1  24
ATOM     24  N   UNL     1      -1.309  -5.223   3.857  0.00  0.00    -0.277 NA
BRANCH  24  25
ATOM     25  C   UNL     1      -1.230  -5.827   5.193  0.00  0.00    +0.122 C 
BRANCH  25  26
ATOM     26  C   UNL     1      -0.176  -6.904   5.196  0.00  0.00    -0.015 A 
ATOM     27  C   UNL     1      -0.469  -8.175   4.726  0.00  0.00    +0.008 A 
ATOM     28  C   UNL     1       0.533  -9.133   4.748  0.00  0.00    +0.020 A 
ATOM     29  C   UNL     1       1.781  -8.792   5.233  0.00  0.00    +0.111 A 
ATOM     30  N   UNL     1       2.024  -7.573   5.673  0.00  0.00    -0.263 NA
ATOM     31  C   UNL     1       1.097  -6.635   5.661  0.00  0.00    +0.115 A 
ENDBRANCH  25  26
ENDBRANCH  24  25
BRANCH  24  32
ATOM     32  C   UNL     1      -2.674  -4.762   3.567  0.00  0.00    +0.160 C 
BRANCH  32  33
ATOM     33  C   UNL     1      -3.591  -5.951   3.445  0.00  0.00    +0.119 A 
ATOM     34  C   UNL     1      -4.376  -6.443   4.421  0.00  0.00    +0.046 A 
ATOM     35  C   UNL     1      -5.060  -7.553   3.875  0.00  0.00    +0.041 A 
ATOM     36  C   UNL     1      -4.653  -7.674   2.599  0.00  0.00    +0.195 A 
ATOM     37  O   UNL     1      -3.767  -6.697   2.342  0.00  0.00    -0.467 OA
ENDBRANCH  32  33
ENDBRANCH  24  32
ENDBRANCH   1  24
TORSDOF 8
