REMARK  Name = ZINC33502043
REMARK  7 active torsions:
REMARK  status: ('A' for Active; 'I' for Inactive)
REMARK    1  A    between atoms: C_1  and  C_2
REMARK    2  A    between atoms: C_2  and  C_3
REMARK    3  A    between atoms: N_7  and  C_21
REMARK    4  A    between atoms: C_10  and  C_15
REMARK    5  A    between atoms: C_15  and  C_17
REMARK    6  A    between atoms: C_15  and  N_20
REMARK    7  A    between atoms: C_21  and  C_22
REMARK                            x       y       z     vdW  Elec       q    Type
REMARK                         _______ _______ _______ _____ _____    ______ ____
ROOT
ATOM      1  C   UNL     1      -2.453   5.071   0.688  0.00  0.00    +0.259 C 
ATOM      2  C   UNL     1      -1.238   5.875   0.300  0.00  0.00    +0.261 C 
ATOM      3  O   UNL     1      -1.309   7.083   0.213  0.00  0.00    -0.271 OA
ATOM      4  N   UNL     1      -0.072   5.245   0.048  0.00  0.00    -0.256 N 
ATOM      5  C   UNL     1      -0.042   3.843   0.033  0.00  0.00    +0.079 A 
ATOM      6  C   UNL     1       1.165   3.163   0.013  0.00  0.00    +0.029 A 
ATOM      7  C   UNL     1       1.177   1.781   0.000  0.00  0.00    -0.060 A 
ATOM      8  C   UNL     1      -0.013   1.076   0.008  0.00  0.00    +0.005 A 
ATOM      9  C   UNL     1      -1.221   1.748   0.017  0.00  0.00    +0.048 A 
ATOM     10  C   UNL     1      -1.241   3.133   0.030  0.00  0.00    +0.143 A 
ATOM     11  O   UNL     1      -2.423   3.805   0.026  0.00  0.00    -0.478 OA
ENDROOT
BRANCH   1  13
ATOM     12  C   UNL     1      -3.752   4.150   2.614  0.00  0.00    +0.008 C 
ATOM     13  C   UNL     1      -2.457   4.853   2.203  0.00  0.00    +0.051 C 
ENDBRANCH   1  13
BRANCH   7  14
ATOM     14  C   UNL     1       2.489   1.041  -0.022  0.00  0.00    -0.041 C 
BRANCH  14  15
ATOM     15  N   UNL     1       2.405  -0.132   0.859  0.00  0.00    +0.383 N 
ATOM     16  H   UNL     1       3.363  -0.672   0.842  0.00  0.00    -0.089 HD
ATOM     17  H   UNL     1       1.603  -0.797   0.507  0.00  0.00    -0.089 HD
ATOM     18  H   UNL     1       2.186   0.195   1.886  0.00  0.00    -0.089 HD
ENDBRANCH  14  15
BRANCH  14  19
ATOM     19  C   UNL     1       2.794   0.585  -1.450  0.00  0.00    -0.021 C 
ATOM     20  C   UNL     1       2.745  -0.917  -1.739  0.00  0.00    +0.002 C 
ATOM     21  C   UNL     1       4.091  -0.191  -1.683  0.00  0.00    +0.002 C 
ENDBRANCH  14  19
ENDBRANCH   7  14
BRANCH   4  22
ATOM     22  C   UNL     1       1.148   6.015  -0.207  0.00  0.00    +0.209 C 
BRANCH  22  23
ATOM     23  C   UNL     1       1.270   6.287  -1.684  0.00  0.00    +0.228 C 
ATOM     24  O   UNL     1       0.422   5.878  -2.448  0.00  0.00    -0.274 OA
ATOM     25  N   UNL     1       2.322   6.986  -2.155  0.00  0.00    -0.328 N 
ATOM     26  H   UNL     1       2.411   7.185  -3.234  0.00  0.00    +0.145 HD
ATOM     27  H   UNL     1       3.091   7.357  -1.462  0.00  0.00    +0.145 HD
ENDBRANCH  22  23
ENDBRANCH   4  22
TORSDOF 6
