REMARK  Name = ZINC00661113
REMARK  9 active torsions:
REMARK  status: ('A' for Active; 'I' for Inactive)
REMARK    1  A    between atoms: C_1  and  C_2
REMARK    2  A    between atoms: C_2  and  C_3
REMARK    3  A    between atoms: C_2  and  C_4
REMARK    4  A    between atoms: C_4  and  S_5
REMARK    5  A    between atoms: S_5  and  C_6
REMARK    6  A    between atoms: C_11  and  N_12
REMARK    7  A    between atoms: C_13  and  C_15
REMARK    8  A    between atoms: C_16  and  N_29
REMARK    9  A    between atoms: C_20  and  C_24
REMARK                            x       y       z     vdW  Elec       q    Type
REMARK                         _______ _______ _______ _____ _____    ______ ____
ROOT
ATOM      1  C   UNL     1       1.019  10.037   0.029  0.00  0.00    +0.097 A 
ATOM      2  C   UNL     1       2.091   9.170   0.006  0.00  0.00    +0.053 A 
ATOM      3  C   UNL     1       1.824   7.741  -0.010  0.00  0.00    +0.029 A 
ATOM      4  C   UNL     1       2.754   6.668  -0.033  0.00  0.00    +0.014 A 
ATOM      5  C   UNL     1       2.293   5.388  -0.045  0.00  0.00    +0.029 A 
ATOM      6  C   UNL     1       0.915   5.130  -0.035  0.00  0.00    +0.079 A 
ATOM      7  N   UNL     1       0.047   6.137  -0.018  0.00  0.00    -0.239 NA
ATOM      8  C   UNL     1       0.455   7.387  -0.001  0.00  0.00    +0.111 A 
ATOM      9  S   UNL     1      -0.391   8.948   0.028  0.00  0.00    -0.062 S 
ENDROOT
BRANCH   6  10
ATOM     10  C   UNL     1       0.427   3.738  -0.048  0.00  0.00    +0.038 A 
ATOM     11  C   UNL     1      -0.863   3.275  -0.041  0.00  0.00    +0.017 A 
ATOM     12  C   UNL     1      -1.078   1.916  -0.062  0.00  0.00    +0.008 A 
ATOM     13  C   UNL     1      -0.009   1.077  -0.078  0.00  0.00    +0.046 A 
ATOM     14  S   UNL     1       1.363   2.218  -0.077  0.00  0.00    -0.095 S 
ENDBRANCH   6  10
BRANCH   1  16
ATOM     15  N   UNL     1      -0.124  12.139   0.068  0.00  0.00    -0.280 N 
ATOM     16  C   UNL     1       1.036  11.452   0.047  0.00  0.00    +0.257 C 
ATOM     17  O   UNL     1       2.097  12.049   0.045  0.00  0.00    -0.269 OA
ATOM     18  H   UNL     1      -0.969  11.667   0.004  0.00  0.00    +0.155 HD
BRANCH  15  24
ATOM     19  C   UNL     1      -1.111  14.190   0.898  0.00  0.00    +0.029 A 
ATOM     20  C   UNL     1      -1.089  15.573   1.007  0.00  0.00    +0.016 A 
ATOM     21  C   UNL     1      -0.078  16.298   0.406  0.00  0.00    +0.001 A 
ATOM     22  C   UNL     1       0.915  15.648  -0.305  0.00  0.00    +0.002 A 
ATOM     23  C   UNL     1       0.905  14.270  -0.414  0.00  0.00    +0.024 A 
ATOM     24  C   UNL     1      -0.109  13.535   0.181  0.00  0.00    +0.047 A 
BRANCH  19  25
ATOM     25  S   UNL     1      -2.399  13.263   1.665  0.00  0.00    -0.123 S 
BRANCH  25  26
ATOM     26  C   UNL     1      -3.434  14.524   2.458  0.00  0.00    +0.077 C 
BRANCH  26  28
ATOM     27  C   UNL     1      -5.410  14.895   3.942  0.00  0.00    +0.008 C 
ATOM     28  C   UNL     1      -4.607  13.846   3.170  0.00  0.00    -0.007 C 
ATOM     29  C   UNL     1      -5.511  13.172   2.135  0.00  0.00    +0.008 C 
ENDBRANCH  26  28
ENDBRANCH  25  26
ENDBRANCH  19  25
ENDBRANCH  15  24
ENDBRANCH   1  16
BRANCH   2  30
ATOM     30  N   UNL     1       3.394   9.650   0.000  0.00  0.00    -0.356 N 
ATOM     31  H   UNL     1       4.139   9.029  -0.015  0.00  0.00    +0.142 HD
ATOM     32  H   UNL     1       3.559  10.605   0.011  0.00  0.00    +0.142 HD
ENDBRANCH   2  30
TORSDOF 7
