REMARK  Name = ZINC01068315
REMARK  9 active torsions:
REMARK  status: ('A' for Active; 'I' for Inactive)
REMARK    1  A    between atoms: C_1  and  C_2
REMARK    2  A    between atoms: C_2  and  C_3
REMARK    3  A    between atoms: C_4  and  C_31
REMARK    4  A    between atoms: C_6  and  N_10
REMARK    5  A    between atoms: C_7  and  C_8
REMARK    6  A    between atoms: C_11  and  C_13
REMARK    7  A    between atoms: C_15  and  C_25
REMARK    8  A    between atoms: C_21  and  C_24
REMARK    9  A    between atoms: C_22  and  C_23
REMARK                            x       y       z     vdW  Elec       q    Type
REMARK                         _______ _______ _______ _____ _____    ______ ____
ROOT
ATOM      1  C   UNL     1      -4.933   1.978   0.035  0.00  0.00    +0.048 A 
ATOM      2  C   UNL     1      -5.183   0.618  -0.074  0.00  0.00    +0.042 A 
ATOM      3  C   UNL     1      -6.508   0.156  -0.067  0.00  0.00    +0.072 A 
ATOM      4  N   UNL     1      -7.527   0.984   0.042  0.00  0.00    -0.246 NA
ATOM      5  C   UNL     1      -7.354   2.302   0.151  0.00  0.00    +0.076 A 
ATOM      6  C   UNL     1      -6.046   2.850   0.157  0.00  0.00    +0.013 A 
ATOM      7  C   UNL     1      -5.874   4.234   0.278  0.00  0.00    +0.011 A 
ATOM      8  C   UNL     1      -6.966   5.042   0.394  0.00  0.00    +0.004 A 
ATOM      9  C   UNL     1      -8.253   4.508   0.393  0.00  0.00    -0.045 A 
ATOM     10  C   UNL     1      -8.457   3.169   0.267  0.00  0.00    -0.022 A 
ATOM     11  C   UNL     1      -9.858   2.614   0.269  0.00  0.00    +0.046 C 
ATOM     12  C   UNL     1      -9.438   5.430   0.522  0.00  0.00    +0.044 C 
ENDROOT
BRANCH   3  13
ATOM     13  C   UNL     1      -6.767  -1.300  -0.185  0.00  0.00    +0.003 A 
ATOM     14  C   UNL     1      -5.713  -2.209  -0.308  0.00  0.00    +0.030 A 
ATOM     15  C   UNL     1      -5.999  -3.555  -0.411  0.00  0.00    +0.111 A 
ATOM     16  N   UNL     1      -7.246  -3.985  -0.404  0.00  0.00    -0.263 NA
ATOM     17  C   UNL     1      -8.269  -3.160  -0.294  0.00  0.00    +0.111 A 
ATOM     18  C   UNL     1      -8.073  -1.799  -0.181  0.00  0.00    +0.030 A 
ENDBRANCH   3  13
BRANCH   1  20
ATOM     19  N   UNL     1      -2.507   1.649   0.041  0.00  0.00    -0.275 N 
ATOM     20  C   UNL     1      -3.550   2.501   0.032  0.00  0.00    +0.249 C 
ATOM     21  O   UNL     1      -3.355   3.701   0.021  0.00  0.00    -0.270 OA
ATOM     22  H   UNL     1      -2.663   0.692   0.049  0.00  0.00    +0.156 HD
BRANCH  19  26
ATOM     23  C   UNL     1       1.201   2.201   0.033  0.00  0.00    -0.018 A 
ATOM     24  C   UNL     1       1.078   3.541   0.021  0.00  0.00    -0.007 A 
ATOM     25  S   UNL     1      -0.685   3.790   0.025  0.00  0.00    -0.077 S 
ATOM     26  C   UNL     1      -1.210   2.140   0.037  0.00  0.00    +0.090 A 
ATOM     27  C   UNL     1      -0.017   1.428   0.045  0.00  0.00    +0.084 A 
ATOM     28  C   UNL     1       2.169   4.581   0.006  0.00  0.00    +0.052 C 
BRANCH  23  30
ATOM     29  C   UNL     1       3.006   1.297  -1.407  0.00  0.00    +0.009 C 
ATOM     30  C   UNL     1       2.553   1.536   0.035  0.00  0.00    +0.034 C 
ENDBRANCH  23  30
BRANCH  27  31
ATOM     31  C   UNL     1       0.002  -0.004   0.058  0.00  0.00    +0.102 C 
ATOM     32  N   UNL     1       0.018  -1.140   0.069  0.00  0.00    -0.191 NA
ENDBRANCH  27  31
ENDBRANCH  19  26
ENDBRANCH   1  20
TORSDOF 5
