REMARK  Name = ZINC39760740
REMARK  5 active torsions:
REMARK  status: ('A' for Active; 'I' for Inactive)
REMARK    1  A    between atoms: C_7  and  C_10
REMARK    2  A    between atoms: C_13  and  S_16
REMARK    3  A    between atoms: S_16  and  C_17
REMARK    4  A    between atoms: C_17  and  C_18
REMARK    5  A    between atoms: C_24  and  C_27
REMARK                            x       y       z     vdW  Elec       q    Type
REMARK                         _______ _______ _______ _____ _____    ______ ____
ROOT
ATOM      1  C   UNL     1      -0.019  -5.097   2.832  0.00  0.00    +0.170 C 
ENDROOT
BRANCH   1   2
ATOM      2  C   UNL     1      -0.048  -5.838   4.144  0.00  0.00    +0.226 C 
ATOM      3  O   UNL     1      -0.158  -7.046   4.155  0.00  0.00    -0.275 OA
ATOM      4  N   UNL     1       0.048  -5.160   5.304  0.00  0.00    -0.300 N 
ATOM      5  C   UNL     1       0.175  -3.696   5.307  0.00  0.00    +0.108 C 
ATOM      6  C   UNL     1       1.407  -3.310   6.131  0.00  0.00    +0.020 C 
ATOM      7  C   UNL     1       1.299  -3.934   7.525  0.00  0.00    +0.013 C 
ATOM      8  C   UNL     1       1.259  -5.459   7.401  0.00  0.00    +0.062 C 
ATOM      9  C   UNL     1       0.020  -5.869   6.590  0.00  0.00    +0.118 C 
BRANCH   8  10
ATOM     10  C   UNL     1       1.187  -6.074   8.775  0.00  0.00    +0.084 A 
ATOM     11  N   UNL     1       0.261  -5.908   9.675  0.00  0.00    -0.244 NA
ATOM     12  C   UNL     1       0.310  -6.519  10.876  0.00  0.00    +0.078 A 
ATOM     13  C   UNL     1      -0.591  -6.458  11.960  0.00  0.00    +0.029 A 
ATOM     14  C   UNL     1      -0.351  -7.162  13.100  0.00  0.00    +0.002 A 
ATOM     15  C   UNL     1       0.777  -7.959  13.239  0.00  0.00    +0.001 A 
ATOM     16  C   UNL     1       1.682  -8.045  12.198  0.00  0.00    +0.017 A 
ATOM     17  C   UNL     1       1.450  -7.338  11.043  0.00  0.00    +0.039 A 
ATOM     18  S   UNL     1       2.280  -7.135   9.489  0.00  0.00    -0.072 S 
ENDBRANCH   8  10
ENDBRANCH   1   2
BRANCH   1  19
ATOM     19  S   UNL     1      -0.167  -6.280   1.465  0.00  0.00    -0.087 S 
BRANCH  19  23
ATOM     20  C   UNL     1       0.676  -3.129  -0.021  0.00  0.00    +0.238 C 
ATOM     21  N   UNL     1      -0.625  -3.009  -0.013  0.00  0.00    -0.145 NA
ATOM     22  N   UNL     1      -1.227  -4.276  -0.013  0.00  0.00    -0.219 N 
ATOM     23  C   UNL     1      -0.115  -5.241  -0.021  0.00  0.00    +0.339 C 
ATOM     24  O   UNL     1       1.066  -4.427  -0.031  0.00  0.00    -0.443 OA
ATOM     25  H   UNL     1      -2.177  -4.474  -0.008  0.00  0.00    +0.173 HD
BRANCH  20  32
ATOM     26  C   UNL     1      -0.016   1.354   0.009  0.00  0.00    +0.001 A 
ATOM     27  C   UNL     1       1.163   2.101   0.002  0.00  0.00    +0.002 A 
ATOM     28  C   UNL     1       2.384   1.511  -0.013  0.00  0.00    +0.026 A 
ATOM     29  C   UNL     1       2.483   0.096  -0.021  0.00  0.00    +0.043 A 
ATOM     30  N   UNL     1       3.531  -0.705  -0.036  0.00  0.00    -0.380 N 
ATOM     31  C   UNL     1       3.075  -2.099  -0.039  0.00  0.00    +0.154 C 
ATOM     32  C   UNL     1       1.563  -2.044  -0.024  0.00  0.00    +0.043 C 
ATOM     33  C   UNL     1       1.237  -0.687  -0.013  0.00  0.00    +0.008 A 
ATOM     34  C   UNL     1       0.002  -0.004   0.002  0.00  0.00    +0.010 A 
ATOM     35  H   UNL     1       4.457  -0.418  -0.044  0.00  0.00    +0.160 HD
ENDBRANCH  20  32
ENDBRANCH  19  23
ENDBRANCH   1  19
TORSDOF 5
