REMARK  Name = ZINC00463772
REMARK  6 active torsions:
REMARK  status: ('A' for Active; 'I' for Inactive)
REMARK    1  A    between atoms: C_1  and  C_2
REMARK    2  A    between atoms: C_7  and  C_8
REMARK    3  A    between atoms: C_11  and  S_13
REMARK    4  A    between atoms: S_13  and  C_14
REMARK    5  A    between atoms: C_14  and  C_15
REMARK    6  A    between atoms: C_18  and  N_21
REMARK                            x       y       z     vdW  Elec       q    Type
REMARK                         _______ _______ _______ _____ _____    ______ ____
ROOT
ATOM      1  C   UNL     1       1.172   3.564   0.009  0.00  0.00    +0.249 A 
ATOM      2  N   UNL     1       0.110   4.331   0.024  0.00  0.00    -0.106 NA
ATOM      3  N   UNL     1       0.473   5.565   0.026  0.00  0.00    -0.101 NA
ATOM      4  C   UNL     1       1.784   5.635   0.014  0.00  0.00    +0.278 A 
ATOM      5  O   UNL     1       2.255   4.373   0.009  0.00  0.00    -0.411 OA
ENDROOT
BRANCH   1  12
ATOM      6  C   UNL     1      -1.331   2.113   0.020  0.00  0.00    +0.044 C 
ATOM      7  C   UNL     1      -0.017   1.375   0.010  0.00  0.00    -0.038 A 
ATOM      8  C   UNL     1       0.002  -0.004   0.002  0.00  0.00    +0.004 A 
ATOM      9  C   UNL     1       1.208  -0.682  -0.014  0.00  0.00    +0.000 A 
ATOM     10  C   UNL     1       2.402   0.016  -0.021  0.00  0.00    +0.001 A 
ATOM     11  C   UNL     1       2.398   1.395  -0.014  0.00  0.00    +0.013 A 
ATOM     12  C   UNL     1       1.185   2.087   0.002  0.00  0.00    +0.041 A 
ENDBRANCH   1  12
BRANCH   4  13
ATOM     13  S   UNL     1       2.750   7.108   0.012  0.00  0.00    -0.061 S 
BRANCH  13  14
ATOM     14  C   UNL     1       1.432   8.348   0.032  0.00  0.00    +0.114 C 
BRANCH  14  15
ATOM     15  C   UNL     1       2.039   9.728   0.033  0.00  0.00    -0.037 A 
ATOM     16  C   UNL     1       2.325  10.356   1.230  0.00  0.00    +0.007 A 
ATOM     17  C   UNL     1       2.886  11.619   1.232  0.00  0.00    +0.033 A 
ATOM     18  C   UNL     1       3.153  12.258   0.035  0.00  0.00    +0.126 A 
ATOM     19  C   UNL     1       2.863  11.631  -1.163  0.00  0.00    +0.033 A 
ATOM     20  C   UNL     1       2.306  10.366  -1.164  0.00  0.00    +0.007 A 
BRANCH  18  21
ATOM     21  N   UNL     1       3.750  13.612   0.036  0.00  0.00    +0.056 N 
ATOM     22  O   UNL     1       3.986  14.175  -1.018  0.00  0.00    -0.126 OA
ATOM     23  O   UNL     1       4.006  14.165   1.091  0.00  0.00    -0.126 OA
ENDBRANCH  18  21
ENDBRANCH  14  15
ENDBRANCH  13  14
ENDBRANCH   4  13
TORSDOF 5
