REMARK  Name = ZINC06445173
REMARK  4 active torsions:
REMARK  status: ('A' for Active; 'I' for Inactive)
REMARK    1  A    between atoms: C_12  and  C_13
REMARK    2  A    between atoms: C_13  and  C_15
REMARK    3  A    between atoms: C_13  and  N_66
REMARK    4  A    between atoms: N_19  and  C_20
REMARK                            x       y       z     vdW  Elec       q    Type
REMARK                         _______ _______ _______ _____ _____    ______ ____
ROOT
ATOM      1  C   UNL     1       3.643   2.285  -0.020  0.00  0.00    +0.039 C 
ENDROOT
BRANCH   1  13
ATOM      2  C   UNL     1       2.553   0.058  -0.094  0.00  0.00    +0.017 A 
ATOM      3  C   UNL     1       1.347  -0.768  -0.075  0.00  0.00    +0.002 A 
ATOM      4  C   UNL     1       1.424  -2.163  -0.162  0.00  0.00    +0.059 A 
ATOM      5  C   UNL     1       0.269  -2.916  -0.144  0.00  0.00    +0.163 A 
ATOM      6  C   UNL     1      -0.977  -2.291  -0.037  0.00  0.00    +0.164 A 
ATOM      7  C   UNL     1      -1.063  -0.912   0.051  0.00  0.00    +0.075 A 
ATOM      8  C   UNL     1       0.091  -0.139   0.033  0.00  0.00    +0.053 A 
ATOM      9  N   UNL     1       0.023   1.237   0.119  0.00  0.00    -0.322 N 
ATOM     10  H   UNL     1      -0.842   1.669   0.190  0.00  0.00    +0.169 HD
ATOM     11  C   UNL     1       1.139   1.986   0.102  0.00  0.00    +0.251 A 
ATOM     12  O   UNL     1       1.041   3.199   0.181  0.00  0.00    -0.268 OA
ATOM     13  C   UNL     1       2.419   1.406  -0.005  0.00  0.00    +0.011 A 
ATOM     14  O   UNL     1      -2.121  -3.026  -0.014  0.00  0.00    -0.485 OA
ATOM     15  C   UNL     1      -2.028  -4.377  -0.479  0.00  0.00    +0.270 C 
ATOM     16  C   UNL     1      -0.792  -5.022   0.161  0.00  0.00    +0.270 C 
ATOM     17  O   UNL     1       0.361  -4.272  -0.234  0.00  0.00    -0.485 OA
ENDBRANCH   1  13
BRANCH   1  24
ATOM     18  C   UNL     1       4.697   4.187   1.065  0.00  0.00    -0.077 C 
ATOM     19  C   UNL     1       4.895   4.937   2.354  0.00  0.00    -0.019 C 
ATOM     20  C   UNL     1       6.009   4.238   3.161  0.00  0.00    -0.002 C 
ATOM     21  C   UNL     1       5.529   3.039   3.840  0.00  0.00    -0.002 C 
ATOM     22  C   UNL     1       5.001   1.980   2.849  0.00  0.00    -0.019 C 
ATOM     23  C   UNL     1       3.621   2.385   2.408  0.00  0.00    -0.077 C 
ATOM     24  N   UNL     1       3.576   3.188   1.139  0.00  0.00    +0.389 N 
ATOM     25  H   UNL     1       2.686   3.699   1.111  0.00  0.00    -0.080 HD
ENDBRANCH   1  24
BRANCH   1  26
ATOM     26  C   UNL     1       3.648   3.117  -1.277  0.00  0.00    +0.143 A 
ATOM     27  N   UNL     1       2.927   4.187  -1.509  0.00  0.00    -0.115 NA
ATOM     28  N   UNL     1       3.215   4.611  -2.691  0.00  0.00    -0.023 NA
ATOM     29  N   UNL     1       4.101   3.840  -3.219  0.00  0.00    -0.044 NA
ATOM     30  N   UNL     1       4.397   2.910  -2.375  0.00  0.00    -0.227 N 
BRANCH  30  31
ATOM     31  C   UNL     1       5.365   1.829  -2.577  0.00  0.00    +0.111 C 
ATOM     32  C   UNL     1       6.752   2.425  -2.826  0.00  0.00    +0.027 C 
ATOM     33  C   UNL     1       7.763   1.296  -3.036  0.00  0.00    +0.002 C 
ATOM     34  C   UNL     1       7.345   0.457  -4.245  0.00  0.00    +0.000 C 
ATOM     35  C   UNL     1       5.958  -0.140  -3.996  0.00  0.00    +0.002 C 
ATOM     36  C   UNL     1       4.947   0.989  -3.785  0.00  0.00    +0.027 C 
ENDBRANCH  30  31
ENDBRANCH   1  26
TORSDOF 4
