REMARK  Name = ZINC36494889
REMARK  13 active torsions:
REMARK  status: ('A' for Active; 'I' for Inactive)
REMARK    1  A    between atoms: C_1  and  C_2
REMARK    2  A    between atoms: C_5  and  S_8
REMARK    3  A    between atoms: S_8  and  C_11
REMARK    4  A    between atoms: C_11  and  N_12
REMARK    5  A    between atoms: C_13  and  C_15
REMARK    6  A    between atoms: C_15  and  C_17
REMARK    7  A    between atoms: C_15  and  N_26
REMARK    8  A    between atoms: N_26  and  C_27
REMARK    9  A    between atoms: C_27  and  C_28
REMARK   10  A    between atoms: C_33  and  C_35
REMARK   11  A    between atoms: C_35  and  C_36
REMARK   12  A    between atoms: C_36  and  C_37
REMARK   13  A    between atoms: C_36  and  C_38
REMARK                            x       y       z     vdW  Elec       q    Type
REMARK                         _______ _______ _______ _____ _____    ______ ____
ROOT
ATOM      1  C   UNL     1       2.868  -4.935   3.687  0.00  0.00    +0.193 C 
ENDROOT
BRANCH   1   2
ATOM      2  C   UNL     1       1.913  -3.992   4.372  0.00  0.00    -0.015 A 
ATOM      3  C   UNL     1       0.877  -4.494   5.137  0.00  0.00    +0.010 A 
ATOM      4  C   UNL     1      -0.001  -3.633   5.767  0.00  0.00    +0.050 A 
ATOM      5  C   UNL     1       0.156  -2.263   5.634  0.00  0.00    +0.166 A 
ATOM      6  C   UNL     1       1.199  -1.757   4.863  0.00  0.00    +0.167 A 
ATOM      7  C   UNL     1       2.079  -2.626   4.239  0.00  0.00    +0.055 A 
ATOM      8  O   UNL     1       1.139  -0.393   4.888  0.00  0.00    -0.453 OA
ATOM      9  C   UNL     1      -0.189  -0.075   5.344  0.00  0.00    +0.466 C 
ATOM     10  O   UNL     1      -0.559  -1.216   6.141  0.00  0.00    -0.453 OA
ENDBRANCH   1   2
BRANCH   1  12
ATOM     11  N   UNL     1       1.668  -4.587   1.552  0.00  0.00    -0.294 N 
ATOM     12  C   UNL     1       2.243  -5.448   2.415  0.00  0.00    +0.239 C 
ATOM     13  O   UNL     1       2.256  -6.635   2.169  0.00  0.00    -0.273 OA
ATOM     14  H   UNL     1       1.657  -3.637   1.750  0.00  0.00    +0.150 HD
BRANCH  11  15
ATOM     15  C   UNL     1       1.060  -5.085   0.316  0.00  0.00    +0.278 C 
BRANCH  15  16
ATOM     16  S   UNL     1      -0.718  -5.336   0.576  0.00  0.00    +0.013 S 
ATOM     17  O   UNL     1      -0.941  -6.042   1.788  0.00  0.00    -0.168 OA
ATOM     18  O   UNL     1      -1.334  -5.759  -0.633  0.00  0.00    -0.168 OA
BRANCH  16  23
ATOM     19  C   UNL     1      -2.936   0.185   1.581  0.00  0.00    +0.044 C 
ATOM     20  C   UNL     1      -2.382  -1.194   1.330  0.00  0.00    -0.050 A 
ATOM     21  C   UNL     1      -2.317  -1.689   0.041  0.00  0.00    +0.005 A 
ATOM     22  C   UNL     1      -1.809  -2.954  -0.190  0.00  0.00    +0.027 A 
ATOM     23  C   UNL     1      -1.365  -3.723   0.869  0.00  0.00    +0.090 A 
ATOM     24  C   UNL     1      -1.428  -3.228   2.158  0.00  0.00    +0.027 A 
ATOM     25  C   UNL     1      -1.933  -1.962   2.388  0.00  0.00    +0.005 A 
ENDBRANCH  16  23
ENDBRANCH  15  16
ENDBRANCH  11  15
ENDBRANCH   1  12
BRANCH   1  26
ATOM     26  N   UNL     1       3.163  -6.062   4.575  0.00  0.00    -0.279 N 
ATOM     27  C   UNL     1       4.015  -5.903   5.606  0.00  0.00    +0.217 C 
ATOM     28  O   UNL     1       4.539  -4.826   5.799  0.00  0.00    -0.276 OA
BRANCH  26  29
ATOM     29  C   UNL     1       2.530  -7.363   4.343  0.00  0.00    +0.183 C 
BRANCH  29  30
ATOM     30  C   UNL     1       3.489  -8.264   3.608  0.00  0.00    +0.122 A 
ATOM     31  C   UNL     1       4.292  -9.184   4.172  0.00  0.00    +0.046 A 
ATOM     32  C   UNL     1       5.015  -9.795   3.122  0.00  0.00    +0.041 A 
ATOM     33  C   UNL     1       4.611  -9.211   1.979  0.00  0.00    +0.195 A 
ATOM     34  O   UNL     1       3.682  -8.289   2.280  0.00  0.00    -0.466 OA
ENDBRANCH  29  30
ENDBRANCH  26  29
BRANCH  27  35
ATOM     35  C   UNL     1       4.318  -7.062   6.520  0.00  0.00    +0.099 C 
BRANCH  35  36
ATOM     36  C   UNL     1       5.307  -6.617   7.599  0.00  0.00    -0.008 C 
ATOM     37  C   UNL     1       5.519  -7.756   8.599  0.00  0.00    +0.008 C 
ATOM     38  C   UNL     1       6.644  -6.256   6.948  0.00  0.00    +0.008 C 
ENDBRANCH  35  36
ENDBRANCH  27  35
ENDBRANCH   1  26
TORSDOF 10
