REMARK  Name = ZINC12080123
REMARK  12 active torsions:
REMARK  status: ('A' for Active; 'I' for Inactive)
REMARK    1  A    between atoms: C_1  and  N_61
REMARK    2  A    between atoms: C_2  and  N_61
REMARK    3  A    between atoms: C_3  and  C_4
REMARK    4  A    between atoms: C_3  and  N_61
REMARK    5  A    between atoms: C_4  and  N_5
REMARK    6  A    between atoms: N_5  and  C_6
REMARK    7  A    between atoms: C_6  and  C_7
REMARK    8  A    between atoms: C_15  and  N_16
REMARK    9  A    between atoms: N_16  and  C_17
REMARK   10  A    between atoms: N_16  and  C_18
REMARK   11  A    between atoms: C_22  and  C_24
REMARK   12  A    between atoms: C_27  and  C_30
REMARK                            x       y       z     vdW  Elec       q    Type
REMARK                         _______ _______ _______ _____ _____    ______ ____
ROOT
ATOM      1  N   UNL     1       5.095  -2.182   0.455  0.00  0.00    -0.295 N 
ATOM      2  C   UNL     1       5.737  -1.019   0.223  0.00  0.00    +0.247 C 
ATOM      3  O   UNL     1       5.237   0.032   0.571  0.00  0.00    -0.270 OA
ENDROOT
BRANCH   2   4
ATOM      4  C   UNL     1       7.051  -1.023  -0.456  0.00  0.00    +0.037 A 
ATOM      5  C   UNL     1       8.133  -0.345   0.107  0.00  0.00    +0.013 A 
ATOM      6  C   UNL     1       9.357  -0.356  -0.529  0.00  0.00    +0.013 A 
ATOM      7  C   UNL     1       9.510  -1.029  -1.728  0.00  0.00    +0.055 A 
ATOM      8  C   UNL     1       8.441  -1.700  -2.294  0.00  0.00    +0.013 A 
ATOM      9  C   UNL     1       7.213  -1.701  -1.666  0.00  0.00    +0.013 A 
BRANCH   7  10
ATOM     10  C   UNL     1      10.849  -1.033  -2.420  0.00  0.00    +0.417 C 
ATOM     11  F   UNL     1      10.926   0.059  -3.292  0.00  0.00    -0.166 F 
ATOM     12  F   UNL     1      11.868  -0.940  -1.466  0.00  0.00    -0.166 F 
ATOM     13  F   UNL     1      10.996  -2.220  -3.146  0.00  0.00    -0.166 F 
ENDBRANCH   7  10
ENDBRANCH   2   4
BRANCH   1  14
ATOM     14  C   UNL     1       5.759  -3.455   0.166  0.00  0.00    +0.090 C 
BRANCH  14  15
ATOM     15  C   UNL     1       6.470  -3.957   1.425  0.00  0.00    -0.060 C 
BRANCH  15  18
ATOM     16  C   UNL     1       8.456  -4.856   0.372  0.00  0.00    -0.097 C 
ATOM     17  C   UNL     1       7.524  -5.942   2.325  0.00  0.00    -0.097 C 
ATOM     18  N   UNL     1       7.209  -5.192   1.091  0.00  0.00    +0.377 N 
ATOM     19  H   UNL     1       6.622  -5.778   0.485  0.00  0.00    -0.083 HD
ENDBRANCH  15  18
ENDBRANCH  14  15
ENDBRANCH   1  14
BRANCH   1  20
ATOM     20  C   UNL     1       3.734  -2.171   0.995  0.00  0.00    +0.146 C 
BRANCH  20  21
ATOM     21  C   UNL     1       2.743  -2.103  -0.139  0.00  0.00    +0.008 A 
ATOM     22  C   UNL     1       3.071  -2.607  -1.362  0.00  0.00    +0.018 A 
ATOM     23  C   UNL     1       2.118  -2.523  -2.396  0.00  0.00    +0.002 A 
ATOM     24  C   UNL     1       2.392  -3.021  -3.680  0.00  0.00    +0.059 A 
ATOM     25  C   UNL     1       1.448  -2.925  -4.661  0.00  0.00    +0.167 A 
ATOM     26  C   UNL     1       0.202  -2.331  -4.399  0.00  0.00    +0.168 A 
ATOM     27  C   UNL     1      -0.089  -1.839  -3.159  0.00  0.00    +0.075 A 
ATOM     28  C   UNL     1       0.862  -1.924  -2.130  0.00  0.00    +0.051 A 
ATOM     29  C   UNL     1       1.485  -1.522   0.063  0.00  0.00    +0.103 A 
ATOM     30  O   UNL     1      -0.541  -2.367  -5.545  0.00  0.00    -0.453 OA
ATOM     31  C   UNL     1       0.399  -2.607  -6.607  0.00  0.00    +0.466 C 
ATOM     32  O   UNL     1       1.470  -3.325  -5.968  0.00  0.00    -0.453 OA
ATOM     33  N   UNL     1       0.529  -1.414  -0.894  0.00  0.00    -0.343 N 
ATOM     34  H   UNL     1      -0.384  -0.981  -0.709  0.00  0.00    +0.167 HD
BRANCH  29  35
ATOM     35  N   UNL     1       1.165  -1.013   1.314  0.00  0.00    -0.322 N 
ATOM     36  C   UNL     1      -0.153  -0.366   1.299  0.00  0.00    +0.130 C 
ATOM     37  C   UNL     1       1.224  -2.063   2.340  0.00  0.00    +0.130 C 
ENDBRANCH  29  35
ENDBRANCH  20  21
ENDBRANCH   1  20
TORSDOF 8
