REMARK  Name = ZINC08708684
REMARK  6 active torsions:
REMARK  status: ('A' for Active; 'I' for Inactive)
REMARK    1  A    between atoms: C_1  and  C_2
REMARK    2  A    between atoms: C_2  and  C_4
REMARK    3  A    between atoms: C_2  and  N_46
REMARK    4  A    between atoms: C_12  and  N_15
REMARK    5  A    between atoms: N_15  and  S_16
REMARK    6  A    between atoms: S_16  and  C_19
REMARK                            x       y       z     vdW  Elec       q    Type
REMARK                         _______ _______ _______ _____ _____    ______ ____
ROOT
ATOM      1  C   UNL     1      -0.670   1.335  -0.068  0.00  0.00    -0.076 C 
ATOM      2  C   UNL     1      -1.732   1.870   0.895  0.00  0.00    +0.002 C 
ATOM      3  C   UNL     1      -1.883   3.381   0.693  0.00  0.00    +0.073 C 
ATOM      4  C   UNL     1      -2.254   3.657  -0.766  0.00  0.00    +0.002 C 
ATOM      5  C   UNL     1      -1.177   3.071  -1.682  0.00  0.00    -0.076 C 
ATOM      6  N   UNL     1      -1.098   1.612  -1.456  0.00  0.00    +0.387 N 
ATOM      7  H   UNL     1      -2.027   1.200  -1.605  0.00  0.00    -0.081 HD
ENDROOT
BRANCH   6   9
ATOM      8  C   UNL     1       1.296   1.310  -1.994  0.00  0.00    -0.004 C 
ATOM      9  C   UNL     1      -0.145   1.005  -2.408  0.00  0.00    +0.017 C 
BRANCH   9  10
ATOM     10  C   UNL     1      -0.359  -0.487  -2.420  0.00  0.00    +0.207 C 
ATOM     11  O   UNL     1      -1.014  -1.013  -1.545  0.00  0.00    -0.277 OA
ATOM     12  N   UNL     1       0.177  -1.237  -3.404  0.00  0.00    -0.242 N 
ATOM     13  C   UNL     1      -0.015  -2.571  -3.414  0.00  0.00    +0.303 C 
ATOM     14  O   UNL     1      -0.671  -3.098  -2.537  0.00  0.00    -0.253 OA
ATOM     15  N   UNL     1       0.521  -3.321  -4.398  0.00  0.00    -0.313 N 
ATOM     16  H   UNL     1       0.700  -0.816  -4.103  0.00  0.00    +0.159 HD
ATOM     17  H   UNL     1       1.045  -2.900  -5.098  0.00  0.00    +0.146 HD
ATOM     18  H   UNL     1       0.384  -4.281  -4.406  0.00  0.00    +0.146 HD
ENDBRANCH   9  10
ENDBRANCH   6   9
BRANCH   3  19
ATOM     19  N   UNL     1      -2.940   3.889   1.572  0.00  0.00    -0.187 NA
ATOM     20  H   UNL     1      -3.867   3.848   1.289  0.00  0.00    +0.148 HD
BRANCH  19  21
ATOM     21  S   UNL     1      -2.551   4.533   3.047  0.00  0.00    +0.059 S 
ATOM     22  O   UNL     1      -3.772   4.955   3.640  0.00  0.00    -0.153 OA
ATOM     23  O   UNL     1      -1.679   3.606   3.678  0.00  0.00    -0.153 OA
BRANCH  21  24
ATOM     24  C   UNL     1      -1.607   5.990   2.747  0.00  0.00    +0.105 A 
ATOM     25  C   UNL     1      -0.230   5.914   2.653  0.00  0.00    +0.028 A 
ATOM     26  C   UNL     1       0.510   7.056   2.413  0.00  0.00    +0.002 A 
ATOM     27  C   UNL     1      -0.126   8.276   2.277  0.00  0.00    +0.000 A 
ATOM     28  C   UNL     1      -1.502   8.353   2.376  0.00  0.00    +0.002 A 
ATOM     29  C   UNL     1      -2.243   7.210   2.611  0.00  0.00    +0.028 A 
ENDBRANCH  21  24
ENDBRANCH  19  21
ENDBRANCH   3  19
TORSDOF 5
