REMARK  Name = ZINC13219692
REMARK  12 active torsions:
REMARK  status: ('A' for Active; 'I' for Inactive)
REMARK    1  A    between atoms: C_1  and  C_2
REMARK    2  A    between atoms: C_2  and  N_3
REMARK    3  A    between atoms: N_3  and  C_4
REMARK    4  A    between atoms: C_4  and  C_5
REMARK    5  A    between atoms: C_14  and  C_16
REMARK    6  A    between atoms: C_16  and  S_17
REMARK    7  A    between atoms: S_17  and  C_18
REMARK    8  A    between atoms: C_21  and  C_27
REMARK    9  A    between atoms: N_22  and  C_23
REMARK   10  A    between atoms: C_23  and  C_24
REMARK   11  A    between atoms: C_24  and  C_25
REMARK   12  A    between atoms: C_30  and  C_33
REMARK                            x       y       z     vdW  Elec       q    Type
REMARK                         _______ _______ _______ _____ _____    ______ ____
ROOT
ATOM      1  S   UNL     1       7.414  -4.434  -0.077  0.00  0.00    -0.077 S 
ENDROOT
BRANCH   1   2
ATOM      2  C   UNL     1       8.546  -4.763  -1.386  0.00  0.00    +0.192 A 
ATOM      3  N   UNL     1       9.174  -3.870  -2.117  0.00  0.00    -0.122 NA
ATOM      4  N   UNL     1       9.926  -4.455  -2.979  0.00  0.00    -0.128 NA
ATOM      5  C   UNL     1       9.817  -5.757  -2.859  0.00  0.00    +0.165 A 
ATOM      6  N   UNL     1       8.929  -5.995  -1.835  0.00  0.00    -0.302 N 
BRANCH   5   7
ATOM      7  C   UNL     1      10.515  -6.777  -3.671  0.00  0.00    +0.019 A 
ATOM      8  C   UNL     1      10.031  -8.085  -3.720  0.00  0.00    +0.012 A 
ATOM      9  C   UNL     1      10.684  -9.030  -4.484  0.00  0.00    +0.004 A 
ATOM     10  C   UNL     1      11.823  -8.686  -5.191  0.00  0.00    -0.050 A 
ATOM     11  C   UNL     1      12.311  -7.393  -5.142  0.00  0.00    +0.004 A 
ATOM     12  C   UNL     1      11.664  -6.436  -4.386  0.00  0.00    +0.012 A 
ATOM     13  C   UNL     1      12.535  -9.726  -6.018  0.00  0.00    +0.044 C 
ENDBRANCH   5   7
BRANCH   6  14
ATOM     14  C   UNL     1       8.488  -7.298  -1.330  0.00  0.00    +0.137 C 
BRANCH  14  15
ATOM     15  C   UNL     1       7.199  -7.711  -2.042  0.00  0.00    +0.147 C 
BRANCH  15  16
ATOM     16  C   UNL     1       6.745  -9.051  -1.523  0.00  0.00    +0.358 C 
ATOM     17  O   UNL     1       7.388  -9.617  -0.670  0.00  0.00    -0.246 OA
ATOM     18  O   UNL     1       5.628  -9.615  -2.007  0.00  0.00    -0.246 OA
ENDBRANCH  15  16
ENDBRANCH  14  15
ENDBRANCH   6  14
ENDBRANCH   1   2
BRANCH   1  19
ATOM     19  C   UNL     1       7.434  -2.624  -0.092  0.00  0.00    +0.173 C 
BRANCH  19  21
ATOM     20  N   UNL     1       6.364  -0.774   1.153  0.00  0.00    -0.297 N 
ATOM     21  C   UNL     1       6.510  -2.102   0.978  0.00  0.00    +0.226 C 
ATOM     22  O   UNL     1       5.898  -2.877   1.682  0.00  0.00    -0.275 OA
BRANCH  20  24
ATOM     23  C   UNL     1       8.451   0.485   0.951  0.00  0.00    +0.024 C 
ATOM     24  C   UNL     1       7.103   0.163   0.303  0.00  0.00    +0.105 C 
ENDBRANCH  20  24
BRANCH  20  25
ATOM     25  C   UNL     1       5.465  -0.267   2.193  0.00  0.00    +0.143 C 
BRANCH  25  26
ATOM     26  C   UNL     1       4.083  -0.088   1.620  0.00  0.00    -0.026 A 
ATOM     27  C   UNL     1       3.176  -1.131   1.669  0.00  0.00    +0.009 A 
ATOM     28  C   UNL     1       1.907  -0.973   1.145  0.00  0.00    +0.050 A 
ATOM     29  C   UNL     1       1.541   0.232   0.568  0.00  0.00    +0.166 A 
ATOM     30  C   UNL     1       2.454   1.283   0.519  0.00  0.00    +0.167 A 
ATOM     31  C   UNL     1       3.724   1.117   1.047  0.00  0.00    +0.054 A 
ATOM     32  O   UNL     1       1.859   2.349  -0.091  0.00  0.00    -0.453 OA
ATOM     33  C   UNL     1       0.446   2.079  -0.047  0.00  0.00    +0.466 C 
ATOM     34  O   UNL     1       0.374   0.641  -0.011  0.00  0.00    -0.453 OA
ENDBRANCH  25  26
ENDBRANCH  20  25
ENDBRANCH  19  21
ENDBRANCH   1  19
TORSDOF 10
