REMARK  Name = ZINC03329217
REMARK  6 active torsions:
REMARK  status: ('A' for Active; 'I' for Inactive)
REMARK    1  A    between atoms: C_4  and  C_7
REMARK    2  A    between atoms: C_7  and  C_9
REMARK    3  A    between atoms: C_7  and  S_21
REMARK    4  A    between atoms: C_9  and  C_11
REMARK    5  A    between atoms: S_21  and  C_22
REMARK    6  A    between atoms: N_26  and  C_37
REMARK                            x       y       z     vdW  Elec       q    Type
REMARK                         _______ _______ _______ _____ _____    ______ ____
ROOT
ATOM      1  C   UNL     1       1.141  -0.643  -0.025  0.00  0.00    +0.172 A 
ATOM      2  N   UNL     1       0.002  -0.004   0.002  0.00  0.00    -0.202 NA
ATOM      3  C   UNL     1      -0.016   1.353   0.009  0.00  0.00    +0.190 A 
ATOM      4  N   UNL     1      -0.951   2.268   0.028  0.00  0.00    -0.143 NA
ATOM      5  N   UNL     1      -0.397   3.550   0.032  0.00  0.00    -0.194 N 
ATOM      6  C   UNL     1       0.953   3.479   0.018  0.00  0.00    +0.284 A 
ATOM      7  O   UNL     1       1.736   4.415   0.021  0.00  0.00    -0.265 OA
ATOM      8  C   UNL     1       1.283   2.058   0.001  0.00  0.00    +0.106 A 
ATOM      9  C   UNL     1       2.449   1.322  -0.022  0.00  0.00    +0.037 A 
ATOM     10  N   UNL     1       2.370  -0.018  -0.056  0.00  0.00    -0.323 N 
ATOM     11  C   UNL     1       3.540  -0.902  -0.143  0.00  0.00    +0.124 C 
ATOM     12  C   UNL     1       4.770  -0.288   0.521  0.00  0.00    +0.022 C 
ATOM     13  C   UNL     1       5.564   0.485  -0.539  0.00  0.00    +0.002 C 
ATOM     14  C   UNL     1       4.680   1.588  -1.115  0.00  0.00    +0.006 C 
ATOM     15  C   UNL     1       3.754   2.067   0.007  0.00  0.00    +0.054 C 
ENDROOT
BRANCH   5  16
ATOM     16  C   UNL     1      -1.134   4.739   0.049  0.00  0.00    +0.069 A 
ATOM     17  C   UNL     1      -0.661   5.841   0.749  0.00  0.00    +0.028 A 
ATOM     18  C   UNL     1      -1.388   7.015   0.759  0.00  0.00    +0.002 A 
ATOM     19  C   UNL     1      -2.593   7.090   0.084  0.00  0.00    +0.000 A 
ATOM     20  C   UNL     1      -3.070   5.992  -0.610  0.00  0.00    +0.002 A 
ATOM     21  C   UNL     1      -2.344   4.817  -0.629  0.00  0.00    +0.028 A 
ENDBRANCH   5  16
BRANCH   1  22
ATOM     22  S   UNL     1       1.106  -2.405  -0.024  0.00  0.00    -0.071 S 
BRANCH  22  23
ATOM     23  C   UNL     1      -0.682  -2.683   0.019  0.00  0.00    +0.155 C 
BRANCH  23  27
ATOM     24  C   UNL     1      -2.438  -1.220  -3.590  0.00  0.00    +0.000 A 
ATOM     25  C   UNL     1      -2.828  -0.699  -2.370  0.00  0.00    +0.000 A 
ATOM     26  C   UNL     1      -2.260  -1.172  -1.203  0.00  0.00    +0.005 A 
ATOM     27  C   UNL     1      -1.302  -2.167  -1.254  0.00  0.00    -0.027 A 
ATOM     28  C   UNL     1      -0.908  -2.685  -2.474  0.00  0.00    +0.005 A 
ATOM     29  C   UNL     1      -1.480  -2.215  -3.641  0.00  0.00    +0.000 A 
ENDBRANCH  23  27
BRANCH  23  30
ATOM     30  C   UNL     1      -0.958  -4.159   0.150  0.00  0.00    +0.183 C 
ATOM     31  O   UNL     1      -0.137  -4.966  -0.235  0.00  0.00    -0.290 OA
BRANCH  30  32
ATOM     32  C   UNL     1      -2.175  -4.604   0.722  0.00  0.00    +0.044 A 
ATOM     33  C   UNL     1      -3.201  -3.818   1.203  0.00  0.00    +0.095 A 
ATOM     34  N   UNL     1      -4.192  -4.602   1.669  0.00  0.00    -0.360 N 
ATOM     35  H   UNL     1      -5.018  -4.274   2.057  0.00  0.00    +0.165 HD
ATOM     36  C   UNL     1      -3.870  -5.936   1.520  0.00  0.00    +0.047 A 
ATOM     37  C   UNL     1      -2.604  -6.003   0.918  0.00  0.00    +0.010 A 
ATOM     38  C   UNL     1      -2.021  -7.239   0.653  0.00  0.00    +0.011 A 
ATOM     39  C   UNL     1      -2.698  -8.396   0.973  0.00  0.00    +0.001 A 
ATOM     40  C   UNL     1      -3.952  -8.332   1.561  0.00  0.00    +0.002 A 
ATOM     41  C   UNL     1      -4.538  -7.115   1.835  0.00  0.00    +0.026 A 
ENDBRANCH  30  32
ENDBRANCH  23  30
ENDBRANCH  22  23
ENDBRANCH   1  22
TORSDOF 6
