REMARK  Name = ZINC46079716
REMARK  6 active torsions:
REMARK  status: ('A' for Active; 'I' for Inactive)
REMARK    1  A    between atoms: C_6  and  C_7
REMARK    2  A    between atoms: C_7  and  N_8
REMARK    3  A    between atoms: N_12  and  C_15
REMARK    4  A    between atoms: C_18  and  C_21
REMARK    5  A    between atoms: N_23  and  C_24
REMARK    6  A    between atoms: C_24  and  C_25
REMARK                            x       y       z     vdW  Elec       q    Type
REMARK                         _______ _______ _______ _____ _____    ______ ____
ROOT
ATOM      1  C   UNL     1      -1.210  -3.591  -3.850  0.00  0.00    +0.038 A 
ATOM      2  C   UNL     1      -1.641  -3.945  -5.125  0.00  0.00    +0.024 A 
ATOM      3  C   UNL     1      -1.185  -5.104  -5.710  0.00  0.00    +0.015 A 
ATOM      4  C   UNL     1      -0.287  -5.926  -5.023  0.00  0.00    +0.037 A 
ATOM      5  C   UNL     1       0.144  -5.567  -3.743  0.00  0.00    +0.015 A 
ATOM      6  C   UNL     1      -0.312  -4.404  -3.165  0.00  0.00    +0.024 A 
ENDROOT
BRANCH   1  11
ATOM      7  N   UNL     1      -1.395  -0.102  -2.930  0.00  0.00    -0.281 N 
ATOM      8  C   UNL     1      -2.590  -0.009  -2.090  0.00  0.00    +0.111 C 
ATOM      9  C   UNL     1      -3.587  -1.094  -2.512  0.00  0.00    +0.038 C 
ATOM     10  C   UNL     1      -2.886  -2.455  -2.440  0.00  0.00    +0.117 C 
ATOM     11  N   UNL     1      -1.674  -2.415  -3.260  0.00  0.00    -0.255 N 
ATOM     12  C   UNL     1      -1.004  -1.271  -3.461  0.00  0.00    +0.309 C 
ATOM     13  O   UNL     1      -0.001  -1.294  -4.146  0.00  0.00    -0.252 OA
BRANCH   7  14
ATOM     14  C   UNL     1      -0.612   1.106  -3.201  0.00  0.00    +0.144 C 
BRANCH  14  20
ATOM     15  C   UNL     1      -2.138   2.727  -4.345  0.00  0.00    +0.008 A 
ATOM     16  C   UNL     1      -2.621   3.343  -5.484  0.00  0.00    +0.038 A 
ATOM     17  C   UNL     1      -2.103   3.009  -6.723  0.00  0.00    +0.123 A 
ATOM     18  C   UNL     1      -1.101   2.058  -6.821  0.00  0.00    +0.038 A 
ATOM     19  C   UNL     1      -0.620   1.443  -5.681  0.00  0.00    +0.008 A 
ATOM     20  C   UNL     1      -1.138   1.777  -4.443  0.00  0.00    -0.030 A 
ATOM     21  F   UNL     1      -2.575   3.611  -7.837  0.00  0.00    -0.205 F 
ENDBRANCH  14  20
ENDBRANCH   7  14
ENDBRANCH   1  11
BRANCH   4  22
ATOM     22  C   UNL     1       0.204  -7.169  -5.647  0.00  0.00    +0.244 C 
ATOM     23  O   UNL     1      -0.173  -7.480  -6.761  0.00  0.00    -0.270 OA
ATOM     24  N   UNL     1       1.069  -7.960  -4.983  0.00  0.00    -0.307 N 
ATOM     25  H   UNL     1       1.369  -7.713  -4.095  0.00  0.00    +0.149 HD
BRANCH  24  26
ATOM     26  C   UNL     1       1.557  -9.195  -5.603  0.00  0.00    +0.140 C 
BRANCH  26  27
ATOM     27  C   UNL     1       2.505  -9.890  -4.660  0.00  0.00    -0.027 A 
ATOM     28  C   UNL     1       3.856  -9.602  -4.703  0.00  0.00    +0.009 A 
ATOM     29  C   UNL     1       4.729 -10.236  -3.840  0.00  0.00    +0.050 A 
ATOM     30  C   UNL     1       4.252 -11.165  -2.929  0.00  0.00    +0.166 A 
ATOM     31  C   UNL     1       2.890 -11.456  -2.885  0.00  0.00    +0.167 A 
ATOM     32  C   UNL     1       2.020 -10.811  -3.749  0.00  0.00    +0.054 A 
ATOM     33  O   UNL     1       2.675 -12.391  -1.914  0.00  0.00    -0.453 OA
ATOM     34  C   UNL     1       3.966 -12.968  -1.644  0.00  0.00    +0.466 C 
ATOM     35  O   UNL     1       4.889 -11.917  -1.985  0.00  0.00    -0.453 OA
ENDBRANCH  26  27
ENDBRANCH  24  26
ENDBRANCH   4  22
TORSDOF 6
