REMARK  Name = ZINC04411652
REMARK  10 active torsions:
REMARK  status: ('A' for Active; 'I' for Inactive)
REMARK    1  A    between atoms: C_1  and  C_2
REMARK    2  A    between atoms: C_4  and  C_31
REMARK    3  A    between atoms: C_6  and  S_8
REMARK    4  A    between atoms: S_8  and  C_9
REMARK    5  A    between atoms: C_9  and  C_10
REMARK    6  A    between atoms: C_13  and  S_15
REMARK    7  A    between atoms: S_15  and  C_16
REMARK    8  A    between atoms: C_16  and  C_17
REMARK    9  A    between atoms: N_19  and  C_20
REMARK   10  A    between atoms: C_22  and  C_27
REMARK                            x       y       z     vdW  Elec       q    Type
REMARK                         _______ _______ _______ _____ _____    ______ ____
ROOT
ATOM      1  S   UNL     1      -1.516  -3.581   8.539  0.00  0.00    -0.056 S 
ENDROOT
BRANCH   1   5
ATOM      2  C   UNL     1       0.057  -2.104   5.319  0.00  0.00    +0.228 A 
ATOM      3  N   UNL     1       1.113  -2.394   6.020  0.00  0.00    -0.111 NA
ATOM      4  N   UNL     1       0.757  -2.905   7.145  0.00  0.00    -0.101 NA
ATOM      5  C   UNL     1      -0.552  -2.960   7.201  0.00  0.00    +0.278 A 
ATOM      6  O   UNL     1      -1.023  -2.449   6.048  0.00  0.00    -0.415 OA
BRANCH   2   7
ATOM      7  C   UNL     1       0.042  -1.489   3.943  0.00  0.00    +0.175 C 
BRANCH   7   8
ATOM      8  S   UNL     1       0.063  -2.804   2.693  0.00  0.00    -0.077 S 
BRANCH   8  14
ATOM      9  C   UNL     1      -0.023   1.580   0.053  0.00  0.00    +0.066 C 
ATOM     10  C   UNL     1       0.004   0.073   0.035  0.00  0.00    +0.043 A 
ATOM     11  C   UNL     1       0.014  -0.614  -1.169  0.00  0.00    +0.046 A 
ATOM     12  C   UNL     1       0.039  -2.000  -1.141  0.00  0.00    +0.043 A 
ATOM     13  N   UNL     1       0.053  -2.621   0.026  0.00  0.00    -0.227 NA
ATOM     14  C   UNL     1       0.044  -1.935   1.160  0.00  0.00    +0.189 A 
ATOM     15  N   UNL     1       0.025  -0.609   1.168  0.00  0.00    -0.227 NA
ATOM     16  C   UNL     1       0.050  -2.788  -2.425  0.00  0.00    +0.066 C 
ENDBRANCH   8  14
ENDBRANCH   7   8
ENDBRANCH   2   7
ENDBRANCH   1   5
BRANCH   1  17
ATOM     17  C   UNL     1      -0.283  -4.100   9.764  0.00  0.00    +0.175 C 
BRANCH  17  18
ATOM     18  C   UNL     1      -0.983  -4.658  10.976  0.00  0.00    +0.228 C 
ATOM     19  O   UNL     1      -2.195  -4.702  11.011  0.00  0.00    -0.275 OA
ATOM     20  N   UNL     1      -0.263  -5.109  12.023  0.00  0.00    -0.284 N 
ATOM     21  H   UNL     1       0.704  -5.149  11.964  0.00  0.00    +0.155 HD
BRANCH  20  22
ATOM     22  C   UNL     1      -0.911  -5.519  13.194  0.00  0.00    +0.052 A 
ATOM     23  C   UNL     1      -2.167  -5.017  13.506  0.00  0.00    +0.037 A 
ATOM     24  C   UNL     1      -2.805  -5.425  14.662  0.00  0.00    +0.057 A 
ATOM     25  C   UNL     1      -2.193  -6.331  15.508  0.00  0.00    +0.014 A 
ATOM     26  C   UNL     1      -0.942  -6.834  15.201  0.00  0.00    +0.022 A 
ATOM     27  C   UNL     1      -0.301  -6.435  14.043  0.00  0.00    +0.062 A 
ATOM     28 CL   UNL     1       1.266  -7.071  13.653  0.00  0.00    -0.082 Cl
BRANCH  24  29
ATOM     29  C   UNL     1      -4.168  -4.880  15.001  0.00  0.00    +0.417 C 
ATOM     30  F   UNL     1      -5.152  -5.705  14.446  0.00  0.00    -0.166 F 
ATOM     31  F   UNL     1      -4.322  -4.841  16.391  0.00  0.00    -0.166 F 
ATOM     32  F   UNL     1      -4.297  -3.587  14.482  0.00  0.00    -0.166 F 
ENDBRANCH  24  29
ENDBRANCH  20  22
ENDBRANCH  17  18
ENDBRANCH   1  17
TORSDOF 8
