REMARK  Name = ZINC18355815
REMARK  11 active torsions:
REMARK  status: ('A' for Active; 'I' for Inactive)
REMARK    1  A    between atoms: C_1  and  C_2
REMARK    2  A    between atoms: C_2  and  C_3
REMARK    3  A    between atoms: C_3  and  N_4
REMARK    4  A    between atoms: N_4  and  C_5
REMARK    5  A    between atoms: C_5  and  C_6
REMARK    6  A    between atoms: C_9  and  C_11
REMARK    7  A    between atoms: C_16  and  C_18
REMARK    8  A    between atoms: C_18  and  S_19
REMARK    9  A    between atoms: S_19  and  C_20
REMARK   10  A    between atoms: C_23  and  C_26
REMARK   11  A    between atoms: N_24  and  N_25
REMARK                            x       y       z     vdW  Elec       q    Type
REMARK                         _______ _______ _______ _____ _____    ______ ____
ROOT
ATOM      1  N   UNL     1      -0.563  -2.822  -5.873  0.00  0.00    -0.292 N 
ATOM      2  C   UNL     1      -0.537  -1.750  -5.056  0.00  0.00    +0.226 C 
ATOM      3  O   UNL     1      -0.665  -0.635  -5.515  0.00  0.00    -0.275 OA
ENDROOT
BRANCH   1   4
ATOM      4  C   UNL     1      -0.409  -4.170  -5.318  0.00  0.00    +0.108 C 
BRANCH   4   6
ATOM      5  C   UNL     1      -1.624  -6.140  -4.378  0.00  0.00    +0.005 C 
ATOM      6  C   UNL     1      -1.785  -4.733  -4.957  0.00  0.00    +0.016 C 
ENDBRANCH   4   6
ENDBRANCH   1   4
BRANCH   1   7
ATOM      7  C   UNL     1      -0.744  -2.640  -7.315  0.00  0.00    +0.205 C 
BRANCH   7   8
ATOM      8  C   UNL     1       0.602  -2.485  -7.975  0.00  0.00    +0.235 A 
ATOM      9  N   UNL     1       1.343  -3.448  -8.445  0.00  0.00    -0.110 NA
ATOM     10  N   UNL     1       2.424  -2.957  -8.942  0.00  0.00    -0.107 NA
ATOM     11  C   UNL     1       2.413  -1.650  -8.796  0.00  0.00    +0.255 A 
ATOM     12  O   UNL     1       1.256  -1.328  -8.180  0.00  0.00    -0.418 OA
BRANCH  11  13
ATOM     13  C   UNL     1       3.464  -0.715  -9.225  0.00  0.00    +0.076 A 
ATOM     14  C   UNL     1       4.666  -0.983  -9.852  0.00  0.00    +0.021 A 
ATOM     15  C   UNL     1       5.493   0.072 -10.161  0.00  0.00    +0.008 A 
ATOM     16  C   UNL     1       5.111   1.334  -9.833  0.00  0.00    +0.046 A 
ATOM     17  S   UNL     1       3.523   1.062  -9.064  0.00  0.00    -0.092 S 
ENDBRANCH  11  13
ENDBRANCH   7   8
ENDBRANCH   1   7
BRANCH   2  18
ATOM     18  C   UNL     1      -0.351  -1.938  -3.572  0.00  0.00    +0.173 C 
BRANCH  18  19
ATOM     19  S   UNL     1      -0.361  -0.323  -2.755  0.00  0.00    -0.075 S 
BRANCH  19  20
ATOM     20  C   UNL     1      -0.131  -0.826  -1.082  0.00  0.00    +0.209 A 
ATOM     21  N   UNL     1       0.004  -2.061  -0.650  0.00  0.00    -0.121 NA
ATOM     22  N   UNL     1       0.148  -2.068   0.627  0.00  0.00    -0.127 NA
ATOM     23  C   UNL     1       0.119  -0.840   1.089  0.00  0.00    +0.183 A 
ATOM     24  N   UNL     1      -0.057  -0.006   0.008  0.00  0.00    -0.224 N 
BRANCH  23  25
ATOM     25  C   UNL     1       0.251  -0.429   2.503  0.00  0.00    +0.039 A 
ATOM     26  C   UNL     1      -0.637   0.498   3.049  0.00  0.00    +0.013 A 
ATOM     27  C   UNL     1      -0.509   0.877   4.369  0.00  0.00    +0.001 A 
ATOM     28  C   UNL     1       0.498   0.340   5.152  0.00  0.00    +0.001 A 
ATOM     29  C   UNL     1       1.383  -0.579   4.618  0.00  0.00    +0.021 A 
ATOM     30  C   UNL     1       1.262  -0.972   3.299  0.00  0.00    +0.052 A 
ATOM     31 CL   UNL     1       2.368  -2.131   2.631  0.00  0.00    -0.083 Cl
ENDBRANCH  23  25
BRANCH  24  32
ATOM     32  N   UNL     1      -0.145   1.357   0.023  0.00  0.00    -0.295 N 
ATOM     33  H   UNL     1       0.752   1.779  -0.162  0.00  0.00    +0.163 HD
ATOM     34  H   UNL     1      -0.840   1.681  -0.633  0.00  0.00    +0.163 HD
ENDBRANCH  24  32
ENDBRANCH  19  20
ENDBRANCH  18  19
ENDBRANCH   2  18
TORSDOF 10
