REMARK  Name = ZINC41093443
REMARK  9 active torsions:
REMARK  status: ('A' for Active; 'I' for Inactive)
REMARK    1  A    between atoms: C_1  and  C_2
REMARK    2  A    between atoms: C_2  and  C_3
REMARK    3  A    between atoms: C_3  and  C_5
REMARK    4  A    between atoms: C_3  and  N_6
REMARK    5  A    between atoms: C_7  and  C_9
REMARK    6  A    between atoms: C_9  and  O_10
REMARK    7  A    between atoms: O_10  and  C_11
REMARK    8  A    between atoms: C_11  and  C_13
REMARK    9  A    between atoms: C_17  and  N_19
REMARK                            x       y       z     vdW  Elec       q    Type
REMARK                         _______ _______ _______ _____ _____    ______ ____
ROOT
ATOM      1  C   UNL     1       0.215   0.775   7.166  0.00  0.00    +0.340 C 
ATOM      2  O   UNL     1      -0.976   0.996   7.256  0.00  0.00    -0.245 OA
ENDROOT
BRANCH   1   3
ATOM      3  C   UNL     1       1.076   0.869   8.362  0.00  0.00    +0.061 A 
ATOM      4  C   UNL     1       2.447   0.620   8.260  0.00  0.00    +0.016 A 
ATOM      5  C   UNL     1       3.249   0.709   9.379  0.00  0.00    +0.018 A 
ATOM      6  C   UNL     1       2.701   1.044  10.604  0.00  0.00    +0.039 A 
ATOM      7  C   UNL     1       1.337   1.293  10.716  0.00  0.00    +0.039 A 
ATOM      8  C   UNL     1       0.524   1.212   9.597  0.00  0.00    +0.038 A 
ATOM      9 BR   UNL     1       3.809   1.163  12.131  0.00  0.00    -0.048 Br
BRANCH   7  10
ATOM     10  N   UNL     1       0.788   1.631  11.956  0.00  0.00    -0.357 N 
ATOM     11  H   UNL     1       1.358   1.691  12.739  0.00  0.00    +0.142 HD
ATOM     12  H   UNL     1      -0.163   1.804  12.034  0.00  0.00    +0.142 HD
ENDBRANCH   7  10
ENDBRANCH   1   3
BRANCH   1  13
ATOM     13  O   UNL     1       0.750   0.443   5.975  0.00  0.00    -0.452 OA
BRANCH  13  14
ATOM     14  C   UNL     1      -0.142   0.370   4.861  0.00  0.00    +0.328 C 
BRANCH  14  16
ATOM     15  N   UNL     1      -0.008  -0.140   2.444  0.00  0.00    -0.310 N 
ATOM     16  C   UNL     1       0.630  -0.011   3.624  0.00  0.00    +0.251 C 
ATOM     17  O   UNL     1       1.826  -0.202   3.690  0.00  0.00    -0.272 OA
ATOM     18  H   UNL     1      -0.965   0.013   2.391  0.00  0.00    +0.149 HD
BRANCH  15  19
ATOM     19  C   UNL     1       0.742  -0.511   1.242  0.00  0.00    +0.070 C 
ATOM     20  C   UNL     1       0.872  -2.034   1.171  0.00  0.00    +0.028 C 
BRANCH  19  22
ATOM     21  C   UNL     1      -0.019   1.526   0.010  0.00  0.00    +0.005 C 
ATOM     22  C   UNL     1       0.002  -0.004   0.002  0.00  0.00    +0.018 C 
ENDBRANCH  19  22
ENDBRANCH  15  19
ENDBRANCH  14  16
ENDBRANCH  13  14
ENDBRANCH   1  13
TORSDOF 7
