REMARK  Name = ZINC02326771
REMARK  5 active torsions:
REMARK  status: ('A' for Active; 'I' for Inactive)
REMARK    1  A    between atoms: C_1  and  N_51
REMARK    2  A    between atoms: C_12  and  C_15
REMARK    3  A    between atoms: C_19  and  O_21
REMARK    4  A    between atoms: O_21  and  C_22
REMARK    5  A    between atoms: C_22  and  C_24
REMARK                            x       y       z     vdW  Elec       q    Type
REMARK                         _______ _______ _______ _____ _____    ______ ____
ROOT
ATOM      1  C   UNL     1      -3.799  11.323  -8.293  0.00  0.00    -0.096 C 
ATOM      2  C   UNL     1      -5.049  10.626  -6.340  0.00  0.00    -0.074 C 
ATOM      3  C   UNL     1      -4.902   9.939  -4.980  0.00  0.00    +0.018 C 
ATOM      4  C   UNL     1      -4.044  10.829  -4.087  0.00  0.00    -0.027 A 
ATOM      5  C   UNL     1      -3.278  11.800  -4.637  0.00  0.00    -0.021 A 
ATOM      6  S   UNL     1      -2.472  12.578  -3.264  0.00  0.00    -0.080 S 
ATOM      7  C   UNL     1      -3.137  11.638  -1.996  0.00  0.00    +0.080 A 
ATOM      8  C   UNL     1      -3.979  10.719  -2.641  0.00  0.00    +0.068 A 
ATOM      9  C   UNL     1      -4.703   9.743  -1.793  0.00  0.00    +0.248 C 
ATOM     10  O   UNL     1      -5.534   8.989  -2.264  0.00  0.00    -0.270 OA
ATOM     11  N   UNL     1      -4.403   9.725  -0.478  0.00  0.00    -0.289 N 
ATOM     12  C   UNL     1      -3.259  10.426   0.098  0.00  0.00    +0.190 C 
ATOM     13  N   UNL     1      -2.971  11.672  -0.635  0.00  0.00    -0.316 N 
ATOM     14  C   UNL     1      -3.159  12.122  -6.093  0.00  0.00    -0.036 C 
ATOM     15  H   UNL     1      -4.978   9.219   0.117  0.00  0.00    +0.151 HD
ATOM     16  H   UNL     1      -2.678  12.475  -0.178  0.00  0.00    +0.149 HD
ATOM     17  N   UNL     1      -3.711  10.977  -6.858  0.00  0.00    +0.381 N 
ATOM     18  H   UNL     1      -3.087  10.169  -6.748  0.00  0.00    -0.082 HD
ENDROOT
BRANCH  12  19
ATOM     19  C   UNL     1      -2.050   9.528   0.039  0.00  0.00    -0.006 A 
ATOM     20  C   UNL     1      -0.784  10.078  -0.044  0.00  0.00    +0.007 A 
ATOM     21  C   UNL     1       0.327   9.257  -0.097  0.00  0.00    +0.004 A 
ATOM     22  C   UNL     1       0.175   7.885  -0.062  0.00  0.00    +0.046 A 
ATOM     23  C   UNL     1      -1.094   7.330   0.015  0.00  0.00    +0.132 A 
ATOM     24  C   UNL     1      -2.208   8.156   0.069  0.00  0.00    +0.053 A 
BRANCH  23  25
ATOM     25  O   UNL     1      -1.246   5.980   0.045  0.00  0.00    -0.422 OA
BRANCH  25  26
ATOM     26  C   UNL     1      -1.650   5.385  -1.095  0.00  0.00    +0.344 C 
ATOM     27  O   UNL     1      -1.947   6.060  -2.060  0.00  0.00    -0.245 OA
BRANCH  26  28
ATOM     28  C   UNL     1      -1.732   3.912  -1.170  0.00  0.00    +0.059 A 
ATOM     29  C   UNL     1      -2.151   3.292  -2.349  0.00  0.00    +0.015 A 
ATOM     30  C   UNL     1      -2.226   1.916  -2.412  0.00  0.00    +0.001 A 
ATOM     31  C   UNL     1      -1.888   1.150  -1.310  0.00  0.00    +0.000 A 
ATOM     32  C   UNL     1      -1.478   1.758  -0.137  0.00  0.00    +0.001 A 
ATOM     33  C   UNL     1      -1.393   3.133  -0.062  0.00  0.00    +0.015 A 
ENDBRANCH  26  28
ENDBRANCH  25  26
ENDBRANCH  23  25
ENDBRANCH  12  19
TORSDOF 4
