REMARK  Name = ZINC38701696
REMARK  10 active torsions:
REMARK  status: ('A' for Active; 'I' for Inactive)
REMARK    1  A    between atoms: C_1  and  C_2
REMARK    2  A    between atoms: C_2  and  C_3
REMARK    3  A    between atoms: C_3  and  C_4
REMARK    4  A    between atoms: C_4  and  C_5
REMARK    5  A    between atoms: C_5  and  O_6
REMARK    6  A    between atoms: O_6  and  C_7
REMARK    7  A    between atoms: C_10  and  C_13
REMARK    8  A    between atoms: C_16  and  C_32
REMARK    9  A    between atoms: N_23  and  C_24
REMARK   10  A    between atoms: C_37  and  O_38
REMARK                            x       y       z     vdW  Elec       q    Type
REMARK                         _______ _______ _______ _____ _____    ______ ____
ROOT
ATOM      1  C   UNL     1      -7.331  -6.704  -0.129  0.00  0.00    +0.142 C 
ATOM      2  C   UNL     1      -7.990  -7.071  -1.431  0.00  0.00    +0.035 A 
ATOM      3  C   UNL     1      -8.490  -6.636  -2.663  0.00  0.00    +0.102 A 
ATOM      4  N   UNL     1      -8.950  -7.697  -3.297  0.00  0.00    -0.173 NA
ATOM      5  N   UNL     1      -8.789  -8.757  -2.588  0.00  0.00    -0.272 N 
ATOM      6  H   UNL     1      -9.053  -9.651  -2.856  0.00  0.00    +0.189 HD
ATOM      7  C   UNL     1      -8.191  -8.437  -1.403  0.00  0.00    +0.126 A 
ATOM      8  C   UNL     1      -7.685  -8.958  -0.128  0.00  0.00    +0.266 C 
ATOM      9  O   UNL     1      -7.714 -10.127   0.206  0.00  0.00    -0.268 OA
ATOM     10  N   UNL     1      -7.183  -7.957   0.621  0.00  0.00    -0.280 N 
ENDROOT
BRANCH  10  11
ATOM     11  C   UNL     1      -6.590  -8.095   1.954  0.00  0.00    +0.100 C 
ATOM     12  C   UNL     1      -5.395  -9.061   1.893  0.00  0.00    +0.047 C 
ATOM     13  C   UNL     1      -4.967  -9.462   3.326  0.00  0.00    +0.168 C 
ATOM     14  S   UNL     1      -6.536  -9.313   4.273  0.00  0.00    -0.029 S 
ATOM     15  O   UNL     1      -6.386  -8.303   5.261  0.00  0.00    -0.174 OA
ATOM     16  O   UNL     1      -6.968 -10.610   4.659  0.00  0.00    -0.174 OA
ATOM     17  C   UNL     1      -7.640  -8.685   2.938  0.00  0.00    +0.188 C 
ENDBRANCH  10  11
BRANCH   1  21
ATOM     18  C   UNL     1      -3.497  -4.964  -0.860  0.00  0.00    +0.121 A 
ATOM     19  C   UNL     1      -3.712  -6.309  -1.126  0.00  0.00    +0.046 A 
ATOM     20  C   UNL     1      -4.952  -6.869  -0.888  0.00  0.00    +0.009 A 
ATOM     21  C   UNL     1      -5.979  -6.090  -0.387  0.00  0.00    -0.022 A 
ATOM     22  C   UNL     1      -5.768  -4.750  -0.122  0.00  0.00    +0.009 A 
ATOM     23  C   UNL     1      -4.527  -4.186  -0.352  0.00  0.00    +0.046 A 
BRANCH  18  24
ATOM     24  O   UNL     1      -2.278  -4.411  -1.093  0.00  0.00    -0.492 OA
BRANCH  24  25
ATOM     25  C   UNL     1      -1.264  -5.271  -1.617  0.00  0.00    +0.229 C 
BRANCH  25  26
ATOM     26  C   UNL     1       0.029  -4.477  -1.811  0.00  0.00    +0.041 C 
BRANCH  26  27
ATOM     27  C   UNL     1       1.114  -5.398  -2.372  0.00  0.00    +0.003 C 
BRANCH  27  29
ATOM     28  C   UNL     1       3.492  -5.525  -3.127  0.00  0.00    +0.004 C 
ATOM     29  C   UNL     1       2.407  -4.604  -2.566  0.00  0.00    -0.003 C 
ENDBRANCH  27  29
ENDBRANCH  26  27
ENDBRANCH  25  26
ENDBRANCH  24  25
ENDBRANCH  18  24
ENDBRANCH   1  21
BRANCH   3  30
ATOM     30  C   UNL     1      -8.502  -5.239  -3.163  0.00  0.00    +0.044 A 
ATOM     31  C   UNL     1      -8.095  -4.197  -2.335  0.00  0.00    +0.014 A 
ATOM     32  C   UNL     1      -8.108  -2.899  -2.805  0.00  0.00    +0.001 A 
ATOM     33  C   UNL     1      -8.524  -2.630  -4.097  0.00  0.00    +0.004 A 
ATOM     34  C   UNL     1      -8.931  -3.657  -4.926  0.00  0.00    +0.046 A 
ATOM     35  C   UNL     1      -8.917  -4.965  -4.469  0.00  0.00    +0.126 A 
BRANCH  35  36
ATOM     36  O   UNL     1      -9.310  -5.977  -5.286  0.00  0.00    -0.506 OA
ATOM     37  H   UNL     1     -10.256  -6.176  -5.239  0.00  0.00    +0.292 HD
ENDBRANCH  35  36
ENDBRANCH   3  30
TORSDOF 9
