REMARK  Name = ZINC40822992
REMARK  6 active torsions:
REMARK  status: ('A' for Active; 'I' for Inactive)
REMARK    1  A    between atoms: C_1  and  C_2
REMARK    2  A    between atoms: C_7  and  N_8
REMARK    3  A    between atoms: C_9  and  C_11
REMARK    4  A    between atoms: C_12  and  C_31
REMARK    5  A    between atoms: N_20  and  N_21
REMARK    6  A    between atoms: C_22  and  C_24
REMARK                            x       y       z     vdW  Elec       q    Type
REMARK                         _______ _______ _______ _____ _____    ______ ____
ROOT
ATOM      1  C   UNL     1      -0.165   0.033   4.847  0.00  0.00    +0.193 A 
ATOM      2  C   UNL     1      -0.248  -0.535   6.088  0.00  0.00    +0.009 A 
ATOM      3  C   UNL     1      -0.336   0.526   6.998  0.00  0.00    +0.042 A 
ATOM      4  C   UNL     1      -0.303   1.695   6.275  0.00  0.00    +0.115 A 
ATOM      5  O   UNL     1      -0.193   1.378   4.987  0.00  0.00    -0.454 OA
ATOM      6  C   UNL     1      -0.381   3.058   6.914  0.00  0.00    +0.075 C 
ATOM      7  C   UNL     1      -0.998   2.930   8.310  0.00  0.00    +0.014 C 
ATOM      8  C   UNL     1      -0.249   1.880   9.137  0.00  0.00    +0.058 C 
ATOM      9  C   UNL     1      -0.443   0.524   8.474  0.00  0.00    +0.070 C 
ATOM     10  N   UNL     1      -0.686  -0.555   9.153  0.00  0.00    -0.184 NA
ATOM     11  C   UNL     1      -0.248  -2.006   6.411  0.00  0.00    +0.048 C 
ENDROOT
BRANCH   1  13
ATOM     12  N   UNL     1       0.025  -0.015   2.416  0.00  0.00    -0.279 N 
ATOM     13  C   UNL     1      -0.056  -0.694   3.578  0.00  0.00    +0.284 C 
ATOM     14  O   UNL     1      -0.040  -1.911   3.573  0.00  0.00    -0.266 OA
ATOM     15  H   UNL     1       0.078   0.954   2.424  0.00  0.00    +0.155 HD
BRANCH  12  22
ATOM     16  C   UNL     1      -1.266   1.183   0.182  0.00  0.00    +0.045 C 
ATOM     17  C   UNL     1      -0.585  -0.158   0.085  0.00  0.00    -0.029 A 
ATOM     18  C   UNL     1      -0.571  -0.840  -1.116  0.00  0.00    +0.006 A 
ATOM     19  C   UNL     1       0.054  -2.070  -1.207  0.00  0.00    +0.020 A 
ATOM     20  C   UNL     1       0.667  -2.622  -0.095  0.00  0.00    +0.043 A 
ATOM     21  C   UNL     1       0.655  -1.944   1.109  0.00  0.00    +0.043 A 
ATOM     22  C   UNL     1       0.033  -0.706   1.201  0.00  0.00    +0.038 A 
ATOM     23 CL   UNL     1       1.450  -4.167  -0.214  0.00  0.00    -0.083 Cl
ENDBRANCH  12  22
ENDBRANCH   1  13
BRANCH  10  24
ATOM     24  N   UNL     1      -0.777  -0.498  10.550  0.00  0.00    -0.203 N 
ATOM     25  C   UNL     1      -1.029  -1.619  11.255  0.00  0.00    +0.265 C 
ATOM     26  O   UNL     1      -1.177  -2.679  10.679  0.00  0.00    -0.268 OA
ATOM     27  H   UNL     1      -0.659   0.348  11.009  0.00  0.00    +0.178 HD
BRANCH  25  28
ATOM     28  C   UNL     1      -1.125  -1.558  12.729  0.00  0.00    +0.057 A 
ATOM     29  C   UNL     1      -1.381  -2.716  13.473  0.00  0.00    +0.031 A 
ATOM     30  C   UNL     1      -1.461  -2.606  14.851  0.00  0.00    +0.037 A 
ATOM     31  C   UNL     1      -1.289  -1.366  15.442  0.00  0.00    +0.126 A 
ATOM     32  N   UNL     1      -1.050  -0.292  14.714  0.00  0.00    -0.261 NA
ATOM     33  C   UNL     1      -0.958  -0.347  13.402  0.00  0.00    +0.123 A 
ATOM     34 BR   UNL     1      -1.805  -4.132  15.914  0.00  0.00    -0.049 Br
ENDBRANCH  25  28
ENDBRANCH  10  24
TORSDOF 4
