REMARK  Name = ZINC12030579
REMARK  9 active torsions:
REMARK  status: ('A' for Active; 'I' for Inactive)
REMARK    1  A    between atoms: C_1  and  C_2
REMARK    2  A    between atoms: C_2  and  C_3
REMARK    3  A    between atoms: C_2  and  C_11
REMARK    4  A    between atoms: C_2  and  O_35
REMARK    5  A    between atoms: C_3  and  O_4
REMARK    6  A    between atoms: O_4  and  C_5
REMARK    7  A    between atoms: C_21  and  C_22
REMARK    8  A    between atoms: C_21  and  N_63
REMARK    9  A    between atoms: C_27  and  C_28
REMARK                            x       y       z     vdW  Elec       q    Type
REMARK                         _______ _______ _______ _____ _____    ______ ____
ROOT
ATOM      1  C   UNL     1       1.177   1.781   0.000  0.00  0.00    -0.013 A 
ATOM      2  C   UNL     1      -0.013   1.076   0.008  0.00  0.00    +0.010 A 
ATOM      3  C   UNL     1      -1.220   1.748   0.017  0.00  0.00    +0.046 A 
ATOM      4  C   UNL     1      -1.234   3.136   0.033  0.00  0.00    +0.122 A 
ATOM      5  C   UNL     1      -0.042   3.836   0.010  0.00  0.00    -0.022 A 
ATOM      6  C   UNL     1       1.163   3.165  -0.003  0.00  0.00    +0.012 A 
ATOM      7  C   UNL     1      -0.072   5.352  -0.022  0.00  0.00    -0.039 C 
ATOM      8  C   UNL     1      -2.046   5.869   1.307  0.00  0.00    -0.036 C 
ATOM      9  C   UNL     1      -2.679   4.493   1.315  0.00  0.00    +0.210 C 
ATOM     10  O   UNL     1      -2.416   3.807   0.085  0.00  0.00    -0.494 OA
ATOM     11  N   UNL     1      -0.569   5.823   1.293  0.00  0.00    +0.387 N 
ATOM     12  H   UNL     1      -0.252   5.170   2.019  0.00  0.00    -0.081 HD
ENDROOT
BRANCH   1  14
ATOM     13  C   UNL     1       2.927   0.788  -1.449  0.00  0.00    +0.050 C 
ATOM     14  C   UNL     1       2.490   1.042  -0.005  0.00  0.00    +0.122 C 
BRANCH  14  15
ATOM     15  O   UNL     1       3.481   1.826   0.662  0.00  0.00    -0.381 OA
ATOM     16  H   UNL     1       3.270   2.026   1.584  0.00  0.00    +0.211 HD
ENDBRANCH  14  15
BRANCH  14  17
ATOM     17  C   UNL     1       2.325  -0.296   0.720  0.00  0.00    +0.268 C 
BRANCH  17  18
ATOM     18  O   UNL     1       3.571  -0.997   0.715  0.00  0.00    -0.489 OA
BRANCH  18  19
ATOM     19  C   UNL     1       3.597  -2.212   1.323  0.00  0.00    +0.121 A 
ATOM     20  C   UNL     1       2.449  -2.717   1.917  0.00  0.00    +0.045 A 
ATOM     21  C   UNL     1       2.477  -3.955   2.529  0.00  0.00    +0.004 A 
ATOM     22  C   UNL     1       3.650  -4.686   2.560  0.00  0.00    +0.000 A 
ATOM     23  C   UNL     1       4.797  -4.182   1.974  0.00  0.00    +0.004 A 
ATOM     24  C   UNL     1       4.773  -2.947   1.355  0.00  0.00    +0.045 A 
ENDBRANCH  18  19
ENDBRANCH  17  18
ENDBRANCH  14  17
ENDBRANCH   1  14
BRANCH  11  25
ATOM     25  C   UNL     1      -0.026   7.160   1.585  0.00  0.00    -0.039 C 
BRANCH  25  26
ATOM     26  C   UNL     1      -0.753   7.737   2.772  0.00  0.00    -0.019 A 
ATOM     27  C   UNL     1      -1.733   8.666   2.729  0.00  0.00    +0.107 A 
ATOM     28  N   UNL     1      -2.126   8.916   3.997  0.00  0.00    -0.284 N 
ATOM     29  H   UNL     1      -2.842   9.557   4.274  0.00  0.00    +0.188 HD
ATOM     30  N   UNL     1      -1.356   8.122   4.857  0.00  0.00    -0.174 NA
ATOM     31  C   UNL     1      -0.527   7.410   4.123  0.00  0.00    +0.094 A 
BRANCH  31  32
ATOM     32  C   UNL     1       0.469   6.434   4.630  0.00  0.00    +0.002 A 
ATOM     33  C   UNL     1       0.749   5.279   3.902  0.00  0.00    +0.013 A 
ATOM     34  C   UNL     1       1.681   4.377   4.375  0.00  0.00    +0.039 A 
ATOM     35  C   UNL     1       2.329   4.612   5.577  0.00  0.00    +0.123 A 
ATOM     36  C   UNL     1       2.049   5.756   6.306  0.00  0.00    +0.039 A 
ATOM     37  C   UNL     1       1.123   6.666   5.839  0.00  0.00    +0.013 A 
ATOM     38  F   UNL     1       3.236   3.724   6.038  0.00  0.00    -0.205 F 
ENDBRANCH  31  32
ENDBRANCH  25  26
ENDBRANCH  11  25
TORSDOF 8
