REMARK  Name = ZINC05126472
REMARK  8 active torsions:
REMARK  status: ('A' for Active; 'I' for Inactive)
REMARK    1  A    between atoms: C_1  and  C_2
REMARK    2  A    between atoms: C_2  and  C_3
REMARK    3  A    between atoms: C_3  and  O_4
REMARK    4  A    between atoms: O_4  and  C_5
REMARK    5  A    between atoms: C_10  and  C_11
REMARK    6  A    between atoms: C_14  and  C_25
REMARK    7  A    between atoms: C_20  and  N_24
REMARK    8  A    between atoms: C_21  and  C_22
REMARK                            x       y       z     vdW  Elec       q    Type
REMARK                         _______ _______ _______ _____ _____    ______ ____
ROOT
ATOM      1  C   UNL     1      -1.291  -4.800  -0.123  0.00  0.00    +0.105 C 
ATOM      2  C   UNL     1      -1.281  -5.747  -1.295  0.00  0.00    +0.054 A 
ATOM      3  C   UNL     1      -1.069  -5.476  -2.650  0.00  0.00    +0.100 A 
ATOM      4  N   UNL     1      -1.154  -6.615  -3.310  0.00  0.00    -0.171 NA
ATOM      5  N   UNL     1      -1.422  -7.640  -2.389  0.00  0.00    -0.246 N 
ATOM      6  H   UNL     1      -1.535  -8.580  -2.600  0.00  0.00    +0.192 HD
ATOM      7  C   UNL     1      -1.495  -7.088  -1.161  0.00  0.00    +0.223 A 
ATOM      8  O   UNL     1      -1.731  -7.676   0.039  0.00  0.00    -0.423 OA
ATOM      9  C   UNL     1      -1.482  -6.952   1.149  0.00  0.00    +0.200 C 
ATOM     10  C   UNL     1      -1.266  -5.617   1.145  0.00  0.00    +0.098 C 
ENDROOT
BRANCH   3  11
ATOM     11  C   UNL     1      -0.798  -4.142  -3.241  0.00  0.00    +0.006 A 
ATOM     12  C   UNL     1       0.079  -3.263  -2.608  0.00  0.00    +0.014 A 
ATOM     13  C   UNL     1       0.331  -2.023  -3.159  0.00  0.00    +0.050 A 
ATOM     14  C   UNL     1      -0.285  -1.648  -4.343  0.00  0.00    +0.166 A 
ATOM     15  C   UNL     1      -1.163  -2.523  -4.980  0.00  0.00    +0.167 A 
ATOM     16  C   UNL     1      -1.415  -3.769  -4.434  0.00  0.00    +0.059 A 
ATOM     17  O   UNL     1      -1.631  -1.923  -6.114  0.00  0.00    -0.453 OA
ATOM     18  C   UNL     1      -1.351  -0.520  -5.950  0.00  0.00    +0.466 C 
ATOM     19  O   UNL     1      -0.205  -0.500  -5.078  0.00  0.00    -0.453 OA
ENDBRANCH   3  11
BRANCH   1  25
ATOM     20  C   UNL     1      -2.448  -2.575  -0.089  0.00  0.00    +0.125 A 
ATOM     21  C   UNL     1      -3.599  -1.802  -0.129  0.00  0.00    +0.046 A 
ATOM     22  C   UNL     1      -4.835  -2.411  -0.234  0.00  0.00    +0.004 A 
ATOM     23  C   UNL     1      -4.925  -3.789  -0.299  0.00  0.00    +0.001 A 
ATOM     24  C   UNL     1      -3.779  -4.562  -0.259  0.00  0.00    +0.008 A 
ATOM     25  C   UNL     1      -2.540  -3.957  -0.160  0.00  0.00    +0.007 A 
BRANCH  20  26
ATOM     26  O   UNL     1      -1.231  -1.979   0.014  0.00  0.00    -0.492 OA
BRANCH  26  27
ATOM     27  C   UNL     1      -1.216  -0.561   0.192  0.00  0.00    +0.229 C 
BRANCH  27  29
ATOM     28  C   UNL     1       0.241   1.468   0.254  0.00  0.00    +0.007 C 
ATOM     29  C   UNL     1       0.230  -0.061   0.187  0.00  0.00    +0.038 C 
ENDBRANCH  27  29
ENDBRANCH  26  27
ENDBRANCH  20  26
ENDBRANCH   1  25
BRANCH   9  30
ATOM     30  N   UNL     1      -1.444  -7.608   2.354  0.00  0.00    -0.328 N 
ATOM     31  H   UNL     1      -1.594  -8.566   2.389  0.00  0.00    +0.145 HD
ATOM     32  H   UNL     1      -1.266  -7.115   3.170  0.00  0.00    +0.145 HD
ENDBRANCH   9  30
BRANCH  10  33
ATOM     33  C   UNL     1      -1.004  -4.955   2.387  0.00  0.00    +0.101 C 
ATOM     34  N   UNL     1      -0.797  -4.429   3.373  0.00  0.00    -0.191 NA
ENDBRANCH  10  33
TORSDOF 7
