REMARK  Name = ZINC21977085
REMARK  6 active torsions:
REMARK  status: ('A' for Active; 'I' for Inactive)
REMARK    1  A    between atoms: C_9  and  N_31
REMARK    2  A    between atoms: C_11  and  C_13
REMARK    3  A    between atoms: C_13  and  O_14
REMARK    4  A    between atoms: O_14  and  C_15
REMARK    5  A    between atoms: C_15  and  C_17
REMARK    6  A    between atoms: C_17  and  N_18
REMARK                            x       y       z     vdW  Elec       q    Type
REMARK                         _______ _______ _______ _____ _____    ______ ____
ROOT
ATOM      1  C   UNL     1      -1.871  -0.078  -1.421  0.00  0.00    +0.001 C 
ATOM      2  C   UNL     1      -0.886   1.051  -1.122  0.00  0.00    +0.005 C 
ATOM      3  C   UNL     1      -0.063   0.725   0.118  0.00  0.00    +0.037 C 
ATOM      4  C   UNL     1      -0.770   1.248   1.365  0.00  0.00    -0.025 A 
ATOM      5  C   UNL     1      -2.104   1.412   1.423  0.00  0.00    -0.004 A 
ATOM      6  S   UNL     1      -2.433   2.001   3.064  0.00  0.00    -0.073 S 
ATOM      7  C   UNL     1      -0.768   2.046   3.671  0.00  0.00    +0.114 A 
ATOM      8  C   UNL     1      -0.010   1.595   2.575  0.00  0.00    +0.051 A 
ATOM      9  C   UNL     1       1.396   1.534   2.786  0.00  0.00    +0.128 A 
ATOM     10  N   UNL     1       1.885   1.891   3.963  0.00  0.00    -0.214 NA
ATOM     11  C   UNL     1       1.111   2.303   4.951  0.00  0.00    +0.170 A 
ATOM     12  N   UNL     1      -0.199   2.381   4.813  0.00  0.00    -0.221 NA
ATOM     13  C   UNL     1      -3.106   1.157   0.339  0.00  0.00    +0.043 C 
ATOM     14  C   UNL     1      -2.857  -0.230  -0.267  0.00  0.00    +0.005 C 
ENDROOT
BRANCH   9  15
ATOM     15  N   UNL     1       2.239   1.108   1.776  0.00  0.00    -0.343 N 
ATOM     16  H   UNL     1       3.325   1.065   1.948  0.00  0.00    +0.144 HD
ATOM     17  H   UNL     1       1.824   0.814   0.800  0.00  0.00    +0.144 HD
ENDBRANCH   9  15
BRANCH  11  18
ATOM     18  C   UNL     1       1.738   2.692   6.265  0.00  0.00    +0.308 C 
BRANCH  18  19
ATOM     19  O   UNL     1       1.815   1.527   7.128  0.00  0.00    -0.456 OA
BRANCH  19  20
ATOM     20  C   UNL     1       2.353   1.704   8.345  0.00  0.00    +0.326 C 
ATOM     21  O   UNL     1       2.746   2.797   8.678  0.00  0.00    -0.249 OA
BRANCH  20  22
ATOM     22  C   UNL     1       2.467   0.541   9.296  0.00  0.00    +0.236 C 
BRANCH  22  23
ATOM     23  N   UNL     1       3.082   0.991  10.547  0.00  0.00    -0.231 N 
ATOM     24  C   UNL     1       4.406   0.969  10.755  0.00  0.00    +0.226 C 
ATOM     25  O   UNL     1       5.234   0.536   9.982  0.00  0.00    -0.275 OA
ATOM     26  C   UNL     1       4.700   1.582  12.120  0.00  0.00    +0.087 C 
ATOM     27  C   UNL     1       5.499   2.852  11.908  0.00  0.00    +0.013 C 
ATOM     28  C   UNL     1       5.236   3.902  12.979  0.00  0.00    +0.001 C 
ATOM     29  C   UNL     1       3.737   4.228  12.966  0.00  0.00    +0.001 C 
ATOM     30  C   UNL     1       2.992   2.999  13.471  0.00  0.00    +0.013 C 
ATOM     31  C   UNL     1       3.320   1.753  12.714  0.00  0.00    +0.087 C 
ATOM     32  C   UNL     1       2.367   1.455  11.585  0.00  0.00    +0.226 C 
ATOM     33  O   UNL     1       1.165   1.608  11.609  0.00  0.00    -0.275 OA
ENDBRANCH  22  23
ENDBRANCH  20  22
ENDBRANCH  19  20
ENDBRANCH  18  19
ENDBRANCH  11  18
TORSDOF 6
