REMARK  Name = ZINC14550015
REMARK  6 active torsions:
REMARK  status: ('A' for Active; 'I' for Inactive)
REMARK    1  A    between atoms: C_1  and  C_2
REMARK    2  A    between atoms: C_2  and  C_3
REMARK    3  A    between atoms: C_3  and  C_5
REMARK    4  A    between atoms: C_3  and  N_6
REMARK    5  A    between atoms: C_7  and  C_9
REMARK    6  A    between atoms: C_22  and  C_25
REMARK                            x       y       z     vdW  Elec       q    Type
REMARK                         _______ _______ _______ _____ _____    ______ ____
ROOT
ATOM      1  C   UNL     1       0.775   2.668   0.237  0.00  0.00    +0.037 A 
ATOM      2  C   UNL     1       1.883   1.818   0.172  0.00  0.00    +0.015 A 
ATOM      3  C   UNL     1       3.150   2.346   0.094  0.00  0.00    +0.024 A 
ATOM      4  C   UNL     1       3.343   3.726   0.092  0.00  0.00    +0.031 A 
ATOM      5  C   UNL     1       2.230   4.577   0.151  0.00  0.00    -0.019 A 
ATOM      6  C   UNL     1       0.963   4.053   0.229  0.00  0.00    +0.019 A 
ATOM      7  C   UNL     1       2.482   6.034   0.104  0.00  0.00    +0.049 C 
ATOM      8  C   UNL     1       1.540   7.013   0.703  0.00  0.00    -0.023 C 
ATOM      9  C   UNL     1       2.233   8.062   1.130  0.00  0.00    -0.030 C 
ATOM     10  C   UNL     1       3.725   7.842   0.874  0.00  0.00    +0.033 C 
ATOM     11  C   UNL     1       3.814   6.311   0.864  0.00  0.00    +0.029 C 
ATOM     12  C   UNL     1       4.903   5.684   0.013  0.00  0.00    +0.105 C 
ATOM     13  N   UNL     1       4.643   4.228   0.039  0.00  0.00    -0.336 N 
ATOM     14  H   UNL     1       5.391   3.611   0.020  0.00  0.00    +0.147 HD
ENDROOT
BRANCH  12  15
ATOM     15  C   UNL     1       4.821   6.202  -1.400  0.00  0.00    -0.027 A 
ATOM     16  C   UNL     1       4.051   5.537  -2.336  0.00  0.00    +0.008 A 
ATOM     17  C   UNL     1       3.970   6.014  -3.630  0.00  0.00    +0.038 A 
ATOM     18  C   UNL     1       4.672   7.151  -3.993  0.00  0.00    +0.123 A 
ATOM     19  C   UNL     1       5.448   7.813  -3.057  0.00  0.00    +0.038 A 
ATOM     20  C   UNL     1       5.522   7.337  -1.761  0.00  0.00    +0.008 A 
ATOM     21  F   UNL     1       4.599   7.614  -5.260  0.00  0.00    -0.205 F 
ENDBRANCH  12  15
BRANCH   1  23
ATOM     22  N   UNL     1      -0.764   0.769   0.330  0.00  0.00    -0.309 N 
ATOM     23  C   UNL     1      -0.586   2.105   0.321  0.00  0.00    +0.244 C 
ATOM     24  O   UNL     1      -1.548   2.847   0.378  0.00  0.00    -0.270 OA
ATOM     25  H   UNL     1       0.003   0.177   0.280  0.00  0.00    +0.149 HD
BRANCH  22  26
ATOM     26  C   UNL     1      -2.116   0.210   0.413  0.00  0.00    +0.070 C 
ATOM     27  C   UNL     1      -2.545   0.129   1.879  0.00  0.00    +0.028 C 
BRANCH  26  29
ATOM     28  C   UNL     1      -1.820  -1.096  -1.696  0.00  0.00    +0.005 C 
ATOM     29  C   UNL     1      -2.127  -1.191  -0.200  0.00  0.00    +0.018 C 
ENDBRANCH  26  29
ENDBRANCH  22  26
ENDBRANCH   1  23
TORSDOF 4
