REMARK  Name = ZINC08789585
REMARK  11 active torsions:
REMARK  status: ('A' for Active; 'I' for Inactive)
REMARK    1  A    between atoms: C_1  and  C_2
REMARK    2  A    between atoms: C_2  and  C_3
REMARK    3  A    between atoms: C_2  and  C_4
REMARK    4  A    between atoms: C_4  and  C_5
REMARK    5  A    between atoms: C_5  and  C_7
REMARK    6  A    between atoms: C_5  and  N_19
REMARK    7  A    between atoms: N_9  and  C_10
REMARK    8  A    between atoms: C_10  and  C_11
REMARK    9  A    between atoms: C_16  and  O_17
REMARK   10  A    between atoms: O_17  and  C_18
REMARK   11  A    between atoms: C_22  and  C_38
REMARK                            x       y       z     vdW  Elec       q    Type
REMARK                         _______ _______ _______ _____ _____    ______ ____
ROOT
ATOM      1  N   UNL     1       5.464   6.302   2.988  0.00  0.00    -0.212 N 
ATOM      2  C   UNL     1       6.560   5.950   3.694  0.00  0.00    +0.253 C 
ATOM      3  O   UNL     1       6.665   5.028   4.475  0.00  0.00    -0.272 OA
ATOM      4  C   UNL     1       7.628   6.945   3.307  0.00  0.00    +0.153 C 
ATOM      5  C   UNL     1       8.174   7.672   4.513  0.00  0.00    +0.053 A 
ATOM      6  C   UNL     1       8.160   9.031   4.609  0.00  0.00    -0.015 A 
ATOM      7  C   UNL     1       8.769   9.353   5.888  0.00  0.00    +0.003 A 
ATOM      8  C   UNL     1       9.042  10.569   6.522  0.00  0.00    +0.010 A 
ATOM      9  C   UNL     1       9.637  10.503   7.758  0.00  0.00    +0.001 A 
ATOM     10  C   UNL     1       9.957   9.295   8.358  0.00  0.00    +0.002 A 
ATOM     11  C   UNL     1       9.699   8.078   7.751  0.00  0.00    +0.026 A 
ATOM     12  C   UNL     1       9.096   8.114   6.496  0.00  0.00    +0.047 A 
ATOM     13  N   UNL     1       8.711   7.127   5.635  0.00  0.00    -0.356 N 
ATOM     14  H   UNL     1       8.812   6.176   5.797  0.00  0.00    +0.166 HD
ATOM     15  C   UNL     1       7.624  10.001   3.588  0.00  0.00    +0.056 C 
ATOM     16  C   UNL     1       7.396   9.290   2.245  0.00  0.00    +0.115 C 
ATOM     17  N   UNL     1       6.867   7.955   2.533  0.00  0.00    -0.266 N 
ATOM     18  C   UNL     1       5.674   7.420   2.273  0.00  0.00    +0.313 C 
ATOM     19  O   UNL     1       4.872   7.887   1.488  0.00  0.00    -0.252 OA
ATOM     20  C   UNL     1       8.739   6.299   2.477  0.00  0.00    +0.048 C 
ENDROOT
BRANCH   1  21
ATOM     21  C   UNL     1       4.204   5.554   2.995  0.00  0.00    +0.171 C 
BRANCH  21  22
ATOM     22  C   UNL     1       3.885   5.093   1.596  0.00  0.00    +0.234 C 
ATOM     23  O   UNL     1       4.636   5.363   0.683  0.00  0.00    -0.274 OA
ATOM     24  N   UNL     1       2.765   4.381   1.360  0.00  0.00    -0.310 N 
ATOM     25  H   UNL     1       2.165   4.166   2.091  0.00  0.00    +0.149 HD
BRANCH  24  26
ATOM     26  C   UNL     1       2.456   3.933   0.000  0.00  0.00    +0.143 C 
BRANCH  26  27
ATOM     27  C   UNL     1       1.160   3.164   0.008  0.00  0.00    +0.011 A 
ATOM     28  C   UNL     1       1.176   1.782   0.000  0.00  0.00    +0.009 A 
ATOM     29  C   UNL     1      -0.013   1.076   0.008  0.00  0.00    +0.001 A 
ATOM     30  C   UNL     1      -1.220   1.750   0.017  0.00  0.00    +0.004 A 
ATOM     31  C   UNL     1      -1.242   3.131   0.031  0.00  0.00    +0.046 A 
ATOM     32  C   UNL     1      -0.050   3.842   0.023  0.00  0.00    +0.125 A 
BRANCH  32  33
ATOM     33  O   UNL     1      -0.069   5.201   0.031  0.00  0.00    -0.495 OA
ATOM     34  C   UNL     1      -1.350   5.832   0.047  0.00  0.00    +0.277 C 
ENDBRANCH  32  33
ENDBRANCH  26  27
ENDBRANCH  24  26
ENDBRANCH  21  22
BRANCH  21  35
ATOM     35  C   UNL     1       3.078   6.457   3.504  0.00  0.00    +0.035 C 
BRANCH  35  37
ATOM     36  C   UNL     1       2.283   7.825   5.437  0.00  0.00    +0.007 C 
ATOM     37  C   UNL     1       3.340   6.824   4.966  0.00  0.00    -0.015 C 
ATOM     38  C   UNL     1       3.268   5.562   5.829  0.00  0.00    +0.007 C 
ENDBRANCH  35  37
ENDBRANCH  21  35
ENDBRANCH   1  21
TORSDOF 7
