REMARK  Name = ZINC23449534
REMARK  6 active torsions:
REMARK  status: ('A' for Active; 'I' for Inactive)
REMARK    1  A    between atoms: C_4  and  C_7
REMARK    2  A    between atoms: C_9  and  C_12
REMARK    3  A    between atoms: C_12  and  S_13
REMARK    4  A    between atoms: S_13  and  C_14
REMARK    5  A    between atoms: C_17  and  C_20
REMARK    6  A    between atoms: N_18  and  N_19
REMARK                            x       y       z     vdW  Elec       q    Type
REMARK                         _______ _______ _______ _____ _____    ______ ____
ROOT
ATOM      1  C   UNL     1       6.653  -5.816  -1.646  0.00  0.00    +0.209 A 
ATOM      2  N   UNL     1       7.080  -6.376  -0.536  0.00  0.00    -0.121 NA
ATOM      3  N   UNL     1       7.638  -7.504  -0.798  0.00  0.00    -0.127 NA
ATOM      4  C   UNL     1       7.602  -7.732  -2.090  0.00  0.00    +0.183 A 
ATOM      5  N   UNL     1       6.965  -6.661  -2.672  0.00  0.00    -0.224 N 
ENDROOT
BRANCH   4   6
ATOM      6  C   UNL     1       8.140  -8.920  -2.787  0.00  0.00    +0.039 A 
ATOM      7  C   UNL     1       8.929  -8.765  -3.928  0.00  0.00    +0.014 A 
ATOM      8  C   UNL     1       9.428  -9.877  -4.574  0.00  0.00    +0.021 A 
ATOM      9  C   UNL     1       9.148 -11.146  -4.093  0.00  0.00    +0.042 A 
ATOM     10  C   UNL     1       8.365 -11.306  -2.963  0.00  0.00    +0.040 A 
ATOM     11  C   UNL     1       7.864 -10.201  -2.304  0.00  0.00    +0.053 A 
ATOM     12 CL   UNL     1       6.889 -10.404  -0.882  0.00  0.00    -0.083 Cl
ATOM     13 CL   UNL     1       9.779 -12.540  -4.913  0.00  0.00    -0.083 Cl
ENDBRANCH   4   6
BRANCH   5  14
ATOM     14  N   UNL     1       6.703  -6.479  -4.000  0.00  0.00    -0.295 N 
ATOM     15  H   UNL     1       7.497  -6.074  -4.474  0.00  0.00    +0.163 HD
ATOM     16  H   UNL     1       6.425  -7.346  -4.436  0.00  0.00    +0.163 HD
ENDBRANCH   5  14
BRANCH   1  17
ATOM     17  S   UNL     1       5.827  -4.266  -1.783  0.00  0.00    -0.078 S 
BRANCH  17  18
ATOM     18  C   UNL     1       5.730  -3.667  -0.073  0.00  0.00    +0.136 C 
BRANCH  18  21
ATOM     19  C   UNL     1       3.484  -0.837   0.065  0.00  0.00    +0.227 A 
ATOM     20  N   UNL     1       3.715  -2.128   0.087  0.00  0.00    -0.213 NA
ATOM     21  C   UNL     1       5.035  -2.330  -0.047  0.00  0.00    +0.090 A 
ATOM     22  C   UNL     1       5.627  -1.127  -0.154  0.00  0.00    +0.221 A 
ATOM     23  O   UNL     1       4.655  -0.195  -0.090  0.00  0.00    -0.443 OA
BRANCH  19  27
ATOM     24  C   UNL     1      -0.327   1.007   0.407  0.00  0.00    +0.000 A 
ATOM     25  C   UNL     1       0.805   1.788   0.252  0.00  0.00    +0.001 A 
ATOM     26  C   UNL     1       2.046   1.196   0.140  0.00  0.00    +0.013 A 
ATOM     27  C   UNL     1       2.158  -0.195   0.185  0.00  0.00    +0.037 A 
ATOM     28  C   UNL     1       1.013  -0.977   0.342  0.00  0.00    +0.013 A 
ATOM     29  C   UNL     1      -0.222  -0.372   0.451  0.00  0.00    +0.001 A 
ENDBRANCH  19  27
ENDBRANCH  18  21
ENDBRANCH  17  18
ENDBRANCH   1  17
TORSDOF 6
