REMARK  Name = ZINC09819821
REMARK  5 active torsions:
REMARK  status: ('A' for Active; 'I' for Inactive)
REMARK    1  A    between atoms: C_1  and  N_2
REMARK    2  A    between atoms: C_4  and  C_20
REMARK    3  A    between atoms: N_9  and  C_14
REMARK    4  A    between atoms: N_22  and  C_23
REMARK    5  A    between atoms: C_25  and  C_30
REMARK                            x       y       z     vdW  Elec       q    Type
REMARK                         _______ _______ _______ _____ _____    ______ ____
ROOT
ATOM      1  C   UNL     1       3.029   0.249  -0.256  0.00  0.00    +0.149 C 
ATOM      2  N   UNL     1       2.521   1.621  -0.167  0.00  0.00    -0.344 N 
ATOM      3  C   UNL     1       3.280   2.730  -0.133  0.00  0.00    +0.101 A 
ATOM      4  C   UNL     1       2.455   3.835  -0.047  0.00  0.00    +0.079 A 
ATOM      5  C   UNL     1       1.122   3.360  -0.030  0.00  0.00    +0.086 A 
ATOM      6  C   UNL     1       1.189   1.976  -0.105  0.00  0.00    +0.132 A 
ATOM      7  C   UNL     1      -0.017   1.237  -0.105  0.00  0.00    +0.285 A 
ATOM      8  O   UNL     1       0.007   0.021  -0.171  0.00  0.00    -0.265 OA
ATOM      9  N   UNL     1      -1.194   1.892  -0.038  0.00  0.00    -0.227 N 
ATOM     10  C   UNL     1      -1.239   3.233   0.040  0.00  0.00    +0.334 A 
ATOM     11  O   UNL     1      -2.318   3.789   0.103  0.00  0.00    -0.246 OA
ATOM     12  N   UNL     1      -0.115   3.975   0.043  0.00  0.00    -0.305 N 
ATOM     13  H   UNL     1      -0.173   4.942   0.096  0.00  0.00    +0.170 HD
ENDROOT
BRANCH   9  14
ATOM     14  C   UNL     1      -2.390   1.162  -0.043  0.00  0.00    +0.054 A 
ATOM     15  C   UNL     1      -2.605   0.172   0.906  0.00  0.00    +0.026 A 
ATOM     16  C   UNL     1      -3.787  -0.542   0.902  0.00  0.00    +0.002 A 
ATOM     17  C   UNL     1      -4.751  -0.280  -0.054  0.00  0.00    +0.000 A 
ATOM     18  C   UNL     1      -4.537   0.701  -1.005  0.00  0.00    +0.002 A 
ATOM     19  C   UNL     1      -3.360   1.423  -1.002  0.00  0.00    +0.026 A 
ENDBRANCH   9  14
BRANCH   4  20
ATOM     20  C   UNL     1       2.883   5.242   0.014  0.00  0.00    +0.252 C 
ATOM     21  O   UNL     1       2.052   6.127   0.088  0.00  0.00    -0.270 OA
ATOM     22  N   UNL     1       4.195   5.549  -0.012  0.00  0.00    -0.280 N 
ATOM     23  H   UNL     1       4.855   4.848  -0.124  0.00  0.00    +0.155 HD
BRANCH  22  24
ATOM     24  C   UNL     1       4.604   6.881   0.121  0.00  0.00    +0.053 A 
ATOM     25  C   UNL     1       3.749   7.912  -0.246  0.00  0.00    +0.037 A 
ATOM     26  C   UNL     1       4.156   9.225  -0.113  0.00  0.00    +0.057 A 
ATOM     27  C   UNL     1       5.413   9.514   0.386  0.00  0.00    +0.014 A 
ATOM     28  C   UNL     1       6.267   8.491   0.753  0.00  0.00    +0.022 A 
ATOM     29  C   UNL     1       5.864   7.174   0.627  0.00  0.00    +0.062 A 
ATOM     30 CL   UNL     1       6.934   5.890   1.096  0.00  0.00    -0.082 Cl
BRANCH  26  31
ATOM     31  C   UNL     1       3.229  10.344  -0.511  0.00  0.00    +0.417 C 
ATOM     32  F   UNL     1       2.451  10.719   0.589  0.00  0.00    -0.166 F 
ATOM     33  F   UNL     1       3.981  11.441  -0.945  0.00  0.00    -0.166 F 
ATOM     34  F   UNL     1       2.394   9.912  -1.547  0.00  0.00    -0.166 F 
ENDBRANCH  26  31
ENDBRANCH  22  24
ENDBRANCH   4  20
TORSDOF 4
