REMARK  Name = ZINC36039532
REMARK  12 active torsions:
REMARK  status: ('A' for Active; 'I' for Inactive)
REMARK    1  A    between atoms: C_1  and  C_2
REMARK    2  A    between atoms: C_2  and  C_3
REMARK    3  A    between atoms: C_2  and  C_4
REMARK    4  A    between atoms: C_7  and  N_10
REMARK    5  A    between atoms: C_12  and  C_27
REMARK    6  A    between atoms: N_15  and  C_16
REMARK    7  A    between atoms: C_16  and  C_18
REMARK    8  A    between atoms: C_18  and  N_19
REMARK    9  A    between atoms: N_19  and  C_20
REMARK   10  A    between atoms: C_20  and  C_21
REMARK   11  A    between atoms: C_30  and  O_33
REMARK   12  A    between atoms: O_33  and  C_34
REMARK                            x       y       z     vdW  Elec       q    Type
REMARK                         _______ _______ _______ _____ _____    ______ ____
ROOT
ATOM      1  N   UNL     1      -5.321  -1.969   0.043  0.00  0.00    -0.287 N 
ATOM      2  C   UNL     1      -6.269  -1.722   1.017  0.00  0.00    +0.120 A 
ATOM      3  C   UNL     1      -7.400  -2.360   0.669  0.00  0.00    +0.066 A 
ATOM      4  N   UNL     1      -7.167  -3.016  -0.534  0.00  0.00    -0.326 N 
ATOM      5  C   UNL     1      -5.886  -2.761  -0.907  0.00  0.00    +0.205 A 
ATOM      6  N   UNL     1      -5.288  -3.211  -2.010  0.00  0.00    -0.148 NA
ATOM      7  H   UNL     1      -7.807  -3.558  -1.022  0.00  0.00    +0.169 HD
ENDROOT
BRANCH   1  11
ATOM      8  C   UNL     1      -1.412  -0.526   0.013  0.00  0.00    -0.045 A 
ATOM      9  C   UNL     1      -2.258  -0.203   1.058  0.00  0.00    +0.006 A 
ATOM     10  C   UNL     1      -3.554  -0.680   1.071  0.00  0.00    +0.026 A 
ATOM     11  C   UNL     1      -4.007  -1.484   0.033  0.00  0.00    +0.049 A 
ATOM     12  C   UNL     1      -3.155  -1.805  -1.016  0.00  0.00    +0.026 A 
ATOM     13  C   UNL     1      -1.862  -1.321  -1.025  0.00  0.00    +0.006 A 
BRANCH   8  15
ATOM     14  C   UNL     1      -0.019   1.526   0.010  0.00  0.00    +0.012 C 
ATOM     15  C   UNL     1       0.002  -0.004   0.002  0.00  0.00    +0.013 C 
ATOM     16  C   UNL     1       0.742  -0.511   1.242  0.00  0.00    +0.012 C 
ENDBRANCH   8  15
ENDBRANCH   1  11
BRANCH   3  17
ATOM     17  C   UNL     1      -8.668  -2.363   1.432  0.00  0.00    +0.000 A 
ATOM     18  C   UNL     1      -8.765  -1.653   2.629  0.00  0.00    +0.013 A 
ATOM     19  C   UNL     1      -9.948  -1.659   3.337  0.00  0.00    +0.046 A 
ATOM     20  C   UNL     1     -11.042  -2.369   2.860  0.00  0.00    +0.120 A 
ATOM     21  C   UNL     1     -10.948  -3.078   1.670  0.00  0.00    +0.046 A 
ATOM     22  C   UNL     1      -9.770  -3.072   0.953  0.00  0.00    +0.013 A 
BRANCH  20  23
ATOM     23  O   UNL     1     -12.206  -2.372   3.561  0.00  0.00    -0.495 OA
ATOM     24  C   UNL     1     -13.291  -3.124   3.014  0.00  0.00    +0.277 C 
ENDBRANCH  20  23
ENDBRANCH   3  17
BRANCH   6  25
ATOM     25  C   UNL     1      -5.956  -3.981  -2.861  0.00  0.00    +0.222 C 
ATOM     26  O   UNL     1      -7.114  -4.276  -2.634  0.00  0.00    -0.276 OA
BRANCH  25  27
ATOM     27  C   UNL     1      -5.279  -4.490  -4.107  0.00  0.00    +0.017 C 
BRANCH  27  28
ATOM     28  N   UNL     1      -6.222  -5.312  -4.876  0.00  0.00    +0.387 N 
ATOM     29  H   UNL     1      -6.522  -6.094  -4.313  0.00  0.00    -0.085 HD
ATOM     30  H   UNL     1      -7.023  -4.755  -5.132  0.00  0.00    -0.085 HD
BRANCH  28  31
ATOM     31  C   UNL     1      -5.562  -5.808  -6.091  0.00  0.00    -0.046 C 
BRANCH  31  32
ATOM     32  C   UNL     1      -6.530  -6.652  -6.880  0.00  0.00    -0.064 A 
ATOM     33  C   UNL     1      -6.614  -8.011  -6.643  0.00  0.00    +0.002 A 
ATOM     34  C   UNL     1      -7.502  -8.786  -7.366  0.00  0.00    +0.000 A 
ATOM     35  C   UNL     1      -8.306  -8.200  -8.326  0.00  0.00    +0.000 A 
ATOM     36  C   UNL     1      -8.223  -6.841  -8.562  0.00  0.00    +0.000 A 
ATOM     37  C   UNL     1      -7.338  -6.066  -7.836  0.00  0.00    +0.002 A 
ENDBRANCH  31  32
ENDBRANCH  28  31
ENDBRANCH  27  28
ENDBRANCH  25  27
ENDBRANCH   6  25
TORSDOF 9
