REMARK  Name = ZINC39330104
REMARK  5 active torsions:
REMARK  status: ('A' for Active; 'I' for Inactive)
REMARK    1  A    between atoms: C_4  and  C_7
REMARK    2  A    between atoms: C_17  and  S_19
REMARK    3  A    between atoms: S_19  and  C_20
REMARK    4  A    between atoms: C_24  and  C_33
REMARK    5  A    between atoms: N_26  and  C_27
REMARK                            x       y       z     vdW  Elec       q    Type
REMARK                         _______ _______ _______ _____ _____    ______ ____
ROOT
ATOM      1  S   UNL     1       2.907  -2.651   1.613  0.00  0.00    -0.104 S 
ENDROOT
BRANCH   1  12
ATOM      2  C   UNL     1       3.475  -0.704  -0.167  0.00  0.00    -0.010 C 
ATOM      3  C   UNL     1       4.537   0.203  -0.210  0.00  0.00    +0.001 A 
ATOM      4  C   UNL     1       4.306   1.571  -0.471  0.00  0.00    +0.010 A 
ATOM      5  C   UNL     1       5.358   2.433  -0.507  0.00  0.00    +0.001 A 
ATOM      6  C   UNL     1       6.662   1.994  -0.292  0.00  0.00    +0.002 A 
ATOM      7  C   UNL     1       6.947   0.687  -0.036  0.00  0.00    +0.024 A 
ATOM      8  C   UNL     1       5.910  -0.261   0.016  0.00  0.00    +0.041 A 
ATOM      9  N   UNL     1       6.191  -1.544   0.268  0.00  0.00    -0.284 N 
ATOM     10  C   UNL     1       5.277  -2.491   0.333  0.00  0.00    +0.235 C 
ATOM     11  O   UNL     1       5.606  -3.639   0.566  0.00  0.00    -0.274 OA
ATOM     12  C   UNL     1       3.818  -2.152   0.126  0.00  0.00    +0.166 C 
ATOM     13  H   UNL     1       7.119  -1.791   0.409  0.00  0.00    +0.155 HD
BRANCH   2  17
ATOM     14  C   UNL     1      -0.481   0.521  -0.799  0.00  0.00    +0.000 A 
ATOM     15  C   UNL     1       0.118  -0.354  -1.690  0.00  0.00    +0.001 A 
ATOM     16  C   UNL     1       1.418  -0.763  -1.491  0.00  0.00    +0.008 A 
ATOM     17  C   UNL     1       2.136  -0.289  -0.381  0.00  0.00    -0.020 A 
ATOM     18  C   UNL     1       1.519   0.598   0.516  0.00  0.00    +0.008 A 
ATOM     19  C   UNL     1       0.218   0.995   0.299  0.00  0.00    +0.001 A 
ENDBRANCH   2  17
ENDBRANCH   1  12
BRANCH   1  20
ATOM     20  C   UNL     1       3.050  -4.459   1.630  0.00  0.00    +0.218 C 
ATOM     21  N   UNL     1       2.088  -5.065   0.673  0.00  0.00    -0.226 NA
ATOM     22  N   UNL     1       0.826  -5.065   1.428  0.00  0.00    -0.230 NA
ATOM     23  C   UNL     1       1.227  -5.383   2.817  0.00  0.00    +0.195 C 
ATOM     24  N   UNL     1       2.647  -4.997   2.945  0.00  0.00    -0.283 N 
ATOM     25  H   UNL     1       2.010  -4.506  -0.164  0.00  0.00    +0.143 HD
ATOM     26  H   UNL     1       0.376  -4.163   1.380  0.00  0.00    +0.143 HD
BRANCH  24  27
ATOM     27  C   UNL     1       3.450  -5.116   4.082  0.00  0.00    +0.033 A 
ATOM     28  C   UNL     1       2.925  -5.651   5.252  0.00  0.00    +0.023 A 
ATOM     29  C   UNL     1       3.722  -5.767   6.374  0.00  0.00    +0.002 A 
ATOM     30  C   UNL     1       5.040  -5.352   6.334  0.00  0.00    +0.000 A 
ATOM     31  C   UNL     1       5.565  -4.819   5.171  0.00  0.00    +0.002 A 
ATOM     32  C   UNL     1       4.776  -4.705   4.044  0.00  0.00    +0.023 A 
ENDBRANCH  24  27
BRANCH  23  33
ATOM     33  C   UNL     1       0.387  -4.598   3.791  0.00  0.00    +0.026 A 
ATOM     34  C   UNL     1      -0.900  -4.189   3.672  0.00  0.00    +0.014 A 
ATOM     35  C   UNL     1      -1.474  -3.472   4.705  0.00  0.00    +0.008 A 
ATOM     36  C   UNL     1      -0.732  -3.198   5.806  0.00  0.00    +0.045 A 
ATOM     37  S   UNL     1       0.826  -3.970   5.403  0.00  0.00    -0.098 S 
ENDBRANCH  23  33
ENDBRANCH   1  20
TORSDOF 5
