REMARK  Name = ZINC12782463
REMARK  10 active torsions:
REMARK  status: ('A' for Active; 'I' for Inactive)
REMARK    1  A    between atoms: C_1  and  C_2
REMARK    2  A    between atoms: C_8  and  C_33
REMARK    3  A    between atoms: C_12  and  C_13
REMARK    4  A    between atoms: C_13  and  O_15
REMARK    5  A    between atoms: O_15  and  C_16
REMARK    6  A    between atoms: C_16  and  C_18
REMARK    7  A    between atoms: C_16  and  C_19
REMARK    8  A    between atoms: N_21  and  C_22
REMARK    9  A    between atoms: C_27  and  C_32
REMARK   10  A    between atoms: C_29  and  C_31
REMARK                            x       y       z     vdW  Elec       q    Type
REMARK                         _______ _______ _______ _____ _____    ______ ____
ROOT
ATOM      1  C   UNL     1      -3.045   1.085   7.224  0.00  0.00    +0.347 C 
ATOM      2  O   UNL     1      -3.349   2.257   7.335  0.00  0.00    -0.244 OA
ENDROOT
BRANCH   1  14
ATOM      3  C   UNL     1      -2.931   2.147  10.068  0.00  0.00    +0.046 C 
ATOM      4  C   UNL     1      -2.599   0.722   9.708  0.00  0.00    -0.015 A 
ATOM      5  C   UNL     1      -2.221  -0.182  10.704  0.00  0.00    +0.076 A 
ATOM      6  C   UNL     1      -2.080   0.037  12.161  0.00  0.00    +0.260 A 
ATOM      7  O   UNL     1      -2.310   1.127  12.655  0.00  0.00    -0.267 OA
ATOM      8  N   UNL     1      -1.691  -1.001  12.928  0.00  0.00    -0.311 N 
ATOM      9  H   UNL     1      -1.594  -0.875  13.884  0.00  0.00    +0.170 HD
ATOM     10  C   UNL     1      -1.432  -2.218  12.389  0.00  0.00    +0.108 A 
ATOM     11  N   UNL     1      -1.547  -2.444  11.109  0.00  0.00    -0.227 NA
ATOM     12  C   UNL     1      -1.923  -1.492  10.265  0.00  0.00    +0.116 A 
ATOM     13  S   UNL     1      -2.188  -1.405   8.512  0.00  0.00    -0.062 S 
ATOM     14  C   UNL     1      -2.671   0.310   8.409  0.00  0.00    +0.102 A 
ATOM     15  C   UNL     1      -1.000  -3.342  13.295  0.00  0.00    +0.086 C 
ENDBRANCH   1  14
BRANCH   1  16
ATOM     16  O   UNL     1      -3.051   0.498   6.009  0.00  0.00    -0.448 OA
BRANCH  16  17
ATOM     17  C   UNL     1      -3.432   1.327   4.879  0.00  0.00    +0.259 C 
ATOM     18  C   UNL     1      -4.946   1.241   4.671  0.00  0.00    +0.062 C 
BRANCH  17  19
ATOM     19  C   UNL     1      -2.727   0.841   3.639  0.00  0.00    +0.254 C 
ATOM     20  O   UNL     1      -2.049  -0.164   3.682  0.00  0.00    -0.272 OA
ATOM     21  N   UNL     1      -2.850   1.522   2.483  0.00  0.00    -0.309 N 
ATOM     22  H   UNL     1      -3.393   2.325   2.449  0.00  0.00    +0.149 HD
BRANCH  21  23
ATOM     23  C   UNL     1      -2.164   1.050   1.278  0.00  0.00    +0.076 C 
ATOM     24  C   UNL     1      -0.729   1.579   1.267  0.00  0.00    +0.022 C 
ATOM     25  C   UNL     1      -0.013   1.086   0.008  0.00  0.00    +0.002 C 
ATOM     26  C   UNL     1      -0.753   1.593  -1.232  0.00  0.00    +0.003 C 
ATOM     27  C   UNL     1      -2.188   1.063  -1.221  0.00  0.00    -0.009 C 
ATOM     28  C   UNL     1      -2.904   1.556   0.038  0.00  0.00    +0.009 C 
ATOM     29  C   UNL     1      -4.340   1.027   0.049  0.00  0.00    +0.009 C 
ATOM     30  C   UNL     1      -2.928   1.570  -2.460  0.00  0.00    +0.008 C 
ENDBRANCH  21  23
ENDBRANCH  17  19
ENDBRANCH  16  17
ENDBRANCH   1  16
TORSDOF 5
