REMARK  Name = ZINC24374866
REMARK  10 active torsions:
REMARK  status: ('A' for Active; 'I' for Inactive)
REMARK    1  A    between atoms: C_1  and  C_2
REMARK    2  A    between atoms: C_2  and  C_3
REMARK    3  A    between atoms: C_3  and  C_4
REMARK    4  A    between atoms: C_4  and  N_5
REMARK    5  A    between atoms: C_9  and  C_11
REMARK    6  A    between atoms: C_11  and  C_13
REMARK    7  A    between atoms: C_11  and  N_14
REMARK    8  A    between atoms: N_17  and  C_20
REMARK    9  A    between atoms: C_23  and  C_29
REMARK   10  A    between atoms: C_25  and  N_26
REMARK                            x       y       z     vdW  Elec       q    Type
REMARK                         _______ _______ _______ _____ _____    ______ ____
ROOT
ATOM      1  N   UNL     1       4.366  -0.871   0.215  0.00  0.00    +0.389 N 
ATOM      2  C   UNL     1       4.738  -0.145   1.437  0.00  0.00    -0.059 C 
ATOM      3  C   UNL     1       3.646   0.872   1.775  0.00  0.00    +0.086 C 
ATOM      4  N   UNL     1       3.477   1.799   0.647  0.00  0.00    -0.332 N 
ATOM      5  C   UNL     1       3.106   1.073  -0.576  0.00  0.00    +0.086 C 
ATOM      6  C   UNL     1       4.198   0.056  -0.914  0.00  0.00    -0.059 C 
ATOM      7  H   UNL     1       3.401  -1.367   0.394  0.00  0.00    -0.081 HD
ENDROOT
BRANCH   4   8
ATOM      8  C   UNL     1       2.538   2.788   0.948  0.00  0.00    +0.060 A 
ATOM      9  C   UNL     1       1.231   2.434   1.259  0.00  0.00    +0.026 A 
ATOM     10  C   UNL     1       0.303   3.415   1.549  0.00  0.00    +0.014 A 
ATOM     11  C   UNL     1       0.676   4.747   1.542  0.00  0.00    +0.057 A 
ATOM     12  C   UNL     1       1.976   5.101   1.232  0.00  0.00    +0.047 A 
ATOM     13  C   UNL     1       2.908   4.126   0.935  0.00  0.00    +0.148 A 
BRANCH  11  14
ATOM     14  C   UNL     1      -0.338   5.813   1.866  0.00  0.00    +0.417 C 
ATOM     15  F   UNL     1      -0.977   6.222   0.690  0.00  0.00    -0.166 F 
ATOM     16  F   UNL     1      -1.286   5.300   2.757  0.00  0.00    -0.166 F 
ATOM     17  F   UNL     1       0.307   6.908   2.450  0.00  0.00    -0.166 F 
ENDBRANCH  11  14
BRANCH  13  18
ATOM     18  N   UNL     1       4.299   4.507   0.605  0.00  0.00    +0.058 N 
ATOM     19  O   UNL     1       4.623   5.681   0.594  0.00  0.00    -0.126 OA
ATOM     20  O   UNL     1       5.120   3.647   0.343  0.00  0.00    -0.126 OA
ENDBRANCH  13  18
ENDBRANCH   4   8
BRANCH   1  21
ATOM     21  C   UNL     1       5.355  -1.911  -0.101  0.00  0.00    +0.017 C 
ATOM     22  C   UNL     1       4.981  -2.585  -1.423  0.00  0.00    -0.004 C 
BRANCH  21  27
ATOM     23  N   UNL     1       7.625  -5.280   2.469  0.00  0.00    -0.299 N 
ATOM     24  C   UNL     1       6.505  -4.570   2.227  0.00  0.00    +0.306 C 
ATOM     25  O   UNL     1       5.509  -4.758   2.897  0.00  0.00    -0.252 OA
ATOM     26  N   UNL     1       6.491  -3.650   1.242  0.00  0.00    -0.242 N 
ATOM     27  C   UNL     1       5.371  -2.939   1.000  0.00  0.00    +0.207 C 
ATOM     28  O   UNL     1       4.377  -3.128   1.668  0.00  0.00    -0.277 OA
ATOM     29  H   UNL     1       8.527  -5.109   1.862  0.00  0.00    +0.150 HD
ATOM     30  H   UNL     1       7.392  -3.479   0.635  0.00  0.00    +0.159 HD
BRANCH  23  31
ATOM     31  C   UNL     1       7.641  -6.280   3.539  0.00  0.00    +0.106 C 
BRANCH  31  32
ATOM     32  C   UNL     1       9.021  -6.938   3.602  0.00  0.00    +0.018 C 
BRANCH  32  34
ATOM     33  C   UNL     1      10.418  -8.639   4.783  0.00  0.00    +0.004 C 
ATOM     34  C   UNL     1       9.038  -7.982   4.720  0.00  0.00    -0.002 C 
ENDBRANCH  32  34
ENDBRANCH  31  32
ENDBRANCH  23  31
ENDBRANCH  21  27
ENDBRANCH   1  21
TORSDOF 8
