REMARK  Name = ZINC39686540
REMARK  11 active torsions:
REMARK  status: ('A' for Active; 'I' for Inactive)
REMARK    1  A    between atoms: C_1  and  C_2
REMARK    2  A    between atoms: C_2  and  C_4
REMARK    3  A    between atoms: C_2  and  N_13
REMARK    4  A    between atoms: C_4  and  C_5
REMARK    5  A    between atoms: C_10  and  O_11
REMARK    6  A    between atoms: O_11  and  C_12
REMARK    7  A    between atoms: C_14  and  C_16
REMARK    8  A    between atoms: C_27  and  C_29
REMARK    9  A    between atoms: C_29  and  C_31
REMARK   10  A    between atoms: C_29  and  O_32
REMARK   11  A    between atoms: O_32  and  C_33
REMARK                            x       y       z     vdW  Elec       q    Type
REMARK                         _______ _______ _______ _____ _____    ______ ____
ROOT
ATOM      1  C   UNL     1       0.814  -1.135   3.558  0.00  0.00    +0.100 C 
ATOM      2  C   UNL     1       1.995  -0.196   3.889  0.00  0.00    +0.121 C 
ATOM      3  N   UNL     1       1.455   0.744   4.899  0.00  0.00    -0.297 N 
ATOM      4  C   UNL     1       0.598  -0.100   5.766  0.00  0.00    +0.115 C 
ATOM      5  C   UNL     1      -0.099  -1.072   4.794  0.00  0.00    -0.004 C 
ATOM      6  C   UNL     1      -0.225  -2.454   5.428  0.00  0.00    -0.010 C 
ATOM      7  C   UNL     1      -1.184  -2.377   6.620  0.00  0.00    -0.082 C 
ATOM      8  N   UNL     1      -2.496  -1.904   6.165  0.00  0.00    +0.379 N 
ATOM      9  C   UNL     1      -2.382  -0.538   5.641  0.00  0.00    -0.082 C 
ATOM     10  C   UNL     1      -1.474  -0.536   4.408  0.00  0.00    -0.010 C 
ATOM     11  C   UNL     1       1.690   2.067   5.006  0.00  0.00    +0.256 C 
ATOM     12  O   UNL     1       2.343   2.637   4.158  0.00  0.00    -0.272 OA
ATOM     13  H   UNL     1      -2.839  -2.514   5.438  0.00  0.00    -0.086 HD
ATOM     14  H   UNL     1      -3.143  -1.913   6.940  0.00  0.00    -0.086 HD
ENDROOT
BRANCH   1  16
ATOM     15  N   UNL     1      -0.532  -1.523   1.519  0.00  0.00    -0.312 N 
ATOM     16  C   UNL     1       0.079  -0.643   2.337  0.00  0.00    +0.218 C 
ATOM     17  O   UNL     1       0.038   0.543   2.091  0.00  0.00    -0.275 OA
ATOM     18  H   UNL     1      -0.499  -2.472   1.716  0.00  0.00    +0.149 HD
BRANCH  15  20
ATOM     19  C   UNL     1      -0.259  -0.879  -0.825  0.00  0.00    +0.028 C 
ATOM     20  C   UNL     1      -1.246  -1.046   0.333  0.00  0.00    +0.074 C 
BRANCH  20  21
ATOM     21  C   UNL     1      -2.323  -2.060  -0.057  0.00  0.00    +0.060 C 
BRANCH  21  22
ATOM     22  C   UNL     1      -3.362  -2.133   1.031  0.00  0.00    -0.004 A 
ATOM     23  C   UNL     1      -3.268  -3.099   2.014  0.00  0.00    +0.007 A 
ATOM     24  C   UNL     1      -4.221  -3.167   3.013  0.00  0.00    +0.000 A 
ATOM     25  C   UNL     1      -5.272  -2.268   3.031  0.00  0.00    +0.004 A 
ATOM     26  C   UNL     1      -5.371  -1.300   2.051  0.00  0.00    +0.046 A 
ATOM     27  C   UNL     1      -4.412  -1.227   1.051  0.00  0.00    +0.123 A 
BRANCH  27  28
ATOM     28  O   UNL     1      -4.505  -0.272   0.088  0.00  0.00    -0.495 OA
ATOM     29  C   UNL     1      -5.612   0.628   0.171  0.00  0.00    +0.277 C 
ENDBRANCH  27  28
ENDBRANCH  21  22
ENDBRANCH  20  21
ENDBRANCH  15  20
ENDBRANCH   1  16
BRANCH  11  30
ATOM     30  C   UNL     1       1.140   2.838   6.178  0.00  0.00    +0.256 C 
ATOM     31  C   UNL     1       1.860   2.404   7.457  0.00  0.00    +0.062 C 
BRANCH  30  32
ATOM     32  O   UNL     1       1.344   4.236   5.967  0.00  0.00    -0.480 OA
BRANCH  32  33
ATOM     33  C   UNL     1       0.499   5.087   6.607  0.00  0.00    +0.122 A 
ATOM     34  C   UNL     1       0.560   6.449   6.352  0.00  0.00    +0.045 A 
ATOM     35  C   UNL     1      -0.300   7.311   7.004  0.00  0.00    +0.004 A 
ATOM     36  C   UNL     1      -1.222   6.818   7.909  0.00  0.00    +0.000 A 
ATOM     37  C   UNL     1      -1.284   5.461   8.165  0.00  0.00    +0.004 A 
ATOM     38  C   UNL     1      -0.430   4.593   7.512  0.00  0.00    +0.045 A 
ENDBRANCH  32  33
ENDBRANCH  30  32
ENDBRANCH  11  30
TORSDOF 8
