REMARK  Name = ZINC54107760
REMARK  1 active torsions:
REMARK  status: ('A' for Active; 'I' for Inactive)
REMARK    1  A    between atoms: C_6  and  N_7
REMARK                            x       y       z     vdW  Elec       q    Type
REMARK                         _______ _______ _______ _____ _____    ______ ____
ROOT
ATOM      1  C   UNL     1      -0.017   1.384  -0.006  0.00  0.00    +0.025 A 
ATOM      2  C   UNL     1       1.171   2.087  -0.013  0.00  0.00    +0.025 A 
ATOM      3  C   UNL     1       2.384   1.407  -0.012  0.00  0.00    +0.030 A 
ATOM      4  C   UNL     1       2.405   0.021  -0.001  0.00  0.00    -0.025 A 
ATOM      5  C   UNL     1       1.212  -0.681   0.004  0.00  0.00    +0.029 A 
ATOM      6  C   UNL     1       0.002  -0.004   0.002  0.00  0.00    +0.038 A 
ATOM      7  C   UNL     1       3.701  -0.746   0.011  0.00  0.00    +0.038 C 
ATOM      8  C   UNL     1       4.846   0.130  -0.497  0.00  0.00    +0.023 C 
ATOM      9  C   UNL     1       4.839   1.455   0.276  0.00  0.00    +0.102 C 
ATOM     10  N   UNL     1       3.577   2.143  -0.025  0.00  0.00    -0.344 N 
ATOM     11  H   UNL     1       3.569   3.092  -0.230  0.00  0.00    +0.146 HD
ENDROOT
BRANCH   6  12
ATOM     12  N   UNL     1      -1.202  -0.721   0.008  0.00  0.00    -0.254 N 
ATOM     13  C   UNL     1      -1.324  -2.183  -0.097  0.00  0.00    +0.134 C 
ATOM     14  C   UNL     1      -2.844  -2.432  -0.039  0.00  0.00    +0.125 C 
ATOM     15  N   UNL     1      -3.417  -1.084   0.092  0.00  0.00    -0.297 N 
ATOM     16  C   UNL     1      -2.425  -0.184   0.116  0.00  0.00    +0.307 C 
ATOM     17  O   UNL     1      -2.617   1.011   0.223  0.00  0.00    -0.252 OA
ATOM     18  H   UNL     1      -4.363  -0.879   0.155  0.00  0.00    +0.150 HD
ENDBRANCH   6  12
TORSDOF 1
