REMARK  Name = ZINC36525188
REMARK  12 active torsions:
REMARK  status: ('A' for Active; 'I' for Inactive)
REMARK    1  A    between atoms: C_1  and  C_2
REMARK    2  A    between atoms: C_2  and  C_3
REMARK    3  A    between atoms: C_2  and  C_4
REMARK    4  A    between atoms: C_2  and  N_5
REMARK    5  A    between atoms: C_6  and  C_8
REMARK    6  A    between atoms: C_8  and  C_10
REMARK    7  A    between atoms: C_8  and  N_19
REMARK    8  A    between atoms: N_19  and  C_20
REMARK    9  A    between atoms: C_21  and  C_23
REMARK   10  A    between atoms: C_23  and  C_25
REMARK   11  A    between atoms: C_23  and  O_31
REMARK   12  A    between atoms: O_31  and  C_32
REMARK                            x       y       z     vdW  Elec       q    Type
REMARK                         _______ _______ _______ _____ _____    ______ ____
ROOT
ATOM      1  C   UNL     1       2.664  -0.633  -2.720  0.00  0.00    +0.192 C 
ENDROOT
BRANCH   1   2
ATOM      2  C   UNL     1       2.631  -2.127  -2.912  0.00  0.00    -0.015 A 
ATOM      3  C   UNL     1       1.927  -2.671  -3.970  0.00  0.00    +0.010 A 
ATOM      4  C   UNL     1       1.894  -4.041  -4.151  0.00  0.00    +0.050 A 
ATOM      5  C   UNL     1       2.567  -4.873  -3.272  0.00  0.00    +0.166 A 
ATOM      6  C   UNL     1       3.276  -4.325  -2.205  0.00  0.00    +0.167 A 
ATOM      7  C   UNL     1       3.310  -2.951  -2.034  0.00  0.00    +0.055 A 
ATOM      8  O   UNL     1       3.845  -5.341  -1.492  0.00  0.00    -0.453 OA
ATOM      9  C   UNL     1       3.142  -6.532  -1.892  0.00  0.00    +0.466 C 
ATOM     10  O   UNL     1       2.691  -6.231  -3.226  0.00  0.00    -0.453 OA
ENDBRANCH   1   2
BRANCH   1  12
ATOM     11  N   UNL     1       0.739  -0.612  -1.167  0.00  0.00    -0.309 N 
ATOM     12  C   UNL     1       2.024  -0.282  -1.401  0.00  0.00    +0.238 C 
ATOM     13  O   UNL     1       2.666   0.298  -0.551  0.00  0.00    -0.273 OA
ATOM     14  H   UNL     1       0.225  -1.075  -1.847  0.00  0.00    +0.149 HD
BRANCH  11  16
ATOM     15  C   UNL     1       0.150   1.247   0.310  0.00  0.00    +0.031 C 
ATOM     16  C   UNL     1       0.116  -0.270   0.114  0.00  0.00    +0.026 C 
ATOM     17  C   UNL     1       0.885  -0.948   1.251  0.00  0.00    +0.031 C 
ATOM     18  C   UNL     1      -1.335  -0.753   0.121  0.00  0.00    +0.031 C 
ENDBRANCH  11  16
ENDBRANCH   1  12
BRANCH   1  19
ATOM     19  N   UNL     1       4.055  -0.170  -2.726  0.00  0.00    -0.287 N 
ATOM     20  C   UNL     1       4.989  -0.645  -1.702  0.00  0.00    +0.133 C 
ATOM     21  C   UNL     1       4.474   0.692  -3.674  0.00  0.00    +0.250 C 
ATOM     22  O   UNL     1       3.728   1.010  -4.576  0.00  0.00    -0.272 OA
BRANCH  21  23
ATOM     23  C   UNL     1       5.869   1.259  -3.612  0.00  0.00    +0.233 C 
BRANCH  23  24
ATOM     24  C   UNL     1       5.889   2.443  -2.680  0.00  0.00    -0.010 A 
ATOM     25  C   UNL     1       5.346   3.649  -3.083  0.00  0.00    +0.006 A 
ATOM     26  C   UNL     1       5.365   4.735  -2.228  0.00  0.00    +0.000 A 
ATOM     27  C   UNL     1       5.925   4.615  -0.970  0.00  0.00    +0.000 A 
ATOM     28  C   UNL     1       6.466   3.408  -0.567  0.00  0.00    +0.000 A 
ATOM     29  C   UNL     1       6.444   2.321  -1.420  0.00  0.00    +0.006 A 
ENDBRANCH  23  24
BRANCH  23  30
ATOM     30  O   UNL     1       6.272   1.675  -4.919  0.00  0.00    -0.366 OA
ATOM     31  C   UNL     1       6.929   0.656  -5.676  0.00  0.00    +0.195 C 
ENDBRANCH  23  30
ENDBRANCH  21  23
ENDBRANCH   1  19
TORSDOF 7
