REMARK  Name = ZINC16735305
REMARK  15 active torsions:
REMARK  status: ('A' for Active; 'I' for Inactive)
REMARK    1  A    between atoms: C_1  and  C_2
REMARK    2  A    between atoms: C_2  and  O_3
REMARK    3  A    between atoms: O_3  and  C_4
REMARK    4  A    between atoms: C_4  and  C_6
REMARK    5  A    between atoms: C_7  and  C_36
REMARK    6  A    between atoms: C_8  and  C_31
REMARK    7  A    between atoms: C_10  and  N_11
REMARK    8  A    between atoms: N_11  and  C_12
REMARK    9  A    between atoms: C_12  and  C_14
REMARK   10  A    between atoms: C_12  and  N_23
REMARK   11  A    between atoms: C_14  and  C_16
REMARK   12  A    between atoms: C_24  and  C_26
REMARK   13  A    between atoms: C_31  and  O_33
REMARK   14  A    between atoms: O_33  and  C_34
REMARK   15  A    between atoms: C_34  and  C_35
REMARK                            x       y       z     vdW  Elec       q    Type
REMARK                         _______ _______ _______ _____ _____    ______ ____
ROOT
ATOM      1  C   UNL     1       3.555   4.836   0.010  0.00  0.00    +0.232 C 
ENDROOT
BRANCH   1   2
ATOM      2  N   UNL     1       3.408   3.410   0.314  0.00  0.00    -0.284 N 
ATOM      3  C   UNL     1       2.180   2.861   0.389  0.00  0.00    +0.281 C 
ATOM      4  O   UNL     1       1.193   3.548   0.205  0.00  0.00    -0.267 OA
ATOM      5  H   UNL     1       4.194   2.862   0.460  0.00  0.00    +0.151 HD
BRANCH   3   6
ATOM      6  C   UNL     1       2.033   1.433   0.693  0.00  0.00    +0.189 A 
ATOM      7  C   UNL     1       0.854   0.753   0.799  0.00  0.00    +0.054 A 
ATOM      8  C   UNL     1       1.182  -0.579   1.099  0.00  0.00    +0.042 A 
ATOM      9  C   UNL     1       2.530  -0.651   1.162  0.00  0.00    +0.196 A 
ATOM     10  O   UNL     1       3.039   0.563   0.917  0.00  0.00    -0.458 OA
ENDBRANCH   3   6
ENDBRANCH   1   2
BRANCH   1  11
ATOM     11  N   UNL     1       3.913   5.561   1.232  0.00  0.00    -0.314 N 
ATOM     12  H   UNL     1       4.814   5.499   1.586  0.00  0.00    +0.149 HD
BRANCH  11  17
ATOM     13  C   UNL     1       3.116   7.085   3.047  0.00  0.00    +0.091 A 
ATOM     14  C   UNL     1       2.008   7.784   3.502  0.00  0.00    -0.014 A 
ATOM     15  C   UNL     1       0.849   7.679   2.781  0.00  0.00    +0.102 A 
ATOM     16  S   UNL     1       1.315   6.595   1.444  0.00  0.00    -0.066 S 
ATOM     17  C   UNL     1       2.972   6.329   1.876  0.00  0.00    +0.082 A 
ATOM     18  C   UNL     1       2.076   8.626   4.750  0.00  0.00    +0.046 C 
BRANCH  13  19
ATOM     19  C   UNL     1       4.393   7.138   3.765  0.00  0.00    +0.342 C 
ATOM     20  O   UNL     1       5.211   7.995   3.489  0.00  0.00    -0.245 OA
BRANCH  19  21
ATOM     21  O   UNL     1       4.662   6.236   4.731  0.00  0.00    -0.461 OA
BRANCH  21  23
ATOM     22  C   UNL     1       6.069   5.249   6.455  0.00  0.00    +0.048 C 
ATOM     23  C   UNL     1       5.946   6.349   5.399  0.00  0.00    +0.229 C 
ENDBRANCH  21  23
ENDBRANCH  19  21
ENDBRANCH  13  19
BRANCH  15  24
ATOM     24  C   UNL     1      -0.447   8.301   3.041  0.00  0.00    +0.346 C 
ATOM     25  O   UNL     1      -0.592   9.022   4.011  0.00  0.00    -0.244 OA
BRANCH  24  26
ATOM     26  O   UNL     1      -1.483   8.076   2.207  0.00  0.00    -0.461 OA
BRANCH  26  27
ATOM     27  C   UNL     1      -2.721   8.716   2.522  0.00  0.00    +0.229 C 
ATOM     28  C   UNL     1      -3.770   8.346   1.472  0.00  0.00    +0.048 C 
ENDBRANCH  26  27
ENDBRANCH  24  26
ENDBRANCH  15  24
ENDBRANCH  11  17
ENDBRANCH   1  11
BRANCH   1  29
ATOM     29  C   UNL     1       4.639   5.021  -1.020  0.00  0.00    +0.201 C 
ATOM     30  O   UNL     1       5.494   5.865  -0.855  0.00  0.00    -0.288 OA
BRANCH  29  31
ATOM     31  C   UNL     1       4.660   4.179  -2.225  0.00  0.00    +0.021 A 
ATOM     32  C   UNL     1       5.732   4.258  -3.120  0.00  0.00    +0.013 A 
ATOM     33  C   UNL     1       5.748   3.461  -4.244  0.00  0.00    +0.021 A 
ATOM     34  C   UNL     1       4.698   2.592  -4.496  0.00  0.00    +0.041 A 
ATOM     35  C   UNL     1       3.629   2.513  -3.618  0.00  0.00    +0.021 A 
ATOM     36  C   UNL     1       3.603   3.299  -2.486  0.00  0.00    +0.013 A 
ATOM     37 CL   UNL     1       4.723   1.598  -5.919  0.00  0.00    -0.084 Cl
ENDBRANCH  29  31
ENDBRANCH   1  29
TORSDOF 12
