REMARK  Name = ZINC49111656
REMARK  8 active torsions:
REMARK  status: ('A' for Active; 'I' for Inactive)
REMARK    1  A    between atoms: C_3  and  C_8
REMARK    2  A    between atoms: C_12  and  N_18
REMARK    3  A    between atoms: C_13  and  C_15
REMARK    4  A    between atoms: C_19  and  C_21
REMARK    5  A    between atoms: C_21  and  C_23
REMARK    6  A    between atoms: C_21  and  N_36
REMARK    7  A    between atoms: C_23  and  C_24
REMARK    8  A    between atoms: C_26  and  C_29
REMARK                            x       y       z     vdW  Elec       q    Type
REMARK                         _______ _______ _______ _____ _____    ______ ____
ROOT
ATOM      1  N   UNL     1       7.830   3.110   0.123  0.00  0.00    -0.290 N 
ATOM      2  C   UNL     1       8.659   3.003  -0.935  0.00  0.00    +0.203 C 
ATOM      3  O   UNL     1       8.228   2.639  -2.008  0.00  0.00    -0.277 OA
ATOM      4  H   UNL     1       8.159   3.467   0.962  0.00  0.00    +0.154 HD
ENDROOT
BRANCH   1   8
ATOM      5  C   UNL     1       3.975   1.639  -0.491  0.00  0.00    +0.024 C 
ATOM      6  C   UNL     1       4.182   3.143  -0.708  0.00  0.00    +0.014 C 
ATOM      7  C   UNL     1       5.660   3.392  -1.015  0.00  0.00    +0.052 C 
ATOM      8  C   UNL     1       6.522   2.715   0.011  0.00  0.00    +0.021 C 
ATOM      9  C   UNL     1       6.083   1.747   0.821  0.00  0.00    +0.058 C 
ATOM     10  C   UNL     1       4.673   1.229   0.808  0.00  0.00    +0.052 C 
BRANCH   5  13
ATOM     11  C   UNL     1       0.556   0.200  -1.197  0.00  0.00    +0.003 A 
ATOM     12  C   UNL     1       1.908   0.475  -1.289  0.00  0.00    +0.004 A 
ATOM     13  C   UNL     1       2.501   1.340  -0.389  0.00  0.00    -0.041 A 
ATOM     14  C   UNL     1       1.744   1.932   0.604  0.00  0.00    +0.042 A 
ATOM     15  C   UNL     1       0.390   1.658   0.697  0.00  0.00    +0.124 A 
ATOM     16  C   UNL     1      -0.203   0.791  -0.205  0.00  0.00    +0.038 A 
ATOM     17  F   UNL     1      -0.352   2.236   1.667  0.00  0.00    -0.205 F 
ENDBRANCH   5  13
BRANCH   9  18
ATOM     18  C   UNL     1       6.993   1.177   1.736  0.00  0.00    +0.384 C 
ATOM     19  O   UNL     1       8.125   1.635   1.839  0.00  0.00    -0.241 OA
ATOM     20  O   UNL     1       6.651   0.226   2.428  0.00  0.00    -0.241 OA
ENDBRANCH   9  18
ENDBRANCH   1   8
BRANCH   2  21
ATOM     21  C   UNL     1      10.121   3.335  -0.782  0.00  0.00    +0.022 C 
BRANCH  21  22
ATOM     22  N   UNL     1      10.701   3.608  -2.104  0.00  0.00    +0.386 N 
ATOM     23  H   UNL     1      10.601   2.793  -2.690  0.00  0.00    -0.089 HD
ATOM     24  H   UNL     1      10.221   4.388  -2.527  0.00  0.00    -0.089 HD
ATOM     25  H   UNL     1      11.680   3.830  -2.002  0.00  0.00    -0.089 HD
ENDBRANCH  21  22
BRANCH  21  26
ATOM     26  C   UNL     1      10.848   2.152  -0.141  0.00  0.00    +0.092 C 
BRANCH  26  27
ATOM     27  C   UNL     1      12.283   2.529   0.124  0.00  0.00    +0.227 A 
ATOM     28  N   UNL     1      12.739   3.068   1.218  0.00  0.00    -0.190 NA
ATOM     29  C   UNL     1      14.065   3.271   1.114  0.00  0.00    +0.220 A 
ATOM     30  N   UNL     1      14.461   2.855  -0.063  0.00  0.00    -0.054 NA
ATOM     31  O   UNL     1      13.306   2.359  -0.724  0.00  0.00    -0.338 OA
BRANCH  29  32
ATOM     32  C   UNL     1      14.934   3.867   2.159  0.00  0.00    +0.111 A 
ATOM     33  C   UNL     1      16.297   4.025   1.916  0.00  0.00    +0.034 A 
ATOM     34  C   UNL     1      17.096   4.583   2.898  0.00  0.00    +0.042 A 
ATOM     35  C   UNL     1      16.504   4.965   4.096  0.00  0.00    +0.141 A 
ATOM     36  C   UNL     1      15.142   4.778   4.269  0.00  0.00    +0.149 A 
ATOM     37  N   UNL     1      14.406   4.250   3.314  0.00  0.00    -0.249 NA
ATOM     38  F   UNL     1      17.249   5.513   5.081  0.00  0.00    -0.204 F 
ENDBRANCH  29  32
ENDBRANCH  26  27
ENDBRANCH  21  26
ENDBRANCH   2  21
TORSDOF 8
