REMARK  Name = ZINC12783141
REMARK  6 active torsions:
REMARK  status: ('A' for Active; 'I' for Inactive)
REMARK    1  A    between atoms: C_4  and  N_26
REMARK    2  A    between atoms: C_5  and  N_7
REMARK    3  A    between atoms: N_7  and  C_8
REMARK    4  A    between atoms: C_8  and  C_9
REMARK    5  A    between atoms: C_12  and  C_21
REMARK    6  A    between atoms: C_14  and  C_16
REMARK                            x       y       z     vdW  Elec       q    Type
REMARK                         _______ _______ _______ _____ _____    ______ ____
ROOT
ATOM      1  C   UNL     1       0.098  -4.270  -0.073  0.00  0.00    +0.252 C 
ATOM      2  O   UNL     1       1.231  -4.698   0.010  0.00  0.00    -0.272 OA
ATOM      3  N   UNL     1      -0.942  -5.125  -0.145  0.00  0.00    -0.181 N 
ATOM      4  C   UNL     1      -0.845  -6.593  -0.129  0.00  0.00    +0.173 C 
ATOM      5  C   UNL     1      -2.312  -7.054  -0.237  0.00  0.00    +0.090 C 
ATOM      6  C   UNL     1      -3.096  -5.763  -0.303  0.00  0.00    +0.075 C 
ATOM      7  N   UNL     1      -2.283  -4.761  -0.242  0.00  0.00    -0.180 NA
ENDROOT
BRANCH   6   8
ATOM      8  C   UNL     1      -4.555  -5.663  -0.414  0.00  0.00    +0.035 A 
ATOM      9  C   UNL     1      -5.350  -4.532  -0.486  0.00  0.00    +0.017 A 
ATOM     10  C   UNL     1      -6.712  -4.695  -0.587  0.00  0.00    +0.008 A 
ATOM     11  C   UNL     1      -7.231  -5.950  -0.612  0.00  0.00    +0.046 A 
ATOM     12  S   UNL     1      -5.770  -6.969  -0.498  0.00  0.00    -0.095 S 
ENDBRANCH   6   8
BRANCH   4  13
ATOM     13  C   UNL     1      -0.047  -7.085  -1.309  0.00  0.00    +0.128 A 
ATOM     14  C   UNL     1       0.825  -8.108  -1.297  0.00  0.00    +0.046 A 
ATOM     15  C   UNL     1       1.342  -8.222  -2.608  0.00  0.00    +0.041 A 
ATOM     16  C   UNL     1       0.754  -7.261  -3.343  0.00  0.00    +0.195 A 
ATOM     17  O   UNL     1      -0.091  -6.579  -2.553  0.00  0.00    -0.466 OA
ENDBRANCH   4  13
BRANCH   1  18
ATOM     18  C   UNL     1      -0.145  -2.783  -0.094  0.00  0.00    +0.199 C 
BRANCH  18  19
ATOM     19  N   UNL     1       1.135  -2.077  -0.003  0.00  0.00    -0.334 N 
ATOM     20  H   UNL     1       1.963  -2.579   0.058  0.00  0.00    +0.147 HD
BRANCH  19  25
ATOM     21  C   UNL     1       0.009   1.421   0.025  0.00  0.00    +0.002 A 
ATOM     22  C   UNL     1       1.222   2.086  -0.007  0.00  0.00    +0.002 A 
ATOM     23  C   UNL     1       2.405   1.371  -0.038  0.00  0.00    +0.023 A 
ATOM     24  C   UNL     1       2.380  -0.010  -0.037  0.00  0.00    +0.035 A 
ATOM     25  C   UNL     1       1.164  -0.681  -0.004  0.00  0.00    +0.047 A 
ATOM     26  C   UNL     1      -0.023   0.041   0.026  0.00  0.00    +0.025 A 
BRANCH  24  27
ATOM     27  N   UNL     1       3.577  -0.732  -0.069  0.00  0.00    -0.392 NA
ATOM     28  C   UNL     1       4.426  -0.317   1.054  0.00  0.00    +0.085 C 
ATOM     29  C   UNL     1       5.703  -1.161   1.071  0.00  0.00    +0.017 C 
ATOM     30  C   UNL     1       6.459  -0.959  -0.245  0.00  0.00    +0.003 C 
ATOM     31  C   UNL     1       5.538  -1.323  -1.413  0.00  0.00    +0.017 C 
ATOM     32  C   UNL     1       4.268  -0.474  -1.338  0.00  0.00    +0.085 C 
ATOM     33  H   UNL     1       3.376  -1.717   0.009  0.00  0.00    +0.126 HD
ENDBRANCH  24  27
ENDBRANCH  19  25
ENDBRANCH  18  19
ENDBRANCH   1  18
TORSDOF 6
