REMARK  Name = ZINC03632468
REMARK  8 active torsions:
REMARK  status: ('A' for Active; 'I' for Inactive)
REMARK    1  A    between atoms: C_3  and  C_6
REMARK    2  A    between atoms: N_8  and  C_9
REMARK    3  A    between atoms: C_9  and  C_10
REMARK    4  A    between atoms: C_13  and  S_22
REMARK    5  A    between atoms: N_14  and  C_15
REMARK    6  A    between atoms: S_22  and  C_23
REMARK    7  A    between atoms: C_23  and  C_24
REMARK    8  A    between atoms: N_26  and  C_27
REMARK                            x       y       z     vdW  Elec       q    Type
REMARK                         _______ _______ _______ _____ _____    ______ ____
ROOT
ATOM      1  C   UNL     1      -4.822  -0.670   0.046  0.00  0.00    +0.156 A 
ATOM      2  N   UNL     1      -5.481  -0.290   1.104  0.00  0.00    -0.132 NA
ATOM      3  N   UNL     1      -6.540   0.350   0.758  0.00  0.00    -0.122 NA
ATOM      4  C   UNL     1      -6.621   0.408  -0.551  0.00  0.00    +0.197 A 
ATOM      5  N   UNL     1      -5.525  -0.242  -1.048  0.00  0.00    -0.273 N 
ENDROOT
BRANCH   5   6
ATOM      6  C   UNL     1      -5.191  -0.431  -2.398  0.00  0.00    +0.050 A 
ATOM      7  C   UNL     1      -4.052   0.164  -2.922  0.00  0.00    +0.029 A 
ATOM      8  C   UNL     1      -3.722  -0.027  -4.250  0.00  0.00    +0.040 A 
ATOM      9  C   UNL     1      -4.533  -0.803  -5.060  0.00  0.00    +0.124 A 
ATOM     10  C   UNL     1      -5.673  -1.393  -4.541  0.00  0.00    +0.040 A 
ATOM     11  C   UNL     1      -6.003  -1.208  -3.213  0.00  0.00    +0.029 A 
ATOM     12  F   UNL     1      -4.212  -0.985  -6.360  0.00  0.00    -0.205 F 
ENDBRANCH   5   6
BRANCH   1  13
ATOM     13  C   UNL     1      -3.528  -1.443   0.030  0.00  0.00    +0.181 C 
BRANCH  13  16
ATOM     14  C   UNL     1      -1.137  -0.977   0.020  0.00  0.00    +0.251 C 
ATOM     15  O   UNL     1      -0.932  -2.176   0.006  0.00  0.00    -0.270 OA
ATOM     16  N   UNL     1      -2.400  -0.508   0.033  0.00  0.00    -0.304 N 
ATOM     17  H   UNL     1      -2.563   0.448   0.044  0.00  0.00    +0.149 HD
BRANCH  14  20
ATOM     18  C   UNL     1       2.203   0.764   0.018  0.00  0.00    +0.008 A 
ATOM     19  C   UNL     1       1.351  -0.312   0.012  0.00  0.00    +0.021 A 
ATOM     20  C   UNL     1      -0.008  -0.041   0.023  0.00  0.00    +0.074 A 
ATOM     21  S   UNL     1      -0.026   1.743   0.043  0.00  0.00    -0.092 S 
ATOM     22  C   UNL     1       1.685   2.020   0.035  0.00  0.00    +0.046 A 
ENDBRANCH  14  20
ENDBRANCH  13  16
ENDBRANCH   1  13
BRANCH   4  23
ATOM     23  S   UNL     1      -7.899   1.177  -1.490  0.00  0.00    -0.076 S 
BRANCH  23  24
ATOM     24  C   UNL     1      -8.946   1.794  -0.148  0.00  0.00    +0.173 C 
BRANCH  24  25
ATOM     25  C   UNL     1     -10.138   2.509  -0.730  0.00  0.00    +0.227 C 
ATOM     26  O   UNL     1     -10.267   2.594  -1.933  0.00  0.00    -0.275 OA
ATOM     27  N   UNL     1     -11.061   3.054   0.086  0.00  0.00    -0.285 N 
ATOM     28  H   UNL     1     -10.995   2.929   1.046  0.00  0.00    +0.155 HD
BRANCH  27  29
ATOM     29  C   UNL     1     -12.117   3.802  -0.450  0.00  0.00    +0.034 A 
ATOM     30  C   UNL     1     -12.613   4.900   0.240  0.00  0.00    +0.026 A 
ATOM     31  C   UNL     1     -13.650   5.639  -0.294  0.00  0.00    +0.040 A 
ATOM     32  C   UNL     1     -14.203   5.279  -1.512  0.00  0.00    +0.124 A 
ATOM     33  C   UNL     1     -13.714   4.181  -2.199  0.00  0.00    +0.040 A 
ATOM     34  C   UNL     1     -12.673   3.442  -1.671  0.00  0.00    +0.026 A 
ATOM     35  F   UNL     1     -15.221   6.000  -2.030  0.00  0.00    -0.205 F 
ENDBRANCH  27  29
ENDBRANCH  24  25
ENDBRANCH  23  24
ENDBRANCH   4  23
TORSDOF 8
