REMARK  Name = ZINC35465140
REMARK  12 active torsions:
REMARK  status: ('A' for Active; 'I' for Inactive)
REMARK    1  A    between atoms: C_1  and  C_2
REMARK    2  A    between atoms: C_9  and  O_15
REMARK    3  A    between atoms: C_16  and  C_39
REMARK    4  A    between atoms: C_19  and  O_35
REMARK    5  A    between atoms: C_21  and  C_33
REMARK    6  A    between atoms: C_21  and  C_34
REMARK    7  A    between atoms: C_24  and  O_29
REMARK    8  A    between atoms: C_26  and  O_28
REMARK    9  A    between atoms: O_29  and  C_30
REMARK   10  A    between atoms: C_30  and  C_32
REMARK   11  A    between atoms: O_35  and  C_36
REMARK   12  A    between atoms: C_36  and  C_38
REMARK                            x       y       z     vdW  Elec       q    Type
REMARK                         _______ _______ _______ _____ _____    ______ ____
ROOT
ATOM      1  C   UNL     1      -0.066   1.551  -0.030  0.00  0.00    +0.013 C 
ATOM      2  C   UNL     1      -0.039   0.029  -0.055  0.00  0.00    +0.024 C 
ATOM      3  C   UNL     1      -1.406  -0.631   0.085  0.00  0.00    +0.032 C 
ATOM      4  C   UNL     1      -1.901  -0.910   1.475  0.00  0.00    +0.008 C 
ATOM      5  C   UNL     1      -0.877  -1.457   2.454  0.00  0.00    +0.088 C 
ATOM      6  C   UNL     1       0.458  -0.734   2.444  0.00  0.00    +0.237 C 
ATOM      7  C   UNL     1       0.878  -0.508   1.009  0.00  0.00    +0.011 C 
ATOM      8  C   UNL     1       2.155  -0.845   0.921  0.00  0.00    +0.097 C 
ATOM      9  C   UNL     1       2.591  -1.357   2.228  0.00  0.00    +0.335 C 
ATOM     10  O   UNL     1       3.737  -1.592   2.552  0.00  0.00    -0.246 OA
ATOM     11  O   UNL     1       1.501  -1.546   3.006  0.00  0.00    -0.425 OA
ATOM     12  C   UNL     1      -2.845   0.112   2.068  0.00  0.00    -0.022 C 
ATOM     13  C   UNL     1      -3.356  -0.360   3.436  0.00  0.00    +0.011 C 
ATOM     14  C   UNL     1      -4.236  -1.594   3.249  0.00  0.00    +0.046 C 
ATOM     15  C   UNL     1      -5.495  -1.140   2.517  0.00  0.00    +0.182 C 
ATOM     16  C   UNL     1      -5.151  -0.593   1.126  0.00  0.00    +0.009 C 
ATOM     17  C   UNL     1      -4.015   0.398   1.130  0.00  0.00    +0.048 C 
ATOM     18  C   UNL     1      -3.509   0.823  -0.234  0.00  0.00    +0.209 C 
ATOM     19  C   UNL     1      -2.419  -0.016  -0.858  0.00  0.00    +0.159 C 
ATOM     20  C   UNL     1      -6.442   0.127   0.656  0.00  0.00    +0.015 C 
ATOM     21  C   UNL     1      -4.926  -1.779   0.190  0.00  0.00    +0.015 C 
ATOM     22  C   UNL     1      -2.135   1.453   2.333  0.00  0.00    +0.012 C 
ENDROOT
BRANCH   6  23
ATOM     23  O   UNL     1       0.411   0.496   3.168  0.00  0.00    -0.352 OA
ATOM     24  H   UNL     1       1.250   0.978   3.178  0.00  0.00    +0.214 HD
ENDBRANCH   6  23
BRANCH  19  25
ATOM     25  O   UNL     1      -2.981  -1.037  -1.701  0.00  0.00    -0.388 OA
ATOM     26  H   UNL     1      -3.639  -0.709  -2.329  0.00  0.00    +0.210 HD
ENDBRANCH  19  25
BRANCH  18  27
ATOM     27  O   UNL     1      -4.579   0.970  -1.180  0.00  0.00    -0.459 OA
BRANCH  27  28
ATOM     28  C   UNL     1      -4.410   1.877  -2.155  0.00  0.00    +0.304 C 
ATOM     29  O   UNL     1      -3.392   2.525  -2.208  0.00  0.00    -0.251 OA
ATOM     30  C   UNL     1      -5.490   2.087  -3.185  0.00  0.00    +0.136 C 
ENDBRANCH  27  28
ENDBRANCH  18  27
BRANCH  15  31
ATOM     31  O   UNL     1      -6.391  -2.246   2.376  0.00  0.00    -0.461 OA
BRANCH  31  32
ATOM     32  C   UNL     1      -7.281  -2.438   3.363  0.00  0.00    +0.304 C 
ATOM     33  O   UNL     1      -7.299  -1.693   4.314  0.00  0.00    -0.251 OA
ATOM     34  C   UNL     1      -8.257  -3.583   3.284  0.00  0.00    +0.136 C 
ENDBRANCH  31  32
ENDBRANCH  15  31
TORSDOF 6
