REMARK  Name = ZINC11008437
REMARK  11 active torsions:
REMARK  status: ('A' for Active; 'I' for Inactive)
REMARK    1  A    between atoms: C_1  and  C_2
REMARK    2  A    between atoms: C_2  and  C_3
REMARK    3  A    between atoms: C_3  and  C_5
REMARK    4  A    between atoms: C_3  and  C_6
REMARK    5  A    between atoms: C_9  and  N_12
REMARK    6  A    between atoms: C_22  and  S_23
REMARK    7  A    between atoms: S_23  and  C_24
REMARK    8  A    between atoms: C_24  and  C_26
REMARK    9  A    between atoms: C_24  and  C_27
REMARK   10  A    between atoms: N_29  and  C_30
REMARK   11  A    between atoms: C_32  and  C_35
REMARK                            x       y       z     vdW  Elec       q    Type
REMARK                         _______ _______ _______ _____ _____    ______ ____
ROOT
ATOM      1  N   UNL     1       7.051   6.688   1.008  0.00  0.00    -0.255 N 
ATOM      2  C   UNL     1       7.441   7.819   0.376  0.00  0.00    +0.267 A 
ATOM      3  O   UNL     1       8.612   8.022   0.109  0.00  0.00    -0.267 OA
ATOM      4  C   UNL     1       6.401   8.797   0.028  0.00  0.00    +0.065 A 
ATOM      5  C   UNL     1       6.703   9.995  -0.617  0.00  0.00    +0.015 A 
ATOM      6  C   UNL     1       5.696  10.870  -0.918  0.00  0.00    +0.001 A 
ATOM      7  C   UNL     1       4.379  10.578  -0.587  0.00  0.00    +0.002 A 
ATOM      8  C   UNL     1       4.055   9.412   0.047  0.00  0.00    +0.028 A 
ATOM      9  C   UNL     1       5.062   8.496   0.368  0.00  0.00    +0.079 A 
ATOM     10  N   UNL     1       4.787   7.329   0.995  0.00  0.00    -0.223 NA
ATOM     11  C   UNL     1       5.732   6.473   1.295  0.00  0.00    +0.177 A 
ENDROOT
BRANCH   1  15
ATOM     12  C   UNL     1       9.892   3.830   2.071  0.00  0.00    -0.044 A 
ATOM     13  C   UNL     1       9.565   4.840   2.957  0.00  0.00    +0.006 A 
ATOM     14  C   UNL     1       8.624   5.789   2.607  0.00  0.00    +0.026 A 
ATOM     15  C   UNL     1       8.006   5.727   1.365  0.00  0.00    +0.052 A 
ATOM     16  C   UNL     1       8.333   4.708   0.480  0.00  0.00    +0.026 A 
ATOM     17  C   UNL     1       9.279   3.766   0.833  0.00  0.00    +0.006 A 
BRANCH  12  18
ATOM     18  C   UNL     1      10.920   2.797   2.455  0.00  0.00    +0.016 C 
ATOM     19  C   UNL     1      12.084   2.841   1.463  0.00  0.00    +0.012 C 
BRANCH  18  21
ATOM     20  C   UNL     1      11.286   0.373   2.939  0.00  0.00    +0.004 C 
ATOM     21  C   UNL     1      10.280   1.407   2.430  0.00  0.00    +0.004 C 
ENDBRANCH  18  21
ENDBRANCH  12  18
ENDBRANCH   1  15
BRANCH  11  22
ATOM     22  S   UNL     1       5.283   4.978   2.113  0.00  0.00    -0.075 S 
BRANCH  22  23
ATOM     23  C   UNL     1       3.493   5.216   2.243  0.00  0.00    +0.137 C 
ATOM     24  C   UNL     1       2.878   5.238   0.842  0.00  0.00    +0.029 C 
BRANCH  23  25
ATOM     25  C   UNL     1       2.892   4.085   3.038  0.00  0.00    +0.233 C 
ATOM     26  O   UNL     1       3.499   3.043   3.163  0.00  0.00    -0.274 OA
ATOM     27  N   UNL     1       1.680   4.233   3.609  0.00  0.00    -0.253 N 
ATOM     28  H   UNL     1       1.195   5.066   3.508  0.00  0.00    +0.158 HD
BRANCH  27  29
ATOM     29  C   UNL     1       1.127   3.192   4.340  0.00  0.00    +0.224 A 
ATOM     30  C   UNL     1      -0.082   3.188   4.974  0.00  0.00    +0.092 A 
ATOM     31  C   UNL     1      -0.155   1.907   5.557  0.00  0.00    +0.082 A 
ATOM     32  N   UNL     1       0.950   1.292   5.241  0.00  0.00    -0.081 NA
ATOM     33  O   UNL     1       1.674   1.987   4.567  0.00  0.00    -0.339 OA
ATOM     34  C   UNL     1      -1.288   1.355   6.383  0.00  0.00    +0.069 C 
ENDBRANCH  27  29
ENDBRANCH  23  25
ENDBRANCH  22  23
ENDBRANCH  11  22
TORSDOF 7
