REMARK  Name = ZINC40287612
REMARK  5 active torsions:
REMARK  status: ('A' for Active; 'I' for Inactive)
REMARK    1  A    between atoms: N_10  and  C_11
REMARK    2  A    between atoms: C_11  and  C_13
REMARK    3  A    between atoms: C_13  and  C_14
REMARK    4  A    between atoms: C_14  and  C_15
REMARK    5  A    between atoms: N_20  and  C_23
REMARK                            x       y       z     vdW  Elec       q    Type
REMARK                         _______ _______ _______ _____ _____    ______ ____
ROOT
ATOM      1  C   UNL     1       6.389  -5.581  -0.070  0.00  0.00    +0.105 C 
ENDROOT
BRANCH   1   2
ATOM      2  C   UNL     1       6.838  -7.019  -0.101  0.00  0.00    +0.216 C 
ATOM      3  O   UNL     1       6.016  -7.911  -0.114  0.00  0.00    -0.276 OA
ATOM      4  N   UNL     1       8.152  -7.314  -0.115  0.00  0.00    -0.298 N 
ATOM      5  C   UNL     1       9.160  -6.245  -0.095  0.00  0.00    +0.126 C 
ATOM      6  C   UNL     1      10.105  -6.484   1.089  0.00  0.00    +0.124 C 
ATOM      7  N   UNL     1      10.557  -7.882   1.053  0.00  0.00    -0.327 N 
ATOM      8  C   UNL     1       9.550  -8.952   1.032  0.00  0.00    +0.124 C 
ATOM      9  C   UNL     1       8.605  -8.713  -0.145  0.00  0.00    +0.126 C 
BRANCH   7  10
ATOM     10  C   UNL     1      11.921  -8.188   1.039  0.00  0.00    +0.030 A 
ATOM     11  C   UNL     1      12.338  -9.511   1.121  0.00  0.00    +0.026 A 
ATOM     12  C   UNL     1      13.686  -9.811   1.106  0.00  0.00    +0.040 A 
ATOM     13  C   UNL     1      14.622  -8.795   1.009  0.00  0.00    +0.124 A 
ATOM     14  C   UNL     1      14.209  -7.476   0.927  0.00  0.00    +0.040 A 
ATOM     15  C   UNL     1      12.862  -7.171   0.936  0.00  0.00    +0.026 A 
ATOM     16  F   UNL     1      15.940  -9.091   0.995  0.00  0.00    -0.205 F 
ENDBRANCH   7  10
ENDBRANCH   1   2
BRANCH   1  17
ATOM     17  C   UNL     1       4.860  -5.524  -0.060  0.00  0.00    +0.107 C 
BRANCH  17  18
ATOM     18  C   UNL     1       4.411  -4.086  -0.029  0.00  0.00    +0.239 C 
ATOM     19  O   UNL     1       5.235  -3.192  -0.016  0.00  0.00    -0.274 OA
BRANCH  18  29
ATOM     20  C   UNL     1      -0.012   1.387   0.105  0.00  0.00    +0.002 A 
ATOM     21  C   UNL     1       1.163   2.120   0.112  0.00  0.00    +0.001 A 
ATOM     22  C   UNL     1       2.377   1.455   0.091  0.00  0.00    +0.017 A 
ATOM     23  C   UNL     1       2.397   0.081   0.065  0.00  0.00    +0.039 A 
ATOM     24  C   UNL     1       1.222  -0.686   0.057  0.00  0.00    +0.055 A 
ATOM     25  C   UNL     1       0.006   0.011   0.079  0.00  0.00    +0.027 A 
ATOM     26  N   UNL     1       1.447  -2.049   0.030  0.00  0.00    -0.335 N 
ATOM     27  H   UNL     1       0.697  -2.665   0.022  0.00  0.00    +0.168 HD
ATOM     28  C   UNL     1       2.718  -2.524   0.013  0.00  0.00    +0.164 A 
ATOM     29  N   UNL     1       3.114  -3.795  -0.015  0.00  0.00    -0.157 NA
ATOM     30  S   UNL     1       3.678  -1.145   0.033  0.00  0.00    -0.052 S 
ENDBRANCH  18  29
ENDBRANCH  17  18
ENDBRANCH   1  17
TORSDOF 5
