REMARK  Name = ZINC37058928
REMARK  3 active torsions:
REMARK  status: ('A' for Active; 'I' for Inactive)
REMARK    1  A    between atoms: C_4  and  N_20
REMARK    2  A    between atoms: C_5  and  N_7
REMARK    3  A    between atoms: N_7  and  C_8
REMARK                            x       y       z     vdW  Elec       q    Type
REMARK                         _______ _______ _______ _____ _____    ______ ____
ROOT
ATOM      1  C   UNL     1      -0.013  -2.764   0.688  0.00  0.00    +0.190 C 
ATOM      2  C   UNL     1       0.192  -4.233   0.400  0.00  0.00    +0.003 A 
ATOM      3  C   UNL     1       0.590  -4.920  -0.725  0.00  0.00    +0.009 A 
ATOM      4  C   UNL     1       0.690  -6.300  -0.692  0.00  0.00    +0.016 A 
ATOM      5  C   UNL     1       0.388  -6.984   0.473  0.00  0.00    +0.020 A 
ATOM      6  C   UNL     1      -0.011  -6.297   1.602  0.00  0.00    +0.039 A 
ATOM      7  C   UNL     1      -0.113  -4.908   1.575  0.00  0.00    +0.040 A 
ATOM      8  N   UNL     1      -0.489  -4.002   2.568  0.00  0.00    -0.283 N 
ATOM      9  C   UNL     1      -0.460  -2.727   2.134  0.00  0.00    +0.242 C 
ATOM     10  O   UNL     1      -0.737  -1.738   2.777  0.00  0.00    -0.273 OA
ATOM     11 BR   UNL     1       0.524  -8.870   0.518  0.00  0.00    -0.050 Br
ATOM     12  H   UNL     1      -0.743  -4.260   3.468  0.00  0.00    +0.155 HD
ENDROOT
BRANCH   1  13
ATOM     13  N   UNL     1       1.242  -2.027   0.519  0.00  0.00    -0.328 N 
ATOM     14  H   UNL     1       2.090  -2.492   0.590  0.00  0.00    +0.147 HD
BRANCH  13  19
ATOM     15  C   UNL     1      -0.009   1.391   0.013  0.00  0.00    +0.002 A 
ATOM     16  C   UNL     1       1.169   2.061  -0.266  0.00  0.00    +0.002 A 
ATOM     17  C   UNL     1       2.370   1.377  -0.285  0.00  0.00    +0.034 A 
ATOM     18  C   UNL     1       2.398   0.020  -0.025  0.00  0.00    +0.147 A 
ATOM     19  C   UNL     1       1.217  -0.656   0.256  0.00  0.00    +0.059 A 
ATOM     20  C   UNL     1       0.012   0.035   0.274  0.00  0.00    +0.025 A 
BRANCH  18  21
ATOM     21  N   UNL     1       3.684  -0.712  -0.046  0.00  0.00    +0.058 N 
ATOM     22  O   UNL     1       4.686  -0.185   0.378  0.00  0.00    -0.126 OA
ATOM     23  O   UNL     1       3.732  -1.837  -0.487  0.00  0.00    -0.126 OA
ENDBRANCH  18  21
ENDBRANCH  13  19
ENDBRANCH   1  13
TORSDOF 3
