REMARK  Name = ZINC32125264
REMARK  9 active torsions:
REMARK  status: ('A' for Active; 'I' for Inactive)
REMARK    1  A    between atoms: C_1  and  C_2
REMARK    2  A    between atoms: C_6  and  C_10
REMARK    3  A    between atoms: C_7  and  O_8
REMARK    4  A    between atoms: O_8  and  C_9
REMARK    5  A    between atoms: N_12  and  C_13
REMARK    6  A    between atoms: C_13  and  N_15
REMARK    7  A    between atoms: N_15  and  C_16
REMARK    8  A    between atoms: C_21  and  N_22
REMARK    9  A    between atoms: C_28  and  C_30
REMARK                            x       y       z     vdW  Elec       q    Type
REMARK                         _______ _______ _______ _____ _____    ______ ____
ROOT
ATOM      1  C   UNL     1      -1.189   2.893   0.935  0.00  0.00    +0.054 A 
ATOM      2  C   UNL     1      -1.721   4.005   1.570  0.00  0.00    +0.025 A 
ATOM      3  C   UNL     1      -3.041   4.001   1.980  0.00  0.00    +0.002 A 
ATOM      4  C   UNL     1      -3.835   2.891   1.759  0.00  0.00    +0.002 A 
ATOM      5  C   UNL     1      -3.314   1.780   1.121  0.00  0.00    +0.025 A 
ATOM      6  C   UNL     1      -1.989   1.772   0.712  0.00  0.00    +0.051 A 
ENDROOT
BRANCH   6   7
ATOM      7  N   UNL     1      -1.458   0.647   0.073  0.00  0.00    -0.325 N 
ATOM      8  C   UNL     1      -2.125   0.410  -1.215  0.00  0.00    +0.124 C 
ATOM      9  C   UNL     1      -1.399  -0.713  -1.963  0.00  0.00    +0.127 C 
ATOM     10  N   UNL     1      -1.318  -1.887  -1.080  0.00  0.00    -0.295 N 
ATOM     11  C   UNL     1      -0.787  -1.699   0.279  0.00  0.00    +0.127 C 
ATOM     12  C   UNL     1      -1.537  -0.537   0.939  0.00  0.00    +0.124 C 
ATOM     13  C   UNL     1      -1.720  -3.101  -1.504  0.00  0.00    +0.247 C 
ATOM     14  O   UNL     1      -1.660  -4.057  -0.755  0.00  0.00    -0.270 OA
BRANCH  13  15
ATOM     15  C   UNL     1      -2.232  -3.271  -2.881  0.00  0.00    +0.037 A 
ATOM     16  C   UNL     1      -1.773  -2.444  -3.906  0.00  0.00    +0.013 A 
ATOM     17  C   UNL     1      -2.252  -2.611  -5.190  0.00  0.00    +0.001 A 
ATOM     18  C   UNL     1      -3.193  -3.589  -5.458  0.00  0.00    +0.000 A 
ATOM     19  C   UNL     1      -3.656  -4.408  -4.445  0.00  0.00    +0.001 A 
ATOM     20  C   UNL     1      -3.182  -4.255  -3.158  0.00  0.00    +0.013 A 
ENDBRANCH  13  15
ENDBRANCH   6   7
BRANCH   1  21
ATOM     21  N   UNL     1       0.149   2.894   0.519  0.00  0.00    -0.295 N 
ATOM     22  H   UNL     1       0.758   1.984   0.621  0.00  0.00    +0.154 HD
BRANCH  21  23
ATOM     23  C   UNL     1       0.690   4.011  -0.007  0.00  0.00    +0.141 C 
ATOM     24  S   UNL     1      -0.280   5.402  -0.244  0.00  0.00    -0.018 S 
BRANCH  23  27
ATOM     25  C   UNL     1       2.535   5.150  -0.872  0.00  0.00    +0.253 C 
ATOM     26  O   UNL     1       1.847   6.137  -1.040  0.00  0.00    -0.270 OA
ATOM     27  N   UNL     1       1.994   4.033  -0.346  0.00  0.00    -0.263 N 
ATOM     28  H   UNL     1       2.618   3.139  -0.194  0.00  0.00    +0.157 HD
BRANCH  25  34
ATOM     29  C   UNL     1       6.486   7.588  -2.727  0.00  0.00    +0.047 C 
ATOM     30  C   UNL     1       5.871   6.345  -2.137  0.00  0.00    -0.008 A 
ATOM     31  C   UNL     1       6.646   5.218  -1.942  0.00  0.00    +0.007 A 
ATOM     32  C   UNL     1       6.090   4.070  -1.401  0.00  0.00    +0.001 A 
ATOM     33  C   UNL     1       4.757   4.041  -1.052  0.00  0.00    +0.017 A 
ATOM     34  C   UNL     1       3.962   5.174  -1.243  0.00  0.00    +0.079 A 
ATOM     35  C   UNL     1       4.527   6.332  -1.796  0.00  0.00    +0.135 A 
BRANCH  35  36
ATOM     36  O   UNL     1       3.764   7.436  -1.992  0.00  0.00    -0.494 OA
ATOM     37  C   UNL     1       3.696   8.377  -0.918  0.00  0.00    +0.277 C 
ENDBRANCH  35  36
ENDBRANCH  25  34
ENDBRANCH  23  27
ENDBRANCH  21  23
ENDBRANCH   1  21
TORSDOF 7
