REMARK  Name = ZINC09954329
REMARK  9 active torsions:
REMARK  status: ('A' for Active; 'I' for Inactive)
REMARK    1  A    between atoms: C_1  and  N_52
REMARK    2  A    between atoms: C_2  and  N_52
REMARK    3  A    between atoms: C_3  and  C_5
REMARK    4  A    between atoms: C_3  and  C_25
REMARK    5  A    between atoms: C_3  and  N_52
REMARK    6  A    between atoms: C_5  and  N_6
REMARK    7  A    between atoms: C_7  and  C_9
REMARK    8  A    between atoms: C_9  and  N_10
REMARK    9  A    between atoms: C_17  and  C_20
REMARK                            x       y       z     vdW  Elec       q    Type
REMARK                         _______ _______ _______ _____ _____    ______ ____
ROOT
ATOM      1  N   UNL     1      -5.288  -1.498   1.254  0.00  0.00    -0.315 N 
ATOM      2  C   UNL     1      -4.071  -1.198   0.762  0.00  0.00    +0.233 C 
ATOM      3  O   UNL     1      -3.084  -1.347   1.451  0.00  0.00    -0.274 OA
ATOM      4  H   UNL     1      -6.078  -1.379   0.703  0.00  0.00    +0.149 HD
ENDROOT
BRANCH   1   5
ATOM      5  C   UNL     1      -5.420  -2.005   2.623  0.00  0.00    +0.093 C 
BRANCH   5   6
ATOM      6  C   UNL     1      -6.896  -2.264   2.930  0.00  0.00    -0.021 C 
BRANCH   6   7
ATOM      7  C   UNL     1      -7.045  -2.667   4.375  0.00  0.00    -0.059 A 
ATOM      8  C   UNL     1      -7.778  -3.792   4.707  0.00  0.00    +0.002 A 
ATOM      9  C   UNL     1      -7.910  -4.164   6.031  0.00  0.00    +0.000 A 
ATOM     10  C   UNL     1      -7.318  -3.407   7.025  0.00  0.00    +0.000 A 
ATOM     11  C   UNL     1      -6.590  -2.280   6.693  0.00  0.00    +0.000 A 
ATOM     12  C   UNL     1      -6.454  -1.910   5.368  0.00  0.00    +0.002 A 
ENDBRANCH   6   7
BRANCH   6  15
ATOM     13  C   UNL     1      -9.112  -1.297   2.805  0.00  0.00    -0.096 C 
ATOM     14  C   UNL     1      -7.249   0.042   3.580  0.00  0.00    -0.096 C 
ATOM     15  N   UNL     1      -7.666  -1.033   2.654  0.00  0.00    +0.382 N 
ATOM     16  H   UNL     1      -7.481  -0.733   1.690  0.00  0.00    -0.082 HD
ENDBRANCH   6  15
ENDBRANCH   5   6
ENDBRANCH   1   5
BRANCH   2  17
ATOM     17  C   UNL     1      -3.935  -0.677  -0.646  0.00  0.00    +0.221 C 
BRANCH  17  18
ATOM     18  N   UNL     1      -2.521  -0.428  -0.941  0.00  0.00    -0.290 N 
ATOM     19  C   UNL     1      -1.991   0.793  -0.674  0.00  0.00    +0.203 A 
ATOM     20  N   UNL     1      -0.734   1.051  -0.919  0.00  0.00    -0.230 NA
ATOM     21  C   UNL     1       0.065   0.127  -1.445  0.00  0.00    +0.116 A 
ATOM     22  C   UNL     1      -0.394  -1.164  -1.753  0.00  0.00    +0.080 A 
ATOM     23  C   UNL     1      -1.774  -1.415  -1.469  0.00  0.00    +0.263 A 
ATOM     24  O   UNL     1      -2.265  -2.506  -1.702  0.00  0.00    -0.267 OA
ATOM     25  C   UNL     1       0.609  -2.059  -2.319  0.00  0.00    +0.010 A 
ATOM     26  C   UNL     1       1.870  -1.592  -2.499  0.00  0.00    +0.057 A 
ATOM     27  S   UNL     1       1.776   0.088  -1.914  0.00  0.00    -0.076 S 
BRANCH  25  28
ATOM     28  C   UNL     1       0.259  -3.446  -2.689  0.00  0.00    +0.021 A 
ATOM     29  C   UNL     1       0.492  -4.112  -3.862  0.00  0.00    +0.016 A 
ATOM     30  C   UNL     1       0.071  -5.420  -3.977  0.00  0.00    +0.008 A 
ATOM     31  C   UNL     1      -0.568  -6.003  -2.932  0.00  0.00    +0.046 A 
ATOM     32  S   UNL     1      -0.587  -4.688  -1.724  0.00  0.00    -0.097 S 
ENDBRANCH  25  28
ENDBRANCH  17  18
ENDBRANCH   2  17
TORSDOF 7
