REMARK  Name = ZINC02849456
REMARK  5 active torsions:
REMARK  status: ('A' for Active; 'I' for Inactive)
REMARK    1  A    between atoms: C_1  and  C_2
REMARK    2  A    between atoms: C_2  and  O_3
REMARK    3  A    between atoms: O_3  and  C_4
REMARK    4  A    between atoms: C_6  and  C_12
REMARK    5  A    between atoms: C_9  and  O_10
REMARK                            x       y       z     vdW  Elec       q    Type
REMARK                         _______ _______ _______ _____ _____    ______ ____
ROOT
ATOM      1  C   UNL     1       0.621  -4.950  -0.019  0.00  0.00    +0.142 A 
ATOM      2  N   UNL     1       0.444  -6.307  -0.029  0.00  0.00    -0.306 N 
ATOM      3  H   UNL     1      -0.455  -6.670  -0.031  0.00  0.00    +0.170 HD
ATOM      4  C   UNL     1       1.496  -7.147  -0.038  0.00  0.00    +0.260 A 
ATOM      5  O   UNL     1       1.323  -8.353  -0.049  0.00  0.00    -0.267 OA
ATOM      6  C   UNL     1       2.821  -6.602  -0.037  0.00  0.00    +0.075 A 
ATOM      7  C   UNL     1       4.096  -7.319  -0.044  0.00  0.00    -0.023 A 
ATOM      8  C   UNL     1       5.220  -6.572  -0.041  0.00  0.00    -0.004 A 
ATOM      9  S   UNL     1       4.655  -4.892  -0.028  0.00  0.00    -0.073 S 
ATOM     10  C   UNL     1       2.907  -5.199  -0.026  0.00  0.00    +0.116 A 
ATOM     11  N   UNL     1       1.829  -4.426  -0.023  0.00  0.00    -0.222 NA
ATOM     12  C   UNL     1       6.636  -7.062  -0.046  0.00  0.00    +0.043 C 
ATOM     13  C   UNL     1       6.633  -8.553   0.321  0.00  0.00    +0.005 C 
ATOM     14  C   UNL     1       5.568  -9.263  -0.520  0.00  0.00    +0.005 C 
ATOM     15  C   UNL     1       4.173  -8.844  -0.056  0.00  0.00    +0.037 C 
ENDROOT
BRANCH   1  18
ATOM     16  C   UNL     1      -1.498  -1.849   0.006  0.00  0.00    +0.163 A 
ATOM     17  C   UNL     1      -0.391  -2.676  -0.003  0.00  0.00    +0.061 A 
ATOM     18  C   UNL     1      -0.559  -4.063  -0.008  0.00  0.00    +0.022 A 
ATOM     19  C   UNL     1      -1.845  -4.608  -0.004  0.00  0.00    +0.029 A 
ATOM     20  C   UNL     1      -2.946  -3.777   0.005  0.00  0.00    +0.059 A 
ATOM     21  C   UNL     1      -2.779  -2.399   0.016  0.00  0.00    +0.172 A 
ATOM     22  I   UNL     1      -4.874  -4.597   0.011  0.00  0.00    -0.040 I 
BRANCH  21  23
ATOM     23  O   UNL     1      -3.866  -1.585   0.030  0.00  0.00    -0.503 OA
ATOM     24  H   UNL     1      -4.189  -1.344  -0.849  0.00  0.00    +0.292 HD
ENDBRANCH  21  23
BRANCH  16  25
ATOM     25  O   UNL     1      -1.339  -0.499   0.012  0.00  0.00    -0.489 OA
BRANCH  25  27
ATOM     26  C   UNL     1      -0.019   1.526   0.010  0.00  0.00    +0.048 C 
ATOM     27  C   UNL     1       0.002  -0.004   0.002  0.00  0.00    +0.226 C 
ENDBRANCH  25  27
ENDBRANCH  16  25
ENDBRANCH   1  18
TORSDOF 4
