REMARK  Name = ZINC40361291
REMARK  11 active torsions:
REMARK  status: ('A' for Active; 'I' for Inactive)
REMARK    1  A    between atoms: C_1  and  C_2
REMARK    2  A    between atoms: C_2  and  C_3
REMARK    3  A    between atoms: C_3  and  C_5
REMARK    4  A    between atoms: C_3  and  C_6
REMARK    5  A    between atoms: C_6  and  C_8
REMARK    6  A    between atoms: C_6  and  N_24
REMARK    7  A    between atoms: C_16  and  C_18
REMARK    8  A    between atoms: N_27  and  C_28
REMARK    9  A    between atoms: C_28  and  C_29
REMARK   10  A    between atoms: C_28  and  C_30
REMARK   11  A    between atoms: C_28  and  C_31
REMARK                            x       y       z     vdW  Elec       q    Type
REMARK                         _______ _______ _______ _____ _____    ______ ____
ROOT
ATOM      1  C   UNL     1       3.124   1.078   0.260  0.00  0.00    +0.236 C 
ATOM      2  O   UNL     1       3.954   1.476   1.050  0.00  0.00    -0.274 OA
ATOM      3  N   UNL     1       2.458   1.956  -0.515  0.00  0.00    -0.297 N 
ATOM      4  C   UNL     1       1.368   1.502  -1.391  0.00  0.00    +0.127 C 
ATOM      5  C   UNL     1       0.107   2.312  -1.064  0.00  0.00    +0.126 C 
ATOM      6  N   UNL     1       0.456   3.739  -1.049  0.00  0.00    -0.298 N 
ATOM      7  C   UNL     1       1.546   4.193  -0.173  0.00  0.00    +0.126 C 
ATOM      8  C   UNL     1       2.803   3.384  -0.496  0.00  0.00    +0.127 C 
ATOM      9  C   UNL     1      -0.211   4.617  -1.824  0.00  0.00    +0.219 C 
ATOM     10  O   UNL     1      -1.172   4.250  -2.466  0.00  0.00    -0.275 OA
ENDROOT
BRANCH   9  11
ATOM     11  C   UNL     1       0.238   6.054  -1.894  0.00  0.00    +0.075 C 
ATOM     12  C   UNL     1      -0.014   6.732  -0.546  0.00  0.00    +0.013 C 
ATOM     13  C   UNL     1       0.441   8.191  -0.616  0.00  0.00    +0.001 C 
ATOM     14  C   UNL     1      -0.345   8.919  -1.709  0.00  0.00    +0.000 C 
ATOM     15  C   UNL     1      -0.093   8.240  -3.057  0.00  0.00    +0.001 C 
ATOM     16  C   UNL     1      -0.548   6.781  -2.986  0.00  0.00    +0.013 C 
ENDBRANCH   9  11
BRANCH   1  17
ATOM     17  C   UNL     1       2.839  -0.397   0.146  0.00  0.00    +0.163 C 
BRANCH  17  18
ATOM     18  N   UNL     1       4.013  -1.157   0.582  0.00  0.00    -0.288 N 
ATOM     19  C   UNL     1       4.214  -2.408   0.123  0.00  0.00    +0.301 C 
ATOM     20  O   UNL     1       3.420  -2.907  -0.651  0.00  0.00    -0.253 OA
ATOM     21  N   UNL     1       5.294  -3.107   0.524  0.00  0.00    -0.295 N 
ATOM     22  H   UNL     1       4.647  -0.759   1.199  0.00  0.00    +0.151 HD
ATOM     23  H   UNL     1       5.928  -2.710   1.142  0.00  0.00    +0.151 HD
BRANCH  21  24
ATOM     24  C   UNL     1       5.512  -4.468   0.026  0.00  0.00    +0.028 C 
ATOM     25  C   UNL     1       5.635  -4.440  -1.499  0.00  0.00    +0.031 C 
ATOM     26  C   UNL     1       6.800  -5.032   0.631  0.00  0.00    +0.031 C 
ATOM     27  C   UNL     1       4.330  -5.353   0.426  0.00  0.00    +0.031 C 
ENDBRANCH  21  24
ENDBRANCH  17  18
BRANCH  17  28
ATOM     28  C   UNL     1       1.643  -0.755   1.031  0.00  0.00    +0.015 C 
ATOM     29  C   UNL     1       2.016  -0.548   2.500  0.00  0.00    +0.010 C 
BRANCH  28  31
ATOM     30  C   UNL     1       0.766  -2.398  -0.634  0.00  0.00    +0.004 C 
ATOM     31  C   UNL     1       1.260  -2.219   0.803  0.00  0.00    +0.002 C 
ENDBRANCH  28  31
ENDBRANCH  17  28
ENDBRANCH   1  17
TORSDOF 6
