REMARK  Name = ZINC24140224
REMARK  13 active torsions:
REMARK  status: ('A' for Active; 'I' for Inactive)
REMARK    1  A    between atoms: C_1  and  C_2
REMARK    2  A    between atoms: C_2  and  N_3
REMARK    3  A    between atoms: N_3  and  C_4
REMARK    4  A    between atoms: N_3  and  C_6
REMARK    5  A    between atoms: C_4  and  C_5
REMARK    6  A    between atoms: C_6  and  C_7
REMARK    7  A    between atoms: C_10  and  C_13
REMARK    8  A    between atoms: C_13  and  N_14
REMARK    9  A    between atoms: C_15  and  C_17
REMARK   10  A    between atoms: C_21  and  S_23
REMARK   11  A    between atoms: S_23  and  N_26
REMARK   12  A    between atoms: C_28  and  C_35
REMARK   13  A    between atoms: C_31  and  C_34
REMARK                            x       y       z     vdW  Elec       q    Type
REMARK                         _______ _______ _______ _____ _____    ______ ____
ROOT
ATOM      1  N   UNL     1       1.555  -1.573   6.134  0.00  0.00    -0.307 N 
ATOM      2  C   UNL     1       2.176  -1.546   7.330  0.00  0.00    +0.244 C 
ATOM      3  O   UNL     1       2.349  -2.577   7.948  0.00  0.00    -0.270 OA
ATOM      4  H   UNL     1       1.417  -0.750   5.640  0.00  0.00    +0.149 HD
ENDROOT
BRANCH   2   5
ATOM      5  C   UNL     1       2.645  -0.260   7.889  0.00  0.00    +0.039 A 
ATOM      6  C   UNL     1       2.442   0.927   7.184  0.00  0.00    +0.013 A 
ATOM      7  C   UNL     1       2.883   2.123   7.712  0.00  0.00    +0.003 A 
ATOM      8  C   UNL     1       3.525   2.147   8.938  0.00  0.00    +0.028 A 
ATOM      9  C   UNL     1       3.729   0.974   9.642  0.00  0.00    +0.106 A 
ATOM     10  C   UNL     1       3.288  -0.228   9.127  0.00  0.00    +0.041 A 
BRANCH   9  11
ATOM     11  S   UNL     1       4.548   1.016  11.201  0.00  0.00    +0.061 S 
ATOM     12  O   UNL     1       5.100  -0.277  11.405  0.00  0.00    -0.153 OA
ATOM     13  O   UNL     1       5.342   2.194  11.211  0.00  0.00    -0.153 OA
BRANCH  11  14
ATOM     14  N   UNL     1       3.383   1.221  12.360  0.00  0.00    -0.172 NA
ATOM     15  C   UNL     1       2.969   2.567  12.788  0.00  0.00    +0.140 C 
ATOM     16  C   UNL     1       3.021   2.625  14.319  0.00  0.00    +0.131 C 
ATOM     17  O   UNL     1       2.276   1.530  14.858  0.00  0.00    -0.371 OA
ATOM     18  C   UNL     1       2.795   0.243  14.514  0.00  0.00    +0.131 C 
ATOM     19  C   UNL     1       2.727   0.063  12.989  0.00  0.00    +0.140 C 
ATOM     20  C   UNL     1       1.960  -0.843  15.194  0.00  0.00    +0.039 C 
ATOM     21  C   UNL     1       2.414   3.944  14.802  0.00  0.00    +0.039 C 
ENDBRANCH  11  14
ENDBRANCH   9  11
ENDBRANCH   2   5
BRANCH   1  22
ATOM     22  C   UNL     1       1.090  -2.847   5.579  0.00  0.00    +0.139 C 
BRANCH  22  26
ATOM     23  C   UNL     1      -0.765  -2.161   1.793  0.00  0.00    -0.064 A 
ATOM     24  C   UNL     1       0.591  -2.420   1.861  0.00  0.00    +0.002 A 
ATOM     25  C   UNL     1       1.191  -2.642   3.087  0.00  0.00    +0.005 A 
ATOM     26  C   UNL     1       0.435  -2.604   4.243  0.00  0.00    -0.030 A 
ATOM     27  C   UNL     1      -0.921  -2.344   4.175  0.00  0.00    +0.005 A 
ATOM     28  C   UNL     1      -1.520  -2.118   2.950  0.00  0.00    +0.002 A 
BRANCH  23  29
ATOM     29  C   UNL     1      -1.420  -1.919   0.457  0.00  0.00    -0.043 C 
BRANCH  29  30
ATOM     30  N   UNL     1      -1.374  -0.485   0.142  0.00  0.00    +0.382 N 
ATOM     31  H   UNL     1      -1.793   0.039   0.896  0.00  0.00    -0.081 HD
BRANCH  30  33
ATOM     32  C   UNL     1       0.081   1.451  -0.219  0.00  0.00    -0.017 C 
ATOM     33  C   UNL     1       0.024  -0.066  -0.029  0.00  0.00    -0.082 C 
ENDBRANCH  30  33
BRANCH  30  34
ATOM     34  C   UNL     1      -2.116  -0.233  -1.101  0.00  0.00    -0.082 C 
ATOM     35  C   UNL     1      -3.600  -0.533  -0.879  0.00  0.00    -0.017 C 
ENDBRANCH  30  34
ENDBRANCH  29  30
ENDBRANCH  23  29
ENDBRANCH  22  26
ENDBRANCH   1  22
TORSDOF 9
