REMARK  Name = ZINC14460912
REMARK  4 active torsions:
REMARK  status: ('A' for Active; 'I' for Inactive)
REMARK    1  A    between atoms: C_6  and  S_7
REMARK    2  A    between atoms: S_7  and  N_10
REMARK    3  A    between atoms: C_23  and  C_26
REMARK    4  A    between atoms: C_31  and  O_32
REMARK                            x       y       z     vdW  Elec       q    Type
REMARK                         _______ _______ _______ _____ _____    ______ ____
ROOT
ATOM      1  C   UNL     1      -3.300   5.678   3.226  0.00  0.00    +0.030 A 
ATOM      2  C   UNL     1      -1.990   5.336   3.498  0.00  0.00    +0.025 A 
ATOM      3  C   UNL     1      -1.247   4.629   2.562  0.00  0.00    +0.031 A 
ATOM      4  C   UNL     1      -1.810   4.264   1.348  0.00  0.00    -0.018 A 
ATOM      5  C   UNL     1      -3.127   4.614   1.085  0.00  0.00    +0.034 A 
ATOM      6  C   UNL     1      -3.865   5.315   2.017  0.00  0.00    +0.106 A 
ATOM      7  C   UNL     1      -1.048   3.505   0.308  0.00  0.00    +0.049 C 
ATOM      8  C   UNL     1      -1.485   2.061   0.245  0.00  0.00    -0.023 C 
ATOM      9  C   UNL     1      -0.457   1.285   0.004  0.00  0.00    -0.030 C 
ATOM     10  C   UNL     1       0.808   2.109  -0.142  0.00  0.00    +0.033 C 
ATOM     11  C   UNL     1       0.463   3.434   0.601  0.00  0.00    +0.029 C 
ATOM     12  C   UNL     1       0.696   3.193   2.095  0.00  0.00    +0.108 C 
ATOM     13  N   UNL     1       0.078   4.286   2.854  0.00  0.00    -0.336 N 
ATOM     14  H   UNL     1       0.574   4.758   3.540  0.00  0.00    +0.147 HD
ENDROOT
BRANCH  12  15
ATOM     15  C   UNL     1       0.074   1.881   2.498  0.00  0.00    +0.015 A 
ATOM     16  C   UNL     1      -1.241   1.839   2.918  0.00  0.00    +0.024 A 
ATOM     17  C   UNL     1      -1.812   0.635   3.288  0.00  0.00    +0.018 A 
ATOM     18  C   UNL     1      -1.068  -0.530   3.238  0.00  0.00    +0.019 A 
ATOM     19  C   UNL     1       0.248  -0.493   2.819  0.00  0.00    +0.047 A 
ATOM     20  C   UNL     1       0.821   0.713   2.442  0.00  0.00    +0.122 A 
ATOM     21 BR   UNL     1      -3.613   0.581   3.862  0.00  0.00    -0.050 Br
BRANCH  20  22
ATOM     22  O   UNL     1       2.113   0.751   2.023  0.00  0.00    -0.506 OA
ATOM     23  H   UNL     1       2.753   0.892   2.735  0.00  0.00    +0.292 HD
ENDBRANCH  20  22
ENDBRANCH  12  15
BRANCH   6  24
ATOM     24  S   UNL     1      -5.536   5.749   1.665  0.00  0.00    +0.061 S 
ATOM     25  O   UNL     1      -5.841   6.877   2.474  0.00  0.00    -0.153 OA
ATOM     26  O   UNL     1      -5.661   5.771   0.250  0.00  0.00    -0.153 OA
BRANCH  24  27
ATOM     27  N   UNL     1      -6.489   4.508   2.206  0.00  0.00    -0.177 NA
ATOM     28  C   UNL     1      -6.833   3.388   1.319  0.00  0.00    +0.109 C 
ATOM     29  C   UNL     1      -6.449   2.075   2.019  0.00  0.00    +0.017 C 
ATOM     30  C   UNL     1      -7.123   2.019   3.392  0.00  0.00    +0.003 C 
ATOM     31  C   UNL     1      -6.630   3.185   4.252  0.00  0.00    +0.017 C 
ATOM     32  C   UNL     1      -7.011   4.508   3.579  0.00  0.00    +0.109 C 
ENDBRANCH  24  27
ENDBRANCH   6  24
TORSDOF 4
