REMARK  Name = ZINC08800253
REMARK  8 active torsions:
REMARK  status: ('A' for Active; 'I' for Inactive)
REMARK    1  A    between atoms: C_1  and  C_2
REMARK    2  A    between atoms: C_7  and  S_8
REMARK    3  A    between atoms: S_8  and  N_11
REMARK    4  A    between atoms: N_11  and  C_12
REMARK    5  A    between atoms: C_12  and  C_13
REMARK    6  A    between atoms: C_13  and  C_15
REMARK    7  A    between atoms: C_13  and  N_63
REMARK    8  A    between atoms: N_24  and  C_25
REMARK                            x       y       z     vdW  Elec       q    Type
REMARK                         _______ _______ _______ _____ _____    ______ ____
ROOT
ATOM      1  C   UNL     1       6.225   1.842  -3.402  0.00  0.00    -0.022 C 
ENDROOT
BRANCH   1   2
ATOM      2  C   UNL     1       6.288   3.324  -3.138  0.00  0.00    -0.059 A 
ATOM      3  C   UNL     1       6.074   3.810  -1.860  0.00  0.00    +0.004 A 
ATOM      4  C   UNL     1       6.136   5.165  -1.620  0.00  0.00    +0.023 A 
ATOM      5  C   UNL     1       6.402   6.056  -2.661  0.00  0.00    +0.033 A 
ATOM      6  C   UNL     1       6.614   5.565  -3.938  0.00  0.00    -0.026 A 
ATOM      7  C   UNL     1       6.555   4.200  -4.171  0.00  0.00    +0.007 A 
ATOM      8  C   UNL     1       6.916   6.473  -5.103  0.00  0.00    +0.038 C 
ATOM      9  C   UNL     1       6.563   7.916  -4.737  0.00  0.00    +0.024 C 
ATOM     10  C   UNL     1       7.157   8.211  -3.354  0.00  0.00    +0.105 C 
ATOM     11  N   UNL     1       6.437   7.416  -2.356  0.00  0.00    -0.333 N 
ATOM     12  C   UNL     1       6.982   7.640  -1.011  0.00  0.00    +0.129 C 
ENDBRANCH   1   2
BRANCH   1  18
ATOM     13  C   UNL     1       7.597   1.571  -1.426  0.00  0.00    -0.078 C 
ATOM     14  C   UNL     1       8.752   0.766  -0.827  0.00  0.00    -0.019 C 
ATOM     15  C   UNL     1      10.030   1.046  -1.622  0.00  0.00    -0.004 C 
ATOM     16  C   UNL     1       9.795   0.687  -3.092  0.00  0.00    -0.019 C 
ATOM     17  C   UNL     1       8.610   1.495  -3.626  0.00  0.00    -0.078 C 
ATOM     18  N   UNL     1       7.407   1.162  -2.834  0.00  0.00    +0.385 N 
ATOM     19  H   UNL     1       7.256   0.147  -2.869  0.00  0.00    -0.081 HD
ENDBRANCH   1  18
BRANCH   1  20
ATOM     20  C   UNL     1       4.965   1.262  -2.755  0.00  0.00    +0.095 C 
BRANCH  20  21
ATOM     21  N   UNL     1       4.964  -0.195  -2.909  0.00  0.00    -0.191 NA
ATOM     22  H   UNL     1       5.560  -0.616  -3.548  0.00  0.00    +0.148 HD
BRANCH  21  23
ATOM     23  S   UNL     1       3.943  -1.123  -1.993  0.00  0.00    +0.059 S 
ATOM     24  O   UNL     1       4.170  -0.760  -0.638  0.00  0.00    -0.153 OA
ATOM     25  O   UNL     1       4.083  -2.459  -2.457  0.00  0.00    -0.153 OA
BRANCH  23  32
ATOM     26  C   UNL     1       2.649  -1.490  -4.701  0.00  0.00    +0.046 C 
ATOM     27  C   UNL     1       1.792  -0.835  -3.648  0.00  0.00    -0.021 A 
ATOM     28  C   UNL     1       0.502  -0.446  -3.952  0.00  0.00    +0.043 A 
ATOM     29  C   UNL     1      -0.285   0.156  -2.985  0.00  0.00    +0.124 A 
ATOM     30  C   UNL     1       0.220   0.361  -1.712  0.00  0.00    +0.040 A 
ATOM     31  C   UNL     1       1.513  -0.024  -1.412  0.00  0.00    +0.031 A 
ATOM     32  C   UNL     1       2.298  -0.625  -2.379  0.00  0.00    +0.108 A 
ATOM     33  F   UNL     1      -1.547   0.537  -3.281  0.00  0.00    -0.205 F 
ENDBRANCH  23  32
ENDBRANCH  21  23
ENDBRANCH  20  21
ENDBRANCH   1  20
TORSDOF 6
