REMARK  Name = ZINC66672054
REMARK  11 active torsions:
REMARK  status: ('A' for Active; 'I' for Inactive)
REMARK    1  A    between atoms: C_1  and  C_2
REMARK    2  A    between atoms: C_5  and  C_8
REMARK    3  A    between atoms: N_10  and  C_11
REMARK    4  A    between atoms: C_13  and  C_20
REMARK    5  A    between atoms: N_15  and  C_16
REMARK    6  A    between atoms: C_16  and  C_17
REMARK    7  A    between atoms: C_16  and  C_18
REMARK    8  A    between atoms: C_16  and  C_19
REMARK    9  A    between atoms: C_20  and  C_21
REMARK   10  A    between atoms: C_20  and  C_22
REMARK   11  A    between atoms: C_20  and  C_23
REMARK                            x       y       z     vdW  Elec       q    Type
REMARK                         _______ _______ _______ _____ _____    ______ ____
ROOT
ATOM      1  C   UNL     1       0.077  -6.222  -1.260  0.00  0.00    +0.124 A 
ATOM      2  C   UNL     1       0.087  -7.034  -0.168  0.00  0.00    +0.069 A 
ATOM      3  C   UNL     1       0.104  -8.357  -0.617  0.00  0.00    +0.070 A 
ATOM      4  N   UNL     1       0.104  -8.350  -1.925  0.00  0.00    -0.174 NA
ATOM      5  N   UNL     1       0.082  -7.018  -2.360  0.00  0.00    -0.245 N 
ENDROOT
BRANCH   1   8
ATOM      6  C   UNL     1       0.057  -4.162  -0.080  0.00  0.00    +0.269 C 
ATOM      7  O   UNL     1       0.070  -4.776   0.969  0.00  0.00    -0.268 OA
ATOM      8  N   UNL     1       0.059  -4.828  -1.251  0.00  0.00    -0.265 N 
ATOM      9  H   UNL     1       0.049  -4.338  -2.088  0.00  0.00    +0.157 HD
BRANCH   6  14
ATOM     10  C   UNL     1      -0.018   1.503   0.010  0.00  0.00    +0.067 C 
ATOM     11  C   UNL     1       0.002  -0.004   0.002  0.00  0.00    +0.056 A 
ATOM     12  C   UNL     1       0.006  -0.689  -1.205  0.00  0.00    +0.134 A 
ATOM     13  N   UNL     1       0.023  -2.007  -1.217  0.00  0.00    -0.247 NA
ATOM     14  C   UNL     1       0.038  -2.681  -0.070  0.00  0.00    +0.144 A 
ATOM     15  C   UNL     1       0.035  -1.990   1.140  0.00  0.00    +0.144 A 
ATOM     16  N   UNL     1       0.022  -0.669   1.144  0.00  0.00    -0.256 NA
ENDBRANCH   6  14
ENDBRANCH   1   8
BRANCH   5  17
ATOM     17  C   UNL     1       0.069  -6.566  -3.753  0.00  0.00    +0.057 C 
ATOM     18  C   UNL     1       1.306  -5.706  -4.022  0.00  0.00    +0.036 C 
ATOM     19  C   UNL     1       0.080  -7.780  -4.684  0.00  0.00    +0.036 C 
ATOM     20  C   UNL     1      -1.193  -5.738  -4.009  0.00  0.00    +0.036 C 
ENDBRANCH   5  17
BRANCH   3  21
ATOM     21  C   UNL     1       0.119  -9.585   0.257  0.00  0.00    +0.006 C 
ATOM     22  C   UNL     1      -1.271  -9.801   0.857  0.00  0.00    +0.017 C 
ATOM     23  C   UNL     1       0.508 -10.803  -0.582  0.00  0.00    +0.017 C 
ATOM     24  C   UNL     1       1.137  -9.396   1.384  0.00  0.00    +0.017 C 
ENDBRANCH   3  21
TORSDOF 4
