REMARK  Name = ZINC63256834
REMARK  6 active torsions:
REMARK  status: ('A' for Active; 'I' for Inactive)
REMARK    1  A    between atoms: C_7  and  C_10
REMARK    2  A    between atoms: C_13  and  S_22
REMARK    3  A    between atoms: N_14  and  C_15
REMARK    4  A    between atoms: S_22  and  C_23
REMARK    5  A    between atoms: C_23  and  C_24
REMARK    6  A    between atoms: N_26  and  C_27
REMARK                            x       y       z     vdW  Elec       q    Type
REMARK                         _______ _______ _______ _____ _____    ______ ____
ROOT
ATOM      1  C   UNL     1       0.674  -3.129   0.001  0.00  0.00    +0.168 A 
ATOM      2  N   UNL     1      -0.650  -3.067   0.013  0.00  0.00    -0.128 NA
ATOM      3  N   UNL     1      -1.142  -4.254   0.006  0.00  0.00    -0.122 NA
ATOM      4  C   UNL     1      -0.168  -5.152  -0.011  0.00  0.00    +0.197 A 
ATOM      5  N   UNL     1       1.014  -4.473  -0.020  0.00  0.00    -0.270 N 
ENDROOT
BRANCH   1  12
ATOM      6  C   UNL     1      -0.017   1.354   0.065  0.00  0.00    +0.001 A 
ATOM      7  C   UNL     1       1.163   2.101   0.058  0.00  0.00    +0.002 A 
ATOM      8  C   UNL     1       2.383   1.512   0.035  0.00  0.00    +0.026 A 
ATOM      9  C   UNL     1       2.482   0.096   0.017  0.00  0.00    +0.043 A 
ATOM     10  N   UNL     1       3.530  -0.704  -0.007  0.00  0.00    -0.380 N 
ATOM     11  C   UNL     1       3.074  -2.098  -0.018  0.00  0.00    +0.152 C 
ATOM     12  C   UNL     1       1.563  -2.043   0.003  0.00  0.00    +0.025 C 
ATOM     13  C   UNL     1       1.236  -0.687   0.024  0.00  0.00    +0.006 A 
ATOM     14  C   UNL     1       0.001  -0.004   0.048  0.00  0.00    +0.010 A 
ATOM     15  H   UNL     1       4.456  -0.416  -0.016  0.00  0.00    +0.160 HD
ENDBRANCH   1  12
BRANCH   5  16
ATOM     16  C   UNL     1       2.304  -5.019  -0.043  0.00  0.00    +0.051 A 
ATOM     17  C   UNL     1       3.131  -4.805  -1.139  0.00  0.00    +0.028 A 
ATOM     18  C   UNL     1       4.402  -5.344  -1.159  0.00  0.00    +0.022 A 
ATOM     19  C   UNL     1       4.852  -6.099  -0.090  0.00  0.00    +0.041 A 
ATOM     20  C   UNL     1       4.030  -6.314   1.002  0.00  0.00    +0.022 A 
ATOM     21  C   UNL     1       2.760  -5.771   1.031  0.00  0.00    +0.028 A 
ATOM     22 CL   UNL     1       6.450  -6.776  -0.119  0.00  0.00    -0.084 Cl
ENDBRANCH   5  16
BRANCH   4  23
ATOM     23  S   UNL     1      -0.364  -6.903  -0.026  0.00  0.00    -0.076 S 
BRANCH  23  24
ATOM     24  C   UNL     1      -2.163  -7.143  -0.013  0.00  0.00    +0.173 C 
BRANCH  24  25
ATOM     25  C   UNL     1      -2.473  -8.617  -0.025  0.00  0.00    +0.227 C 
ATOM     26  O   UNL     1      -1.570  -9.427  -0.040  0.00  0.00    -0.275 OA
ATOM     27  N   UNL     1      -3.754  -9.037  -0.018  0.00  0.00    -0.285 N 
ATOM     28  H   UNL     1      -4.474  -8.393   0.062  0.00  0.00    +0.155 HD
BRANCH  27  29
ATOM     29  C   UNL     1      -4.044 -10.403  -0.126  0.00  0.00    +0.037 A 
ATOM     30  C   UNL     1      -5.170 -10.820  -0.824  0.00  0.00    +0.027 A 
ATOM     31  C   UNL     1      -5.457 -12.168  -0.932  0.00  0.00    +0.051 A 
ATOM     32  C   UNL     1      -4.623 -13.106  -0.344  0.00  0.00    +0.166 A 
ATOM     33  C   UNL     1      -3.494 -12.690   0.356  0.00  0.00    +0.168 A 
ATOM     34  C   UNL     1      -3.203 -11.340   0.459  0.00  0.00    +0.072 A 
ATOM     35  O   UNL     1      -2.846 -13.793   0.834  0.00  0.00    -0.453 OA
ATOM     36  C   UNL     1      -3.809 -14.862   0.769  0.00  0.00    +0.466 C 
ATOM     37  O   UNL     1      -4.684 -14.470  -0.304  0.00  0.00    -0.453 OA
ENDBRANCH  27  29
ENDBRANCH  24  25
ENDBRANCH  23  24
ENDBRANCH   4  23
TORSDOF 6
