REMARK  Name = ZINC21323302
REMARK  8 active torsions:
REMARK  status: ('A' for Active; 'I' for Inactive)
REMARK    1  A    between atoms: C_1  and  C_2
REMARK    2  A    between atoms: C_6  and  C_8
REMARK    3  A    between atoms: C_8  and  S_9
REMARK    4  A    between atoms: S_9  and  C_10
REMARK    5  A    between atoms: N_14  and  N_15
REMARK    6  A    between atoms: N_16  and  N_17
REMARK    7  A    between atoms: C_18  and  C_19
REMARK    8  A    between atoms: C_18  and  C_20
REMARK                            x       y       z     vdW  Elec       q    Type
REMARK                         _______ _______ _______ _____ _____    ______ ____
ROOT
ATOM      1  C   UNL     1       1.255  -0.392  -0.012  0.00  0.00    +0.210 A 
ATOM      2  N   UNL     1       0.002  -0.004   0.002  0.00  0.00    -0.119 NA
ATOM      3  N   UNL     1      -0.017   1.397   0.010  0.00  0.00    -0.109 NA
ATOM      4  C   UNL     1       1.224   1.819   0.000  0.00  0.00    +0.254 A 
ATOM      5  N   UNL     1       2.043   0.724  -0.014  0.00  0.00    -0.211 N 
ATOM      6  N   UNL     1       1.635   3.144   0.003  0.00  0.00    -0.204 N 
ATOM      7  H   UNL     1       2.708   3.387  -0.006  0.00  0.00    +0.178 HD
ENDROOT
BRANCH   5   8
ATOM      8  N   UNL     1       3.409   0.742  -0.027  0.00  0.00    -0.294 N 
ATOM      9  H   UNL     1       3.946   1.702  -0.027  0.00  0.00    +0.163 HD
ATOM     10  H   UNL     1       3.971  -0.203  -0.038  0.00  0.00    +0.163 HD
ENDBRANCH   5   8
BRANCH   6  11
ATOM     11  N   UNL     1       0.684   4.172   0.018  0.00  0.00    -0.184 NA
ATOM     12  C   UNL     1       1.069   5.413   0.021  0.00  0.00    +0.063 C 
ATOM     13  C   UNL     1       2.538   5.746   0.009  0.00  0.00    +0.068 C 
BRANCH  12  14
ATOM     14  C   UNL     1       0.067   6.495   0.037  0.00  0.00    -0.002 A 
ATOM     15  C   UNL     1       0.478   7.830   0.046  0.00  0.00    +0.012 A 
ATOM     16  C   UNL     1      -0.463   8.838   0.055  0.00  0.00    +0.039 A 
ATOM     17  C   UNL     1      -1.814   8.528   0.067  0.00  0.00    +0.123 A 
ATOM     18  C   UNL     1      -2.227   7.205   0.064  0.00  0.00    +0.039 A 
ATOM     19  C   UNL     1      -1.296   6.189   0.049  0.00  0.00    +0.012 A 
ATOM     20  F   UNL     1      -2.731   9.520   0.082  0.00  0.00    -0.205 F 
ENDBRANCH  12  14
ENDBRANCH   6  11
BRANCH   1  21
ATOM     21  S   UNL     1       1.822  -2.061  -0.026  0.00  0.00    -0.080 S 
BRANCH  21  22
ATOM     22  C   UNL     1       0.297  -3.043  -0.017  0.00  0.00    +0.112 C 
BRANCH  22  28
ATOM     23  C   UNL     1       1.270  -7.248  -2.550  0.00  0.00    +0.044 C 
ATOM     24  C   UNL     1       1.109  -6.521  -1.240  0.00  0.00    -0.050 A 
ATOM     25  C   UNL     1       1.279  -7.200  -0.047  0.00  0.00    +0.003 A 
ATOM     26  C   UNL     1       1.132  -6.533   1.154  0.00  0.00    +0.001 A 
ATOM     27  C   UNL     1       0.814  -5.188   1.164  0.00  0.00    +0.004 A 
ATOM     28  C   UNL     1       0.644  -4.509  -0.028  0.00  0.00    -0.037 A 
ATOM     29  C   UNL     1       0.786  -5.177  -1.230  0.00  0.00    +0.007 A 
ENDBRANCH  22  28
ENDBRANCH  21  22
ENDBRANCH   1  21
TORSDOF 6
