REMARK  Name = ZINC62851373
REMARK  5 active torsions:
REMARK  status: ('A' for Active; 'I' for Inactive)
REMARK    1  A    between atoms: C_1  and  C_2
REMARK    2  A    between atoms: C_3  and  C_11
REMARK    3  A    between atoms: C_7  and  N_8
REMARK    4  A    between atoms: C_11  and  C_12
REMARK    5  A    between atoms: C_12  and  C_18
REMARK                            x       y       z     vdW  Elec       q    Type
REMARK                         _______ _______ _______ _____ _____    ______ ____
ROOT
ATOM      1  C   UNL     1      -0.339  -0.598  -2.854  0.00  0.00    +0.053 C 
ENDROOT
BRANCH   1   2
ATOM      2  C   UNL     1       1.037  -0.308  -3.457  0.00  0.00    +0.073 C 
ATOM      3  C   UNL     1       1.652   0.914  -2.768  0.00  0.00    -0.001 C 
ATOM      4  C   UNL     1       0.775   2.139  -3.037  0.00  0.00    -0.082 C 
ATOM      5  N   UNL     1       0.695   2.380  -4.482  0.00  0.00    +0.379 N 
ATOM      6  C   UNL     1       0.041   1.243  -5.141  0.00  0.00    -0.082 C 
ATOM      7  C   UNL     1       0.889  -0.017  -4.953  0.00  0.00    -0.001 C 
ATOM      8  H   UNL     1       0.160   3.219  -4.653  0.00  0.00    -0.086 HD
ATOM      9  H   UNL     1       1.625   2.494  -4.855  0.00  0.00    -0.086 HD
BRANCH   2  10
ATOM     10  C   UNL     1       1.935  -1.503  -3.262  0.00  0.00    +0.362 C 
ATOM     11  O   UNL     1       1.513  -2.495  -2.693  0.00  0.00    -0.246 OA
ATOM     12  O   UNL     1       3.082  -1.477  -3.674  0.00  0.00    -0.246 OA
ENDBRANCH   2  10
ENDBRANCH   1   2
BRANCH   1  15
ATOM     13  C   UNL     1      -2.693  -0.875  -1.201  0.00  0.00    +0.046 C 
ATOM     14  C   UNL     1      -1.323  -0.980  -0.584  0.00  0.00    -0.017 A 
ATOM     15  C   UNL     1      -0.196  -0.847  -1.374  0.00  0.00    -0.041 A 
ATOM     16  C   UNL     1       1.061  -0.944  -0.808  0.00  0.00    +0.004 A 
ATOM     17  C   UNL     1       1.192  -1.173   0.549  0.00  0.00    +0.003 A 
ATOM     18  C   UNL     1       0.066  -1.304   1.340  0.00  0.00    +0.033 A 
ATOM     19  C   UNL     1      -1.192  -1.204   0.774  0.00  0.00    +0.129 A 
BRANCH  19  20
ATOM     20  N   UNL     1      -2.398  -1.340   1.621  0.00  0.00    +0.057 N 
ATOM     21  O   UNL     1      -2.288  -1.664   2.781  0.00  0.00    -0.126 OA
ATOM     22  O   UNL     1      -3.492  -1.127   1.154  0.00  0.00    -0.126 OA
ENDBRANCH  19  20
ENDBRANCH   1  15
TORSDOF 4
