REMARK  Name = ZINC39597403
REMARK  6 active torsions:
REMARK  status: ('A' for Active; 'I' for Inactive)
REMARK    1  A    between atoms: C_1  and  O_2
REMARK    2  A    between atoms: O_2  and  C_3
REMARK    3  A    between atoms: C_8  and  C_9
REMARK    4  A    between atoms: C_9  and  N_10
REMARK    5  A    between atoms: C_11  and  C_13
REMARK    6  A    between atoms: C_24  and  C_26
REMARK                            x       y       z     vdW  Elec       q    Type
REMARK                         _______ _______ _______ _____ _____    ______ ____
ROOT
ATOM      1  C   UNL     1      -3.648  -3.701   0.426  0.00  0.00    +0.100 C 
ATOM      2  C   UNL     1      -3.966  -4.303  -0.962  0.00  0.00    +0.121 C 
ATOM      3  N   UNL     1      -4.169  -5.748  -0.706  0.00  0.00    -0.297 N 
ATOM      4  C   UNL     1      -4.909  -5.795   0.578  0.00  0.00    +0.115 C 
ATOM      5  C   UNL     1      -4.271  -4.682   1.433  0.00  0.00    -0.004 C 
ATOM      6  C   UNL     1      -3.192  -5.267   2.339  0.00  0.00    -0.010 C 
ATOM      7  C   UNL     1      -3.843  -6.195   3.368  0.00  0.00    -0.082 C 
ATOM      8  N   UNL     1      -4.819  -5.439   4.162  0.00  0.00    +0.379 N 
ATOM      9  C   UNL     1      -5.903  -4.958   3.298  0.00  0.00    -0.082 C 
ATOM     10  C   UNL     1      -5.339  -3.978   2.265  0.00  0.00    -0.010 C 
ATOM     11  C   UNL     1      -3.771  -6.786  -1.468  0.00  0.00    +0.260 C 
ATOM     12  O   UNL     1      -4.014  -7.922  -1.121  0.00  0.00    -0.271 OA
ATOM     13  H   UNL     1      -5.202  -6.037   4.879  0.00  0.00    -0.086 HD
ATOM     14  H   UNL     1      -4.361  -4.651   4.595  0.00  0.00    -0.086 HD
ENDROOT
BRANCH  11  15
ATOM     15  C   UNL     1      -3.022  -6.534  -2.752  0.00  0.00    +0.296 C 
ATOM     16  C   UNL     1      -3.937  -5.815  -3.752  0.00  0.00    +0.283 C 
ATOM     17  O   UNL     1      -3.201  -5.605  -4.962  0.00  0.00    -0.484 OA
ATOM     18  C   UNL     1      -2.495  -6.665  -5.440  0.00  0.00    +0.162 A 
ATOM     19  C   UNL     1      -2.065  -6.658  -6.759  0.00  0.00    +0.049 A 
ATOM     20  C   UNL     1      -1.344  -7.726  -7.257  0.00  0.00    +0.004 A 
ATOM     21  C   UNL     1      -1.048  -8.804  -6.444  0.00  0.00    +0.004 A 
ATOM     22  C   UNL     1      -1.475  -8.818  -5.129  0.00  0.00    +0.049 A 
ATOM     23  C   UNL     1      -2.200  -7.750  -4.623  0.00  0.00    +0.163 A 
ATOM     24  O   UNL     1      -2.619  -7.782  -3.328  0.00  0.00    -0.473 OA
ENDBRANCH  11  15
BRANCH   1  26
ATOM     25  N   UNL     1      -1.642  -2.664   1.436  0.00  0.00    -0.311 N 
ATOM     26  C   UNL     1      -2.158  -3.615   0.631  0.00  0.00    +0.218 C 
ATOM     27  O   UNL     1      -1.422  -4.401   0.072  0.00  0.00    -0.275 OA
ATOM     28  H   UNL     1      -2.231  -2.036   1.883  0.00  0.00    +0.149 HD
BRANCH  25  29
ATOM     29  C   UNL     1      -0.193  -2.580   1.635  0.00  0.00    +0.143 C 
BRANCH  29  35
ATOM     30  C   UNL     1      -0.024  -1.609   3.941  0.00  0.00    +0.125 A 
ATOM     31  C   UNL     1       0.270  -0.561   4.801  0.00  0.00    +0.046 A 
ATOM     32  C   UNL     1       0.700   0.649   4.291  0.00  0.00    +0.004 A 
ATOM     33  C   UNL     1       0.837   0.815   2.925  0.00  0.00    +0.001 A 
ATOM     34  C   UNL     1       0.544  -0.228   2.066  0.00  0.00    +0.009 A 
ATOM     35  C   UNL     1       0.119  -1.442   2.571  0.00  0.00    +0.011 A 
BRANCH  30  37
ATOM     36  C   UNL     1      -0.572  -2.901   5.860  0.00  0.00    +0.277 C 
ATOM     37  O   UNL     1      -0.447  -2.801   4.440  0.00  0.00    -0.495 OA
ENDBRANCH  30  37
ENDBRANCH  29  35
ENDBRANCH  25  29
ENDBRANCH   1  26
TORSDOF 5
