REMARK  Name = ZINC14158484
REMARK  11 active torsions:
REMARK  status: ('A' for Active; 'I' for Inactive)
REMARK    1  A    between atoms: C_1  and  C_2
REMARK    2  A    between atoms: C_2  and  C_28
REMARK    3  A    between atoms: N_5  and  C_9
REMARK    4  A    between atoms: C_9  and  C_10
REMARK    5  A    between atoms: N_15  and  S_18
REMARK    6  A    between atoms: S_18  and  C_21
REMARK    7  A    between atoms: C_21  and  C_22
REMARK    8  A    between atoms: C_31  and  C_34
REMARK    9  A    between atoms: C_34  and  C_35
REMARK   10  A    between atoms: C_34  and  C_36
REMARK   11  A    between atoms: C_34  and  C_37
REMARK                            x       y       z     vdW  Elec       q    Type
REMARK                         _______ _______ _______ _____ _____    ______ ____
ROOT
ATOM      1  C   UNL     1      -0.791   2.022   1.224  0.00  0.00    +0.047 C 
ATOM      2  C   UNL     1      -0.018   1.503   0.010  0.00  0.00    +0.135 C 
ATOM      3  C   UNL     1      -0.619   2.035  -1.276  0.00  0.00    +0.251 C 
ATOM      4  O   UNL     1      -1.742   1.847  -1.692  0.00  0.00    -0.272 OA
ATOM      5  N   UNL     1       0.355   2.760  -1.860  0.00  0.00    -0.215 N 
ATOM      6  C   UNL     1       1.476   2.759  -1.130  0.00  0.00    +0.310 C 
ATOM      7  O   UNL     1       2.492   3.344  -1.451  0.00  0.00    -0.252 OA
ATOM      8  N   UNL     1       1.353   2.040   0.000  0.00  0.00    -0.281 N 
ATOM      9  H   UNL     1       2.035   1.901   0.676  0.00  0.00    +0.152 HD
ENDROOT
BRANCH   2  10
ATOM     10  C   UNL     1       0.002  -0.004   0.002  0.00  0.00    -0.015 A 
ATOM     11  C   UNL     1      -1.018  -0.706  -0.612  0.00  0.00    +0.006 A 
ATOM     12  C   UNL     1      -0.998  -2.088  -0.623  0.00  0.00    +0.004 A 
ATOM     13  C   UNL     1       0.039  -2.768  -0.013  0.00  0.00    -0.042 A 
ATOM     14  C   UNL     1       1.057  -2.067   0.606  0.00  0.00    +0.004 A 
ATOM     15  C   UNL     1       1.038  -0.685   0.613  0.00  0.00    +0.006 A 
BRANCH  13  16
ATOM     16  C   UNL     1       0.059  -4.275  -0.020  0.00  0.00    -0.013 C 
ATOM     17  C   UNL     1       0.044  -4.793   1.419  0.00  0.00    +0.015 C 
ATOM     18  C   UNL     1      -1.172  -4.798  -0.763  0.00  0.00    +0.015 C 
ATOM     19  C   UNL     1       1.326  -4.765  -0.725  0.00  0.00    +0.015 C 
ENDBRANCH  13  16
ENDBRANCH   2  10
BRANCH   5  20
ATOM     20  C   UNL     1       0.206   3.461  -3.138  0.00  0.00    +0.213 C 
BRANCH  20  21
ATOM     21  C   UNL     1       0.603   2.542  -4.264  0.00  0.00    +0.234 C 
ATOM     22  O   UNL     1       0.975   1.413  -4.024  0.00  0.00    -0.274 OA
ATOM     23  N   UNL     1       0.546   2.975  -5.539  0.00  0.00    -0.298 N 
ATOM     24  C   UNL     1       0.092   4.339  -5.846  0.00  0.00    +0.125 C 
ATOM     25  C   UNL     1       1.182   5.038  -6.676  0.00  0.00    +0.128 C 
ATOM     26  N   UNL     1       1.566   4.153  -7.785  0.00  0.00    -0.178 NA
ATOM     27  C   UNL     1       2.015   2.788  -7.478  0.00  0.00    +0.128 C 
ATOM     28  C   UNL     1       0.930   2.090  -6.648  0.00  0.00    +0.125 C 
BRANCH  26  29
ATOM     29  S   UNL     1       1.495   4.685  -9.351  0.00  0.00    +0.036 S 
ATOM     30  O   UNL     1       1.642   6.096  -9.262  0.00  0.00    -0.158 OA
ATOM     31  O   UNL     1       2.455   3.900 -10.045  0.00  0.00    -0.158 OA
BRANCH  29  32
ATOM     32  C   UNL     1      -0.178   4.265  -9.912  0.00  0.00    +0.220 C 
BRANCH  32  33
ATOM     33  C   UNL     1      -0.356   4.709 -11.341  0.00  0.00    -0.025 A 
ATOM     34  C   UNL     1      -0.837   5.975 -11.617  0.00  0.00    +0.005 A 
ATOM     35  C   UNL     1      -0.995   6.383 -12.928  0.00  0.00    +0.000 A 
ATOM     36  C   UNL     1      -0.682   5.522 -13.963  0.00  0.00    +0.000 A 
ATOM     37  C   UNL     1      -0.206   4.254 -13.687  0.00  0.00    +0.000 A 
ATOM     38  C   UNL     1      -0.043   3.847 -12.376  0.00  0.00    +0.005 A 
ENDBRANCH  32  33
ENDBRANCH  29  32
ENDBRANCH  26  29
ENDBRANCH  20  21
ENDBRANCH   5  20
TORSDOF 7
