REMARK  Name = ZINC39677287
REMARK  5 active torsions:
REMARK  status: ('A' for Active; 'I' for Inactive)
REMARK    1  A    between atoms: C_1  and  C_2
REMARK    2  A    between atoms: C_6  and  C_7
REMARK    3  A    between atoms: C_7  and  N_8
REMARK    4  A    between atoms: C_9  and  C_11
REMARK    5  A    between atoms: C_22  and  C_24
REMARK                            x       y       z     vdW  Elec       q    Type
REMARK                         _______ _______ _______ _____ _____    ______ ____
ROOT
ATOM      1  C   UNL     1      -3.007   0.580   4.784  0.00  0.00    +0.100 C 
ATOM      2  C   UNL     1      -3.754  -0.770   4.703  0.00  0.00    +0.121 C 
ATOM      3  N   UNL     1      -3.618  -1.355   6.058  0.00  0.00    -0.297 N 
ATOM      4  C   UNL     1      -3.773  -0.201   6.975  0.00  0.00    +0.115 C 
ATOM      5  C   UNL     1      -3.025   0.952   6.277  0.00  0.00    -0.004 C 
ATOM      6  C   UNL     1      -1.600   1.056   6.812  0.00  0.00    -0.010 C 
ATOM      7  C   UNL     1      -1.643   1.482   8.282  0.00  0.00    -0.082 C 
ATOM      8  N   UNL     1      -2.326   2.776   8.399  0.00  0.00    +0.379 N 
ATOM      9  C   UNL     1      -3.724   2.645   7.968  0.00  0.00    -0.082 C 
ATOM     10  C   UNL     1      -3.769   2.267   6.485  0.00  0.00    -0.010 C 
ATOM     11  C   UNL     1      -3.403  -2.646   6.383  0.00  0.00    +0.260 C 
ATOM     12  O   UNL     1      -3.315  -2.971   7.548  0.00  0.00    -0.271 OA
ATOM     13  H   UNL     1      -2.300   3.084   9.360  0.00  0.00    -0.086 HD
ATOM     14  H   UNL     1      -1.859   3.455   7.818  0.00  0.00    -0.086 HD
ENDROOT
BRANCH  11  15
ATOM     15  C   UNL     1      -3.271  -3.684   5.299  0.00  0.00    +0.296 C 
ATOM     16  C   UNL     1      -4.605  -3.825   4.553  0.00  0.00    +0.283 C 
ATOM     17  O   UNL     1      -4.449  -4.826   3.541  0.00  0.00    -0.484 OA
ATOM     18  C   UNL     1      -3.838  -5.983   3.916  0.00  0.00    +0.162 A 
ATOM     19  C   UNL     1      -3.972  -7.112   3.121  0.00  0.00    +0.049 A 
ATOM     20  C   UNL     1      -3.355  -8.293   3.487  0.00  0.00    +0.004 A 
ATOM     21  C   UNL     1      -2.603  -8.354   4.645  0.00  0.00    +0.004 A 
ATOM     22  C   UNL     1      -2.466  -7.233   5.442  0.00  0.00    +0.049 A 
ATOM     23  C   UNL     1      -3.084  -6.044   5.082  0.00  0.00    +0.163 A 
ATOM     24  O   UNL     1      -2.946  -4.951   5.881  0.00  0.00    -0.473 OA
ENDBRANCH  11  15
BRANCH   1  26
ATOM     25  N   UNL     1      -0.947   1.474   3.748  0.00  0.00    -0.310 N 
ATOM     26  C   UNL     1      -1.589   0.425   4.299  0.00  0.00    +0.218 C 
ATOM     27  O   UNL     1      -1.025  -0.643   4.404  0.00  0.00    -0.275 OA
ATOM     28  H   UNL     1      -1.398   2.329   3.664  0.00  0.00    +0.149 HD
BRANCH  25  29
ATOM     29  C   UNL     1       0.431   1.324   3.276  0.00  0.00    +0.147 C 
BRANCH  29  35
ATOM     30  C   UNL     1       1.850   3.577   4.809  0.00  0.00    +0.044 C 
ATOM     31  C   UNL     1       1.542   3.657   3.336  0.00  0.00    -0.039 A 
ATOM     32  C   UNL     1       1.902   4.773   2.604  0.00  0.00    +0.011 A 
ATOM     33  C   UNL     1       1.611   4.814   1.281  0.00  0.00    +0.046 A 
ATOM     34  S   UNL     1       0.803   3.241   1.032  0.00  0.00    -0.100 S 
ATOM     35  C   UNL     1       0.913   2.634   2.708  0.00  0.00    +0.010 A 
ENDBRANCH  29  35
ENDBRANCH  25  29
ENDBRANCH   1  26
TORSDOF 4
