REMARK  Name = ZINC41600422
REMARK  8 active torsions:
REMARK  status: ('A' for Active; 'I' for Inactive)
REMARK    1  A    between atoms: C_1  and  C_2
REMARK    2  A    between atoms: C_2  and  C_3
REMARK    3  A    between atoms: C_9  and  S_14
REMARK    4  A    between atoms: S_14  and  N_17
REMARK    5  A    between atoms: N_17  and  C_18
REMARK    6  A    between atoms: C_18  and  C_19
REMARK    7  A    between atoms: C_18  and  C_20
REMARK    8  A    between atoms: C_18  and  C_21
REMARK                            x       y       z     vdW  Elec       q    Type
REMARK                         _______ _______ _______ _____ _____    ______ ____
ROOT
ATOM      1  C   UNL     1      -2.481   2.075  -1.095  0.00  0.00    +0.190 C 
ATOM      2  C   UNL     1      -2.023   0.869  -0.261  0.00  0.00    +0.146 C 
ATOM      3  N   UNL     1      -3.206   0.027  -0.011  0.00  0.00    -0.337 N 
ATOM      4  C   UNL     1      -4.099  -0.177  -1.074  0.00  0.00    +0.071 A 
ATOM      5  C   UNL     1      -5.060  -1.172  -0.994  0.00  0.00    +0.055 A 
ATOM      6  C   UNL     1      -5.940  -1.367  -2.042  0.00  0.00    +0.107 A 
ATOM      7  C   UNL     1      -5.861  -0.570  -3.169  0.00  0.00    +0.032 A 
ATOM      8  C   UNL     1      -4.904   0.424  -3.255  0.00  0.00    +0.049 A 
ATOM      9  C   UNL     1      -4.016   0.625  -2.209  0.00  0.00    +0.142 A 
ATOM     10  O   UNL     1      -3.075   1.602  -2.306  0.00  0.00    -0.485 OA
ATOM     11  H   UNL     1      -3.361  -0.374   0.859  0.00  0.00    +0.146 HD
ENDROOT
BRANCH   6  12
ATOM     12  S   UNL     1      -7.162  -2.632  -1.943  0.00  0.00    +0.059 S 
ATOM     13  O   UNL     1      -7.676  -2.804  -3.256  0.00  0.00    -0.153 OA
ATOM     14  O   UNL     1      -6.583  -3.699  -1.205  0.00  0.00    -0.153 OA
BRANCH  12  15
ATOM     15  N   UNL     1      -8.405  -2.040  -1.022  0.00  0.00    -0.185 NA
ATOM     16  H   UNL     1      -8.590  -2.425  -0.151  0.00  0.00    +0.149 HD
BRANCH  15  17
ATOM     17  C   UNL     1      -9.227  -0.936  -1.524  0.00  0.00    +0.032 C 
ATOM     18  C   UNL     1     -10.024  -1.405  -2.743  0.00  0.00    +0.029 C 
ATOM     19  C   UNL     1     -10.192  -0.480  -0.428  0.00  0.00    +0.029 C 
ATOM     20  C   UNL     1      -8.322   0.232  -1.924  0.00  0.00    +0.029 C 
ENDBRANCH  15  17
ENDBRANCH  12  15
ENDBRANCH   6  12
BRANCH   1  22
ATOM     21  C   UNL     1      -1.748   4.216  -2.153  0.00  0.00    +0.007 C 
ATOM     22  C   UNL     1      -1.274   2.956  -1.425  0.00  0.00    +0.043 C 
ENDBRANCH   1  22
TORSDOF 4
