REMARK  Name = ZINC08747803
REMARK  7 active torsions:
REMARK  status: ('A' for Active; 'I' for Inactive)
REMARK    1  A    between atoms: C_4  and  C_7
REMARK    2  A    between atoms: C_7  and  C_8
REMARK    3  A    between atoms: C_8  and  C_10
REMARK    4  A    between atoms: C_8  and  N_20
REMARK    5  A    between atoms: C_21  and  C_23
REMARK    6  A    between atoms: C_23  and  C_24
REMARK    7  A    between atoms: C_24  and  N_25
REMARK                            x       y       z     vdW  Elec       q    Type
REMARK                         _______ _______ _______ _____ _____    ______ ____
ROOT
ATOM      1  C   UNL     1       0.023  -0.522   1.442  0.00  0.00    +0.143 C 
ENDROOT
BRANCH   1   2
ATOM      2  C   UNL     1       0.167  -2.022   1.434  0.00  0.00    +0.129 A 
ATOM      3  N   UNL     1       1.141  -2.714   2.083  0.00  0.00    -0.340 N 
ATOM      4  H   UNL     1       1.876  -2.325   2.639  0.00  0.00    +0.167 HD
ATOM      5  C   UNL     1       0.928  -4.055   1.833  0.00  0.00    +0.066 A 
ATOM      6  C   UNL     1       1.573  -5.224   2.214  0.00  0.00    +0.028 A 
ATOM      7  C   UNL     1       1.096  -6.441   1.776  0.00  0.00    +0.002 A 
ATOM      8  C   UNL     1      -0.023  -6.504   0.957  0.00  0.00    +0.002 A 
ATOM      9  C   UNL     1      -0.670  -5.365   0.573  0.00  0.00    +0.030 A 
ATOM     10  C   UNL     1      -0.205  -4.120   1.005  0.00  0.00    +0.089 A 
ATOM     11  N   UNL     1      -0.619  -2.843   0.801  0.00  0.00    -0.231 NA
ENDBRANCH   1   2
BRANCH   1  12
ATOM     12  N   UNL     1      -1.228  -0.155   2.111  0.00  0.00    -0.305 N 
ATOM     13  C   UNL     1      -1.354   1.058   2.685  0.00  0.00    +0.215 C 
ATOM     14  O   UNL     1      -0.432   1.845   2.649  0.00  0.00    -0.276 OA
ATOM     15  H   UNL     1      -1.965  -0.784   2.140  0.00  0.00    +0.149 HD
BRANCH  13  16
ATOM     16  C   UNL     1      -2.641   1.435   3.373  0.00  0.00    +0.115 C 
BRANCH  16  17
ATOM     17  C   UNL     1      -2.521   2.853   3.936  0.00  0.00    +0.127 C 
BRANCH  17  18
ATOM     18  N   UNL     1      -3.772   3.220   4.605  0.00  0.00    -0.224 N 
ATOM     19  C   UNL     1      -4.028   2.996   5.912  0.00  0.00    +0.247 C 
ATOM     20  O   UNL     1      -3.297   2.473   6.726  0.00  0.00    -0.273 OA
ATOM     21  C   UNL     1      -5.417   3.534   6.143  0.00  0.00    +0.113 C 
ATOM     22  C   UNL     1      -5.407   4.648   7.199  0.00  0.00    +0.035 C 
ATOM     23  C   UNL     1      -6.750   4.461   7.952  0.00  0.00    +0.003 C 
ATOM     24  C   UNL     1      -6.905   2.920   8.004  0.00  0.00    +0.003 C 
ATOM     25  C   UNL     1      -6.362   2.438   6.640  0.00  0.00    +0.035 C 
ATOM     26  N   UNL     1      -5.833   4.048   4.836  0.00  0.00    -0.285 N 
ATOM     27  C   UNL     1      -4.801   3.825   3.998  0.00  0.00    +0.309 C 
ATOM     28  O   UNL     1      -4.806   4.134   2.823  0.00  0.00    -0.252 OA
ATOM     29  H   UNL     1      -6.680   4.468   4.619  0.00  0.00    +0.151 HD
ENDBRANCH  17  18
ENDBRANCH  16  17
ENDBRANCH  13  16
ENDBRANCH   1  12
BRANCH   1  30
ATOM     30  C   UNL     1       0.002  -0.004   0.002  0.00  0.00    +0.065 C 
BRANCH  30  34
ATOM     31  C   UNL     1      -0.056   4.267   0.025  0.00  0.00    +0.000 A 
ATOM     32  C   UNL     1       1.151   3.592   0.010  0.00  0.00    +0.000 A 
ATOM     33  C   UNL     1       1.169   2.210   0.003  0.00  0.00    +0.004 A 
ATOM     34  C   UNL     1      -0.018   1.503   0.010  0.00  0.00    -0.045 A 
ATOM     35  C   UNL     1      -1.225   2.178   0.020  0.00  0.00    +0.004 A 
ATOM     36  C   UNL     1      -1.244   3.560   0.032  0.00  0.00    +0.000 A 
ENDBRANCH  30  34
ENDBRANCH   1  30
TORSDOF 7
