REMARK  Name = ZINC66704546
REMARK  7 active torsions:
REMARK  status: ('A' for Active; 'I' for Inactive)
REMARK    1  A    between atoms: C_1  and  C_2
REMARK    2  A    between atoms: C_7  and  N_10
REMARK    3  A    between atoms: C_11  and  C_13
REMARK    4  A    between atoms: C_13  and  N_14
REMARK    5  A    between atoms: N_22  and  C_23
REMARK    6  A    between atoms: C_23  and  C_24
REMARK    7  A    between atoms: N_29  and  C_31
REMARK                            x       y       z     vdW  Elec       q    Type
REMARK                         _______ _______ _______ _____ _____    ______ ____
ROOT
ATOM      1  N   UNL     1       3.290  -5.552  -0.977  0.00  0.00    -0.291 NA
ATOM      2  C   UNL     1       4.345  -5.515   0.045  0.00  0.00    +0.104 C 
ATOM      3  C   UNL     1       4.762  -6.948   0.395  0.00  0.00    +0.124 C 
ATOM      4  N   UNL     1       5.123  -7.646  -0.847  0.00  0.00    -0.283 N 
ATOM      5  C   UNL     1       4.172  -7.610  -1.968  0.00  0.00    +0.124 C 
ATOM      6  C   UNL     1       3.778  -6.152  -2.225  0.00  0.00    +0.104 C 
ATOM      7  C   UNL     1       6.295  -8.303  -0.956  0.00  0.00    +0.302 C 
ATOM      8  O   UNL     1       7.111  -8.244  -0.056  0.00  0.00    -0.253 OA
ATOM      9  N   UNL     1       6.564  -9.024  -2.063  0.00  0.00    -0.299 N 
ATOM     10  H   UNL     1       5.946  -9.013  -2.810  0.00  0.00    +0.150 HD
ENDROOT
BRANCH   1  11
ATOM     11  C   UNL     1       2.742  -4.210  -1.216  0.00  0.00    +0.180 C 
BRANCH  11  13
ATOM     12  N   UNL     1       1.450  -2.514   0.038  0.00  0.00    -0.311 N 
ATOM     13  C   UNL     1       2.034  -3.728   0.024  0.00  0.00    +0.227 C 
ATOM     14  O   UNL     1       1.991  -4.433   1.010  0.00  0.00    -0.274 OA
ATOM     15  H   UNL     1       1.485  -1.950  -0.751  0.00  0.00    +0.149 HD
BRANCH  12  21
ATOM     16  C   UNL     1      -0.014   1.526   0.031  0.00  0.00    +0.007 C 
ATOM     17  C   UNL     1       0.005  -0.003   0.017  0.00  0.00    -0.012 C 
ATOM     18  C   UNL     1      -1.430  -0.532   0.023  0.00  0.00    +0.003 C 
ATOM     19  C   UNL     1      -1.411  -2.062   0.010  0.00  0.00    +0.002 C 
ATOM     20  C   UNL     1      -0.673  -2.573   1.249  0.00  0.00    +0.022 C 
ATOM     21  C   UNL     1       0.762  -2.045   1.243  0.00  0.00    +0.073 C 
ATOM     22  C   UNL     1       0.743  -0.515   1.257  0.00  0.00    +0.025 C 
ENDBRANCH  12  21
ENDBRANCH  11  13
ENDBRANCH   1  11
BRANCH   9  23
ATOM     23  C   UNL     1       7.788  -9.825  -2.136  0.00  0.00    +0.107 C 
BRANCH  23  24
ATOM     24  C   UNL     1       7.849 -10.540  -3.487  0.00  0.00    -0.011 C 
ATOM     25  C   UNL     1       6.702 -11.550  -3.584  0.00  0.00    +0.001 C 
ATOM     26  C   UNL     1       6.818 -12.315  -4.906  0.00  0.00    -0.018 C 
ATOM     27  C   UNL     1       8.190 -12.988  -4.980  0.00  0.00    -0.079 C 
ATOM     28  N   UNL     1       9.244 -11.969  -4.908  0.00  0.00    +0.378 N 
ATOM     29  C   UNL     1       9.184 -11.279  -3.614  0.00  0.00    -0.074 C 
ATOM     30  C   UNL     1      10.556 -12.612  -5.058  0.00  0.00    -0.096 C 
ATOM     31  H   UNL     1       9.113 -11.299  -5.651  0.00  0.00    -0.082 HD
ENDBRANCH  23  24
ENDBRANCH   9  23
TORSDOF 5
