REMARK  Name = ZINC08636255
REMARK  6 active torsions:
REMARK  status: ('A' for Active; 'I' for Inactive)
REMARK    1  A    between atoms: C_6  and  N_7
REMARK    2  A    between atoms: C_12  and  C_13
REMARK    3  A    between atoms: C_12  and  N_63
REMARK    4  A    between atoms: C_21  and  C_23
REMARK    5  A    between atoms: C_23  and  N_24
REMARK    6  A    between atoms: N_27  and  C_28
REMARK                            x       y       z     vdW  Elec       q    Type
REMARK                         _______ _______ _______ _____ _____    ______ ____
ROOT
ATOM      1  C   UNL     1       4.813  -7.077   1.988  0.00  0.00    -0.041 C 
ATOM      2  C   UNL     1       3.459  -6.362   2.028  0.00  0.00    -0.076 C 
ATOM      3  C   UNL     1       2.461  -8.055   0.614  0.00  0.00    -0.078 C 
ATOM      4  C   UNL     1       3.785  -8.819   0.533  0.00  0.00    -0.015 C 
ATOM      5  C   UNL     1       4.942  -7.819   0.651  0.00  0.00    -0.015 C 
ATOM      6  C   UNL     1       4.824  -6.798  -0.487  0.00  0.00    -0.010 C 
ATOM      7  C   UNL     1       3.471  -6.090  -0.379  0.00  0.00    -0.051 C 
ATOM      8  N   UNL     1       2.709  -6.607   0.778  0.00  0.00    +0.383 N 
ATOM      9  H   UNL     1       1.808  -6.118   0.829  0.00  0.00    -0.081 HD
ENDROOT
BRANCH   1  10
ATOM     10  C   UNL     1       5.939  -6.050   2.115  0.00  0.00    -0.077 C 
BRANCH  10  16
ATOM     11  N   UNL     1       9.839  -7.286   3.170  0.00  0.00    -0.333 N 
ATOM     12  C   UNL     1       9.661  -6.584   1.891  0.00  0.00    +0.086 C 
ATOM     13  C   UNL     1       8.341  -5.810   1.917  0.00  0.00    -0.060 C 
ATOM     14  C   UNL     1       7.411  -7.447   3.437  0.00  0.00    -0.060 C 
ATOM     15  C   UNL     1       8.731  -8.221   3.412  0.00  0.00    +0.086 C 
ATOM     16  N   UNL     1       7.234  -6.764   2.139  0.00  0.00    +0.382 N 
ATOM     17  H   UNL     1       7.242  -7.465   1.389  0.00  0.00    -0.082 HD
BRANCH  11  23
ATOM     18  C   UNL     1      11.931  -7.883   2.123  0.00  0.00    +0.026 A 
ATOM     19  C   UNL     1      13.149  -8.532   2.169  0.00  0.00    +0.040 A 
ATOM     20  C   UNL     1      13.508  -9.256   3.294  0.00  0.00    +0.124 A 
ATOM     21  C   UNL     1      12.649  -9.326   4.377  0.00  0.00    +0.040 A 
ATOM     22  C   UNL     1      11.432  -8.674   4.338  0.00  0.00    +0.026 A 
ATOM     23  C   UNL     1      11.070  -7.947   3.211  0.00  0.00    +0.030 A 
ATOM     24  F   UNL     1      14.698  -9.894   3.334  0.00  0.00    -0.205 F 
ENDBRANCH  11  23
ENDBRANCH  10  16
ENDBRANCH   1  10
BRANCH   7  25
ATOM     25  C   UNL     1       3.694  -4.587  -0.195  0.00  0.00    +0.090 C 
BRANCH  25  26
ATOM     26  N   UNL     1       2.406  -3.926   0.028  0.00  0.00    -0.301 N 
ATOM     27  C   UNL     1       2.356  -2.593   0.216  0.00  0.00    +0.304 C 
ATOM     28  O   UNL     1       3.381  -1.938   0.201  0.00  0.00    -0.253 OA
ATOM     29  N   UNL     1       1.171  -1.984   0.421  0.00  0.00    -0.269 N 
ATOM     30  H   UNL     1       1.588  -4.448   0.040  0.00  0.00    +0.150 HD
ATOM     31  H   UNL     1       0.363  -2.514   0.507  0.00  0.00    +0.156 HD
BRANCH  29  32
ATOM     32  C   UNL     1       1.107  -0.581   0.511  0.00  0.00    +0.042 A 
ATOM     33  C   UNL     1       0.112   0.033   1.256  0.00  0.00    +0.031 A 
ATOM     34  C   UNL     1       0.080   1.387   1.320  0.00  0.00    +0.047 A 
ATOM     35  S   UNL     1       1.481   1.840   0.311  0.00  0.00    -0.103 S 
ATOM     36  C   UNL     1       2.018   0.196  -0.131  0.00  0.00    +0.068 A 
ENDBRANCH  29  32
ENDBRANCH  25  26
ENDBRANCH   7  25
TORSDOF 6
