REMARK  Name = ZINC02309199
REMARK  9 active torsions:
REMARK  status: ('A' for Active; 'I' for Inactive)
REMARK    1  A    between atoms: C_1  and  C_2
REMARK    2  A    between atoms: C_5  and  C_8
REMARK    3  A    between atoms: C_8  and  C_9
REMARK    4  A    between atoms: C_8  and  C_16
REMARK    5  A    between atoms: C_8  and  O_34
REMARK    6  A    between atoms: C_12  and  C_15
REMARK    7  A    between atoms: N_18  and  N_19
REMARK    8  A    between atoms: N_19  and  C_20
REMARK    9  A    between atoms: C_26  and  C_28
REMARK                            x       y       z     vdW  Elec       q    Type
REMARK                         _______ _______ _______ _____ _____    ______ ____
ROOT
ATOM      1  C   UNL     1       0.806   7.738   1.735  0.00  0.00    +0.270 C 
ATOM      2  O   UNL     1       0.781   8.331   2.792  0.00  0.00    -0.270 OA
ATOM      3  N   UNL     1       1.982   7.333   1.217  0.00  0.00    -0.228 N 
ATOM      4  H   UNL     1       2.005   6.794   0.258  0.00  0.00    +0.173 HD
ENDROOT
BRANCH   3   5
ATOM      5  N   UNL     1       3.176   7.597   1.900  0.00  0.00    -0.213 N 
ATOM      6  C   UNL     1       3.803   6.609   2.569  0.00  0.00    +0.263 C 
ATOM      7  O   UNL     1       4.798   6.853   3.223  0.00  0.00    -0.268 OA
BRANCH   5   8
ATOM      8  C   UNL     1       3.744   8.947   1.888  0.00  0.00    +0.097 C 
ATOM      9  C   UNL     1       2.742   9.927   2.502  0.00  0.00    +0.024 C 
ATOM     10  C   UNL     1       3.335  11.338   2.489  0.00  0.00    +0.002 C 
ATOM     11  C   UNL     1       3.635  11.752   1.046  0.00  0.00    +0.000 C 
ATOM     12  C   UNL     1       4.637  10.771   0.433  0.00  0.00    +0.002 C 
ATOM     13  C   UNL     1       4.044   9.361   0.446  0.00  0.00    +0.024 C 
ENDBRANCH   5   8
BRANCH   6  14
ATOM     14  C   UNL     1       3.280   5.227   2.508  0.00  0.00    +0.038 A 
ATOM     15  C   UNL     1       1.925   5.001   2.259  0.00  0.00    +0.013 A 
ATOM     16  C   UNL     1       1.443   3.710   2.202  0.00  0.00    +0.001 A 
ATOM     17  C   UNL     1       2.299   2.640   2.397  0.00  0.00    +0.000 A 
ATOM     18  C   UNL     1       3.644   2.857   2.639  0.00  0.00    +0.001 A 
ATOM     19  C   UNL     1       4.138   4.143   2.698  0.00  0.00    +0.013 A 
ENDBRANCH   6  14
ENDBRANCH   3   5
BRANCH   1  20
ATOM     20  C   UNL     1      -0.479   7.454   1.000  0.00  0.00    +0.194 C 
BRANCH  20  25
ATOM     21  C   UNL     1      -4.866   7.340   4.759  0.00  0.00    +0.044 C 
ATOM     22  C   UNL     1      -3.722   7.369   3.779  0.00  0.00    -0.050 A 
ATOM     23  C   UNL     1      -3.796   8.170   2.654  0.00  0.00    +0.004 A 
ATOM     24  C   UNL     1      -2.747   8.197   1.755  0.00  0.00    +0.007 A 
ATOM     25  C   UNL     1      -1.623   7.424   1.980  0.00  0.00    -0.003 A 
ATOM     26  C   UNL     1      -1.551   6.620   3.102  0.00  0.00    +0.007 A 
ATOM     27  C   UNL     1      -2.598   6.596   4.004  0.00  0.00    +0.004 A 
ENDBRANCH  20  25
BRANCH  20  28
ATOM     28  C   UNL     1      -0.722   8.534  -0.023  0.00  0.00    -0.003 A 
ATOM     29  C   UNL     1      -0.508   9.859   0.307  0.00  0.00    +0.007 A 
ATOM     30  C   UNL     1      -0.727  10.849  -0.633  0.00  0.00    +0.004 A 
ATOM     31  C   UNL     1      -1.168  10.514  -1.899  0.00  0.00    -0.050 A 
ATOM     32  C   UNL     1      -1.387   9.190  -2.228  0.00  0.00    +0.004 A 
ATOM     33  C   UNL     1      -1.164   8.199  -1.290  0.00  0.00    +0.007 A 
ATOM     34  C   UNL     1      -1.411  11.594  -2.922  0.00  0.00    +0.044 C 
ENDBRANCH  20  28
BRANCH  20  35
ATOM     35  O   UNL     1      -0.382   6.188   0.343  0.00  0.00    -0.371 OA
ATOM     36  H   UNL     1       0.400   6.019  -0.413  0.00  0.00    +0.212 HD
ENDBRANCH  20  35
ENDBRANCH   1  20
TORSDOF 7
