REMARK  Name = ZINC02247431
REMARK  6 active torsions:
REMARK  status: ('A' for Active; 'I' for Inactive)
REMARK    1  A    between atoms: C_1  and  C_2
REMARK    2  A    between atoms: N_8  and  C_9
REMARK    3  A    between atoms: C_9  and  C_10
REMARK    4  A    between atoms: C_16  and  C_24
REMARK    5  A    between atoms: C_18  and  C_22
REMARK    6  A    between atoms: C_19  and  N_21
REMARK                            x       y       z     vdW  Elec       q    Type
REMARK                         _______ _______ _______ _____ _____    ______ ____
ROOT
ATOM      1  C   UNL     1      -0.018   1.503   0.010  0.00  0.00    +0.064 C 
ATOM      2  C   UNL     1       0.002  -0.004   0.002  0.00  0.00    +0.023 A 
ATOM      3  C   UNL     1       0.005  -0.663  -1.176  0.00  0.00    +0.068 A 
ATOM      4  C   UNL     1       0.025  -2.074  -1.190  0.00  0.00    +0.141 A 
ATOM      5  C   UNL     1       0.040  -2.753   0.010  0.00  0.00    +0.072 A 
ATOM      6  C   UNL     1       0.036  -2.026   1.208  0.00  0.00    +0.259 A 
ATOM      7  O   UNL     1       0.049  -2.614   2.278  0.00  0.00    -0.267 OA
ATOM      8  N   UNL     1       0.022  -0.680   1.180  0.00  0.00    -0.310 N 
ATOM      9  C   UNL     1       0.063  -4.256   0.043  0.00  0.00    +0.103 C 
ATOM     10  C   UNL     1      -0.333  -4.809  -1.299  0.00  0.00    +0.098 C 
ATOM     11  C   UNL     1      -0.328  -4.032  -2.407  0.00  0.00    +0.199 C 
ATOM     12  O   UNL     1       0.029  -2.736  -2.366  0.00  0.00    -0.441 OA
ENDROOT
BRANCH   9  13
ATOM     13  C   UNL     1       1.453  -4.728   0.384  0.00  0.00    -0.031 A 
ATOM     14  C   UNL     1       2.516  -4.388  -0.431  0.00  0.00    +0.008 A 
ATOM     15  C   UNL     1       3.793  -4.817  -0.122  0.00  0.00    +0.050 A 
ATOM     16  C   UNL     1       4.010  -5.591   1.007  0.00  0.00    +0.166 A 
ATOM     17  C   UNL     1       2.939  -5.934   1.828  0.00  0.00    +0.167 A 
ATOM     18  C   UNL     1       1.663  -5.494   1.515  0.00  0.00    +0.054 A 
ATOM     19  O   UNL     1       3.407  -6.691   2.863  0.00  0.00    -0.453 OA
ATOM     20  C   UNL     1       4.707  -7.150   2.446  0.00  0.00    +0.466 C 
ATOM     21  O   UNL     1       5.149  -6.134   1.527  0.00  0.00    -0.453 OA
ENDBRANCH   9  13
BRANCH  11  22
ATOM     22  N   UNL     1      -0.696  -4.583  -3.609  0.00  0.00    -0.328 N 
ATOM     23  H   UNL     1      -0.955  -5.517  -3.655  0.00  0.00    +0.145 HD
ATOM     24  H   UNL     1      -0.698  -4.039  -4.412  0.00  0.00    +0.145 HD
ENDBRANCH  11  22
BRANCH  10  25
ATOM     25  C   UNL     1      -0.721  -6.183  -1.406  0.00  0.00    +0.101 C 
ATOM     26  N   UNL     1      -1.029  -7.273  -1.491  0.00  0.00    -0.191 NA
ENDBRANCH  10  25
BRANCH   8  27
ATOM     27  C   UNL     1       0.024   0.067   2.441  0.00  0.00    +0.156 C 
BRANCH  27  28
ATOM     28  C   UNL     1      -1.418   0.307   2.893  0.00  0.00    +0.138 C 
ATOM     29  C   UNL     1      -1.430   1.196   4.155  0.00  0.00    +0.035 C 
ATOM     30  C   UNL     1      -2.566   0.556   4.998  0.00  0.00    +0.031 C 
ATOM     31  C   UNL     1      -2.403  -0.939   4.624  0.00  0.00    +0.160 C 
ATOM     32  O   UNL     1      -2.034  -0.941   3.234  0.00  0.00    -0.375 OA
ENDBRANCH  27  28
ENDBRANCH   8  27
TORSDOF 5
