REMARK  Name = ZINC67609623
REMARK  5 active torsions:
REMARK  status: ('A' for Active; 'I' for Inactive)
REMARK    1  A    between atoms: C_1  and  C_2
REMARK    2  A    between atoms: C_2  and  C_4
REMARK    3  A    between atoms: C_2  and  N_13
REMARK    4  A    between atoms: C_19  and  N_22
REMARK    5  A    between atoms: N_22  and  C_23
REMARK                            x       y       z     vdW  Elec       q    Type
REMARK                         _______ _______ _______ _____ _____    ______ ____
ROOT
ATOM      1  N   UNL     1       0.688  -0.476  -1.203  0.00  0.00    -0.290 N 
ATOM      2  C   UNL     1       0.006  -0.608  -2.358  0.00  0.00    +0.303 C 
ATOM      3  O   UNL     1      -1.178  -0.335  -2.400  0.00  0.00    -0.253 OA
ATOM      4  N   UNL     1       0.637  -1.043  -3.467  0.00  0.00    -0.284 N 
ATOM      5  C   UNL     1       2.057  -1.413  -3.556  0.00  0.00    +0.111 C 
ATOM      6  C   UNL     1       2.321  -1.874  -5.005  0.00  0.00    +0.043 C 
ATOM      7  C   UNL     1       0.908  -2.274  -5.505  0.00  0.00    +0.089 C 
ATOM      8  C   UNL     1       0.016  -1.232  -4.791  0.00  0.00    +0.131 C 
ATOM      9  H   UNL     1       1.632  -0.695  -1.170  0.00  0.00    +0.151 HD
ENDROOT
BRANCH   1  11
ATOM     10  C   UNL     1      -0.019   1.526   0.010  0.00  0.00    +0.036 C 
ATOM     11  C   UNL     1       0.002  -0.004   0.002  0.00  0.00    +0.137 C 
BRANCH  11  12
ATOM     12  C   UNL     1       0.731  -0.503   1.223  0.00  0.00    +0.126 A 
ATOM     13  C   UNL     1       0.140  -0.958   2.336  0.00  0.00    +0.055 A 
ATOM     14  C   UNL     1       1.225  -1.333   3.251  0.00  0.00    +0.020 A 
ATOM     15  C   UNL     1       1.275  -1.860   4.541  0.00  0.00    +0.011 A 
ATOM     16  C   UNL     1       2.486  -2.101   5.129  0.00  0.00    +0.001 A 
ATOM     17  C   UNL     1       3.663  -1.824   4.450  0.00  0.00    +0.004 A 
ATOM     18  C   UNL     1       3.634  -1.302   3.174  0.00  0.00    +0.047 A 
ATOM     19  C   UNL     1       2.414  -1.051   2.558  0.00  0.00    +0.135 A 
ATOM     20  O   UNL     1       2.068  -0.562   1.351  0.00  0.00    -0.458 OA
ENDBRANCH  11  12
ENDBRANCH   1  11
BRANCH   7  21
ATOM     21  N   UNL     1       0.810  -2.145  -6.961  0.00  0.00    -0.339 N 
ATOM     22  H   UNL     1       1.392  -1.530  -7.434  0.00  0.00    +0.146 HD
BRANCH  21  23
ATOM     23  C   UNL     1      -0.122  -2.908  -7.669  0.00  0.00    +0.027 A 
ATOM     24  C   UNL     1      -0.960  -3.785  -6.993  0.00  0.00    +0.023 A 
ATOM     25  C   UNL     1      -1.881  -4.537  -7.696  0.00  0.00    +0.002 A 
ATOM     26  C   UNL     1      -1.968  -4.418  -9.071  0.00  0.00    +0.000 A 
ATOM     27  C   UNL     1      -1.135  -3.546  -9.747  0.00  0.00    +0.002 A 
ATOM     28  C   UNL     1      -0.216  -2.786  -9.049  0.00  0.00    +0.023 A 
ENDBRANCH  21  23
ENDBRANCH   7  21
TORSDOF 4
