REMARK  Name = ZINC07936489
REMARK  15 active torsions:
REMARK  status: ('A' for Active; 'I' for Inactive)
REMARK    1  A    between atoms: C_1  and  C_2
REMARK    2  A    between atoms: C_2  and  C_4
REMARK    3  A    between atoms: C_2  and  S_11
REMARK    4  A    between atoms: N_6  and  C_7
REMARK    5  A    between atoms: C_7  and  C_8
REMARK    6  A    between atoms: C_7  and  C_9
REMARK    7  A    between atoms: C_7  and  C_10
REMARK    8  A    between atoms: S_11  and  C_12
REMARK    9  A    between atoms: C_15  and  C_18
REMARK   10  A    between atoms: N_16  and  N_17
REMARK   11  A    between atoms: C_18  and  O_19
REMARK   12  A    between atoms: O_19  and  C_20
REMARK   13  A    between atoms: C_23  and  C_26
REMARK   14  A    between atoms: C_26  and  C_27
REMARK   15  A    between atoms: C_26  and  C_28
REMARK                            x       y       z     vdW  Elec       q    Type
REMARK                         _______ _______ _______ _____ _____    ______ ____
ROOT
ATOM      1  C   UNL     1       2.509  -0.029  -1.285  0.00  0.00    +0.209 A 
ATOM      2  N   UNL     1       2.983   0.649  -0.266  0.00  0.00    -0.121 NA
ATOM      3  N   UNL     1       4.232   0.891  -0.446  0.00  0.00    -0.128 NA
ATOM      4  C   UNL     1       4.627   0.387  -1.581  0.00  0.00    +0.189 A 
ATOM      5  N   UNL     1       3.545  -0.222  -2.153  0.00  0.00    -0.225 N 
ENDROOT
BRANCH   5   6
ATOM      6  N   UNL     1       3.507  -0.884  -3.348  0.00  0.00    -0.295 N 
ATOM      7  H   UNL     1       3.280  -0.255  -4.103  0.00  0.00    +0.163 HD
ATOM      8  H   UNL     1       4.379  -1.361  -3.524  0.00  0.00    +0.163 HD
ENDBRANCH   5   6
BRANCH   1   9
ATOM      9  S   UNL     1       0.851  -0.589  -1.490  0.00  0.00    -0.072 S 
BRANCH   9  11
ATOM     10  C   UNL     1      -0.019   1.526   0.010  0.00  0.00    +0.029 C 
ATOM     11  C   UNL     1       0.002  -0.004   0.002  0.00  0.00    +0.137 C 
BRANCH  11  12
ATOM     12  C   UNL     1      -1.412  -0.526   0.013  0.00  0.00    +0.227 C 
ATOM     13  O   UNL     1      -1.927  -0.901  -1.019  0.00  0.00    -0.275 OA
ATOM     14  N   UNL     1      -2.103  -0.575   1.169  0.00  0.00    -0.310 N 
ATOM     15  H   UNL     1      -1.691  -0.275   1.994  0.00  0.00    +0.149 HD
BRANCH  14  16
ATOM     16  C   UNL     1      -3.478  -1.082   1.179  0.00  0.00    +0.026 C 
ATOM     17  C   UNL     1      -3.492  -2.528   0.678  0.00  0.00    +0.031 C 
ATOM     18  C   UNL     1      -4.029  -1.031   2.605  0.00  0.00    +0.031 C 
ATOM     19  C   UNL     1      -4.347  -0.217   0.265  0.00  0.00    +0.031 C 
ENDBRANCH  14  16
ENDBRANCH  11  12
ENDBRANCH   9  11
ENDBRANCH   1   9
BRANCH   4  20
ATOM     20  C   UNL     1       6.019   0.457  -2.153  0.00  0.00    +0.306 C 
BRANCH  20  21
ATOM     21  O   UNL     1       6.772  -0.675  -1.712  0.00  0.00    -0.484 OA
BRANCH  21  22
ATOM     22  C   UNL     1       8.059  -0.766  -2.142  0.00  0.00    +0.121 A 
ATOM     23  C   UNL     1       8.587   0.218  -2.966  0.00  0.00    +0.046 A 
ATOM     24  C   UNL     1       9.895   0.124  -3.401  0.00  0.00    +0.007 A 
ATOM     25  C   UNL     1      10.677  -0.949  -3.016  0.00  0.00    -0.045 A 
ATOM     26  C   UNL     1      10.153  -1.931  -2.196  0.00  0.00    +0.007 A 
ATOM     27  C   UNL     1       8.847  -1.839  -1.753  0.00  0.00    +0.046 A 
BRANCH  25  28
ATOM     28  C   UNL     1      12.103  -1.050  -3.492  0.00  0.00    +0.013 C 
ATOM     29  C   UNL     1      13.044  -1.065  -2.286  0.00  0.00    +0.012 C 
ATOM     30  C   UNL     1      12.283  -2.339  -4.296  0.00  0.00    +0.012 C 
ENDBRANCH  25  28
ENDBRANCH  21  22
ENDBRANCH  20  21
ENDBRANCH   4  20
TORSDOF 9
