REMARK  Name = ZINC45579862
REMARK  7 active torsions:
REMARK  status: ('A' for Active; 'I' for Inactive)
REMARK    1  A    between atoms: C_1  and  C_2
REMARK    2  A    between atoms: C_2  and  C_24
REMARK    3  A    between atoms: N_5  and  N_9
REMARK    4  A    between atoms: C_10  and  C_12
REMARK    5  A    between atoms: C_15  and  C_17
REMARK    6  A    between atoms: C_24  and  C_25
REMARK    7  A    between atoms: C_25  and  C_26
REMARK                            x       y       z     vdW  Elec       q    Type
REMARK                         _______ _______ _______ _____ _____    ______ ____
ROOT
ATOM      1  C   UNL     1      -0.019   1.526   0.010  0.00  0.00    +0.041 C 
ATOM      2  C   UNL     1       0.002  -0.004   0.002  0.00  0.00    +0.112 C 
ATOM      3  C   UNL     1      -1.403  -0.557   0.139  0.00  0.00    +0.263 C 
ATOM      4  O   UNL     1      -2.332  -0.392  -0.621  0.00  0.00    -0.271 OA
ATOM      5  N   UNL     1      -1.403  -1.272   1.282  0.00  0.00    -0.137 N 
ATOM      6  C   UNL     1      -0.206  -1.247   1.879  0.00  0.00    +0.326 C 
ATOM      7  O   UNL     1       0.040  -1.819   2.924  0.00  0.00    -0.251 OA
ATOM      8  N   UNL     1       0.695  -0.520   1.195  0.00  0.00    -0.284 N 
ATOM      9  H   UNL     1       1.621  -0.365   1.440  0.00  0.00    +0.151 HD
ENDROOT
BRANCH   5  10
ATOM     10  N   UNL     1      -2.518  -1.955   1.783  0.00  0.00    -0.219 N 
ATOM     11  C   UNL     1      -2.586  -3.298   1.684  0.00  0.00    +0.267 C 
ATOM     12  O   UNL     1      -1.678  -3.916   1.161  0.00  0.00    -0.268 OA
ATOM     13  H   UNL     1      -3.242  -1.462   2.200  0.00  0.00    +0.174 HD
BRANCH  11  14
ATOM     14  C   UNL     1      -3.753  -4.012   2.208  0.00  0.00    +0.076 A 
ATOM     15  C   UNL     1      -4.011  -5.375   2.211  0.00  0.00    +0.021 A 
ATOM     16  C   UNL     1      -5.180  -5.821   2.761  0.00  0.00    +0.017 A 
ATOM     17  C   UNL     1      -6.062  -4.894   3.294  0.00  0.00    +0.020 A 
ATOM     18  S   UNL     1      -5.204  -3.353   3.013  0.00  0.00    -0.084 S 
BRANCH  17  19
ATOM     19  C   UNL     1      -7.373  -5.122   3.936  0.00  0.00    -0.011 A 
ATOM     20  C   UNL     1      -7.870  -6.420   4.072  0.00  0.00    +0.010 A 
ATOM     21  C   UNL     1      -9.094  -6.627   4.673  0.00  0.00    +0.020 A 
ATOM     22  C   UNL     1      -9.830  -5.550   5.140  0.00  0.00    +0.041 A 
ATOM     23  C   UNL     1      -9.343  -4.261   5.007  0.00  0.00    +0.020 A 
ATOM     24  C   UNL     1      -8.117  -4.042   4.414  0.00  0.00    +0.010 A 
ATOM     25 CL   UNL     1     -11.370  -5.819   5.894  0.00  0.00    -0.084 Cl
ENDBRANCH  17  19
ENDBRANCH  11  14
ENDBRANCH   5  10
BRANCH   2  26
ATOM     26  C   UNL     1       0.667  -0.525  -1.274  0.00  0.00    +0.040 C 
BRANCH  26  27
ATOM     27  C   UNL     1       2.136  -0.098  -1.294  0.00  0.00    +0.038 C 
BRANCH  27  28
ATOM     28  C   UNL     1       2.791  -0.611  -2.551  0.00  0.00    -0.047 A 
ATOM     29  C   UNL     1       3.388  -1.858  -2.560  0.00  0.00    +0.003 A 
ATOM     30  C   UNL     1       3.988  -2.328  -3.712  0.00  0.00    +0.000 A 
ATOM     31  C   UNL     1       3.992  -1.552  -4.856  0.00  0.00    +0.000 A 
ATOM     32  C   UNL     1       3.394  -0.305  -4.847  0.00  0.00    +0.000 A 
ATOM     33  C   UNL     1       2.790   0.163  -3.696  0.00  0.00    +0.003 A 
ENDBRANCH  27  28
ENDBRANCH  26  27
ENDBRANCH   2  26
TORSDOF 6
