REMARK  Name = ZINC32974846
REMARK  9 active torsions:
REMARK  status: ('A' for Active; 'I' for Inactive)
REMARK    1  A    between atoms: C_1  and  C_2
REMARK    2  A    between atoms: C_7  and  N_8
REMARK    3  A    between atoms: C_9  and  C_11
REMARK    4  A    between atoms: C_11  and  S_12
REMARK    5  A    between atoms: S_12  and  C_13
REMARK    6  A    between atoms: N_26  and  C_27
REMARK    7  A    between atoms: C_27  and  C_28
REMARK    8  A    between atoms: C_28  and  C_29
REMARK    9  A    between atoms: C_28  and  C_30
REMARK                            x       y       z     vdW  Elec       q    Type
REMARK                         _______ _______ _______ _____ _____    ______ ____
ROOT
ATOM      1  C   UNL     1       0.082   0.987   2.823  0.00  0.00    +0.198 A 
ATOM      2  N   UNL     1       1.154   0.242   2.700  0.00  0.00    -0.120 NA
ATOM      3  N   UNL     1       1.607  -0.081   3.985  0.00  0.00    -0.109 NA
ATOM      4  C   UNL     1       0.797   0.478   4.856  0.00  0.00    +0.240 A 
ATOM      5  N   UNL     1      -0.164   1.157   4.159  0.00  0.00    -0.256 N 
ATOM      6  C   UNL     1      -1.164   1.858   4.829  0.00  0.00    +0.064 A 
ATOM      7  C   UNL     1      -2.144   2.547   4.131  0.00  0.00    +0.027 A 
ATOM      8  C   UNL     1      -3.123   3.235   4.821  0.00  0.00    +0.002 A 
ATOM      9  C   UNL     1      -3.136   3.242   6.207  0.00  0.00    +0.001 A 
ATOM     10  C   UNL     1      -2.169   2.562   6.917  0.00  0.00    +0.015 A 
ATOM     11  C   UNL     1      -1.175   1.865   6.232  0.00  0.00    +0.064 A 
ATOM     12  C   UNL     1      -0.124   1.126   6.954  0.00  0.00    +0.263 A 
ATOM     13  O   UNL     1      -0.102   1.110   8.171  0.00  0.00    -0.267 OA
ATOM     14  N   UNL     1       0.809   0.461   6.243  0.00  0.00    -0.276 N 
ENDROOT
BRANCH   1  15
ATOM     15  S   UNL     1      -0.871   1.656   1.501  0.00  0.00    -0.076 S 
BRANCH  15  16
ATOM     16  C   UNL     1      -0.021   1.073   0.008  0.00  0.00    +0.173 C 
BRANCH  16  18
ATOM     17  N   UNL     1      -0.288   1.272  -2.443  0.00  0.00    -0.285 N 
ATOM     18  C   UNL     1      -0.743   1.582  -1.213  0.00  0.00    +0.227 C 
ATOM     19  O   UNL     1      -1.734   2.271  -1.088  0.00  0.00    -0.275 OA
ATOM     20  H   UNL     1       0.659   0.725  -2.558  0.00  0.00    +0.155 HD
BRANCH  17  27
ATOM     21  C   UNL     1       1.104   1.578  -4.906  0.00  0.00    +0.045 C 
ATOM     22  C   UNL     1      -0.382   1.807  -4.796  0.00  0.00    -0.029 A 
ATOM     23  C   UNL     1      -1.108   2.176  -5.912  0.00  0.00    +0.005 A 
ATOM     24  C   UNL     1      -2.471   2.386  -5.812  0.00  0.00    +0.000 A 
ATOM     25  C   UNL     1      -3.112   2.226  -4.597  0.00  0.00    +0.002 A 
ATOM     26  C   UNL     1      -2.392   1.853  -3.479  0.00  0.00    +0.023 A 
ATOM     27  C   UNL     1      -1.022   1.646  -3.575  0.00  0.00    +0.036 A 
ENDBRANCH  17  27
ENDBRANCH  16  18
ENDBRANCH  15  16
ENDBRANCH   1  15
BRANCH  14  28
ATOM     28  C   UNL     1       1.862  -0.276   6.946  0.00  0.00    +0.131 C 
BRANCH  28  29
ATOM     29  C   UNL     1       3.052   0.651   7.198  0.00  0.00    +0.003 C 
ATOM     30  C   UNL     1       2.633   1.770   8.155  0.00  0.00    +0.009 C 
ATOM     31  C   UNL     1       4.199  -0.148   7.820  0.00  0.00    +0.009 C 
ENDBRANCH  28  29
ENDBRANCH  14  28
TORSDOF 6
