REMARK  Name = ZINC31746854
REMARK  9 active torsions:
REMARK  status: ('A' for Active; 'I' for Inactive)
REMARK    1  A    between atoms: C_1  and  C_2
REMARK    2  A    between atoms: C_5  and  C_9
REMARK    3  A    between atoms: C_7  and  C_8
REMARK    4  A    between atoms: C_9  and  C_11
REMARK    5  A    between atoms: C_11  and  C_13
REMARK    6  A    between atoms: C_11  and  S_14
REMARK    7  A    between atoms: S_14  and  C_15
REMARK    8  A    between atoms: C_18  and  S_21
REMARK    9  A    between atoms: S_21  and  N_24
REMARK                            x       y       z     vdW  Elec       q    Type
REMARK                         _______ _______ _______ _____ _____    ______ ____
ROOT
ATOM      1  C   UNL     1       1.876  -1.402  -4.664  0.00  0.00    +0.098 A 
ATOM      2  C   UNL     1       1.879  -2.376  -3.670  0.00  0.00    +0.037 A 
ATOM      3  C   UNL     1       1.047  -2.223  -2.576  0.00  0.00    +0.032 A 
ATOM      4  C   UNL     1       0.236  -1.096  -2.513  0.00  0.00    +0.124 A 
ATOM      5  C   UNL     1       0.280  -0.173  -3.538  0.00  0.00    +0.140 A 
ATOM      6  N   UNL     1       1.088  -0.342  -4.567  0.00  0.00    -0.247 NA
ENDROOT
BRANCH   4   7
ATOM      7  S   UNL     1      -0.843  -0.853  -1.141  0.00  0.00    +0.062 S 
ATOM      8  O   UNL     1      -1.095  -2.138  -0.589  0.00  0.00    -0.153 OA
ATOM      9  O   UNL     1      -1.887   0.000  -1.592  0.00  0.00    -0.153 OA
BRANCH   7  10
ATOM     10  N   UNL     1       0.002  -0.004   0.002  0.00  0.00    -0.177 NA
ATOM     11  C   UNL     1      -0.018   1.465   0.010  0.00  0.00    +0.109 C 
ATOM     12  C   UNL     1       1.426   1.978  -0.001  0.00  0.00    +0.017 C 
ATOM     13  C   UNL     1       2.194   1.353   1.166  0.00  0.00    +0.003 C 
ATOM     14  C   UNL     1       2.220  -0.169   1.005  0.00  0.00    +0.017 C 
ATOM     15  C   UNL     1       0.786  -0.706   1.028  0.00  0.00    +0.109 C 
ENDBRANCH   7  10
ENDBRANCH   4   7
BRANCH   1  16
ATOM     16  S   UNL     1       2.930  -1.580  -6.065  0.00  0.00    -0.095 S 
BRANCH  16  17
ATOM     17  C   UNL     1       2.588  -0.105  -7.063  0.00  0.00    +0.121 C 
ATOM     18  C   UNL     1       1.141  -0.148  -7.558  0.00  0.00    +0.028 C 
BRANCH  17  19
ATOM     19  C   UNL     1       3.522  -0.070  -8.245  0.00  0.00    +0.176 C 
ATOM     20  O   UNL     1       4.003  -1.100  -8.668  0.00  0.00    -0.291 OA
BRANCH  19  25
ATOM     21  C   UNL     1       4.808   4.944 -10.746  0.00  0.00    +0.044 C 
ATOM     22  C   UNL     1       4.471   3.629 -10.091  0.00  0.00    -0.047 A 
ATOM     23  C   UNL     1       3.612   3.602  -9.005  0.00  0.00    +0.004 A 
ATOM     24  C   UNL     1       3.299   2.403  -8.400  0.00  0.00    +0.011 A 
ATOM     25  C   UNL     1       3.851   1.213  -8.886  0.00  0.00    +0.019 A 
ATOM     26  C   UNL     1       4.722   1.250  -9.979  0.00  0.00    +0.015 A 
ATOM     27  C   UNL     1       5.021   2.456 -10.577  0.00  0.00    -0.047 A 
ATOM     28  C   UNL     1       5.955   2.498 -11.759  0.00  0.00    +0.044 C 
ENDBRANCH  19  25
ENDBRANCH  17  19
ENDBRANCH  16  17
ENDBRANCH   1  16
TORSDOF 6
