REMARK  Name = ZINC15128590
REMARK  10 active torsions:
REMARK  status: ('A' for Active; 'I' for Inactive)
REMARK    1  A    between atoms: C_1  and  O_2
REMARK    2  A    between atoms: O_2  and  C_3
REMARK    3  A    between atoms: C_8  and  C_9
REMARK    4  A    between atoms: C_9  and  C_11
REMARK    5  A    between atoms: C_9  and  N_63
REMARK    6  A    between atoms: C_11  and  N_12
REMARK    7  A    between atoms: N_12  and  C_13
REMARK    8  A    between atoms: C_16  and  S_22
REMARK    9  A    between atoms: C_18  and  N_19
REMARK   10  A    between atoms: S_22  and  N_25
REMARK                            x       y       z     vdW  Elec       q    Type
REMARK                         _______ _______ _______ _____ _____    ______ ____
ROOT
ATOM      1  N   UNL     1      -3.454   2.801   4.793  0.00  0.00    -0.343 N 
ATOM      2  H   UNL     1      -4.098   2.126   5.057  0.00  0.00    +0.146 HD
ENDROOT
BRANCH   1   3
ATOM      3  C   UNL     1      -2.611   2.574   3.702  0.00  0.00    +0.058 A 
ATOM      4  C   UNL     1      -1.608   3.485   3.396  0.00  0.00    +0.027 A 
ATOM      5  C   UNL     1      -0.773   3.254   2.320  0.00  0.00    +0.030 A 
ATOM      6  C   UNL     1      -0.943   2.124   1.541  0.00  0.00    +0.108 A 
ATOM      7  C   UNL     1      -1.941   1.216   1.843  0.00  0.00    +0.063 A 
ATOM      8  C   UNL     1      -2.775   1.438   2.921  0.00  0.00    +0.149 A 
BRANCH   8   9
ATOM      9  N   UNL     1      -3.844   0.465   3.243  0.00  0.00    +0.058 N 
ATOM     10  O   UNL     1      -4.059  -0.472   2.496  0.00  0.00    -0.126 OA
ATOM     11  O   UNL     1      -4.507   0.602   4.255  0.00  0.00    -0.126 OA
ENDBRANCH   8   9
BRANCH   6  12
ATOM     12  S   UNL     1       0.119   1.838   0.165  0.00  0.00    +0.061 S 
ATOM     13  O   UNL     1       0.108   0.437  -0.072  0.00  0.00    -0.153 OA
ATOM     14  O   UNL     1       1.318   2.558   0.420  0.00  0.00    -0.153 OA
BRANCH  12  15
ATOM     15  N   UNL     1      -0.587   2.547  -1.155  0.00  0.00    -0.177 NA
ATOM     16  C   UNL     1      -1.527   1.894  -2.078  0.00  0.00    +0.109 C 
ATOM     17  C   UNL     1      -1.899   2.929  -3.161  0.00  0.00    +0.018 C 
ATOM     18  C   UNL     1      -0.706   3.920  -3.115  0.00  0.00    +0.018 C 
ATOM     19  C   UNL     1      -0.371   3.935  -1.603  0.00  0.00    +0.109 C 
ENDBRANCH  12  15
ENDBRANCH   6  12
ENDBRANCH   1   3
BRANCH   1  20
ATOM     20  C   UNL     1      -3.365   4.060   5.537  0.00  0.00    +0.091 C 
BRANCH  20  21
ATOM     21  C   UNL     1      -4.300   4.004   6.747  0.00  0.00    -0.017 C 
BRANCH  21  27
ATOM     22  C   UNL     1      -2.832   3.265   8.641  0.00  0.00    +0.122 A 
ATOM     23  C   UNL     1      -2.389   2.296   9.530  0.00  0.00    +0.046 A 
ATOM     24  C   UNL     1      -2.916   1.020   9.478  0.00  0.00    +0.004 A 
ATOM     25  C   UNL     1      -3.888   0.710   8.545  0.00  0.00    +0.000 A 
ATOM     26  C   UNL     1      -4.335   1.675   7.662  0.00  0.00    +0.005 A 
ATOM     27  C   UNL     1      -3.812   2.953   7.710  0.00  0.00    -0.018 A 
BRANCH  22  29
ATOM     28  C   UNL     1      -1.307   4.770   9.671  0.00  0.00    +0.277 C 
ATOM     29  O   UNL     1      -2.312   4.520   8.687  0.00  0.00    -0.495 OA
ENDBRANCH  22  29
ENDBRANCH  21  27
BRANCH  21  34
ATOM     30  C   UNL     1      -6.606   3.658   7.445  0.00  0.00    -0.078 C 
ATOM     31  C   UNL     1      -7.987   3.819   6.761  0.00  0.00    -0.020 C 
ATOM     32  C   UNL     1      -7.689   4.802   5.606  0.00  0.00    -0.020 C 
ATOM     33  C   UNL     1      -6.174   4.683   5.358  0.00  0.00    -0.078 C 
ATOM     34  N   UNL     1      -5.685   3.673   6.298  0.00  0.00    +0.385 N 
ATOM     35  H   UNL     1      -5.681   2.751   5.845  0.00  0.00    -0.081 HD
ENDBRANCH  21  34
ENDBRANCH  20  21
ENDBRANCH   1  20
TORSDOF 9
