REMARK  Name = ZINC09433779
REMARK  13 active torsions:
REMARK  status: ('A' for Active; 'I' for Inactive)
REMARK    1  A    between atoms: C_1  and  C_2
REMARK    2  A    between atoms: C_2  and  C_3
REMARK    3  A    between atoms: C_3  and  C_5
REMARK    4  A    between atoms: C_3  and  N_66
REMARK    5  A    between atoms: C_6  and  C_7
REMARK    6  A    between atoms: C_6  and  N_66
REMARK    7  A    between atoms: C_7  and  N_8
REMARK    8  A    between atoms: C_9  and  C_11
REMARK    9  A    between atoms: N_13  and  C_22
REMARK   10  A    between atoms: C_25  and  O_28
REMARK   11  A    between atoms: O_28  and  C_29
REMARK   12  A    between atoms: C_30  and  C_31
REMARK   13  A    between atoms: C_30  and  N_66
REMARK                            x       y       z     vdW  Elec       q    Type
REMARK                         _______ _______ _______ _____ _____    ______ ____
ROOT
ATOM      1  C   UNL     1       4.896   3.268   1.872  0.00  0.00    +0.061 A 
ATOM      2  C   UNL     1       3.724   3.960   1.937  0.00  0.00    +0.108 A 
ATOM      3  N   UNL     1       2.715   3.595   2.766  0.00  0.00    -0.283 N 
ATOM      4  C   UNL     1       2.798   2.526   3.581  0.00  0.00    +0.263 A 
ATOM      5  O   UNL     1       1.866   2.236   4.309  0.00  0.00    -0.267 OA
ATOM      6  C   UNL     1       4.020   1.712   3.587  0.00  0.00    +0.048 A 
ATOM      7  C   UNL     1       5.077   2.083   2.728  0.00  0.00    +0.001 A 
ATOM      8  C   UNL     1       6.250   1.333   2.710  0.00  0.00    +0.009 A 
ATOM      9  C   UNL     1       6.366   0.233   3.533  0.00  0.00    +0.001 A 
ATOM     10  C   UNL     1       5.327  -0.133   4.378  0.00  0.00    +0.001 A 
ATOM     11  C   UNL     1       4.156   0.593   4.407  0.00  0.00    +0.014 A 
ENDROOT
BRANCH   3  12
ATOM     12  C   UNL     1       1.540   4.359   2.775  0.00  0.00    +0.050 A 
ATOM     13  C   UNL     1       0.359   3.824   2.279  0.00  0.00    +0.030 A 
ATOM     14  C   UNL     1      -0.799   4.575   2.294  0.00  0.00    +0.047 A 
ATOM     15  C   UNL     1      -0.780   5.869   2.794  0.00  0.00    +0.120 A 
ATOM     16  C   UNL     1       0.401   6.407   3.284  0.00  0.00    +0.047 A 
ATOM     17  C   UNL     1       1.558   5.654   3.275  0.00  0.00    +0.030 A 
BRANCH  15  18
ATOM     18  O   UNL     1      -1.920   6.611   2.803  0.00  0.00    -0.495 OA
ATOM     19  C   UNL     1      -3.099   5.994   2.283  0.00  0.00    +0.277 C 
ENDBRANCH  15  18
ENDBRANCH   3  12
BRANCH   1  21
ATOM     20  N   UNL     1       5.850   4.859   0.283  0.00  0.00    -0.313 N 
ATOM     21  C   UNL     1       5.966   3.699   0.959  0.00  0.00    +0.246 C 
ATOM     22  O   UNL     1       6.956   3.007   0.813  0.00  0.00    -0.270 OA
ATOM     23  H   UNL     1       5.096   5.446   0.454  0.00  0.00    +0.149 HD
BRANCH  20  24
ATOM     24  C   UNL     1       6.861   5.235  -0.708  0.00  0.00    +0.086 C 
BRANCH  24  25
ATOM     25  C   UNL     1       6.494   6.586  -1.324  0.00  0.00    -0.059 C 
BRANCH  25  26
ATOM     26  N   UNL     1       7.607   7.032  -2.188  0.00  0.00    +0.387 N 
ATOM     27  H   UNL     1       8.494   6.888  -1.690  0.00  0.00    -0.081 HD
BRANCH  26  28
ATOM     28  C   UNL     1       7.625   6.242  -3.437  0.00  0.00    -0.071 C 
ATOM     29  C   UNL     1       8.498   5.005  -3.219  0.00  0.00    -0.013 C 
BRANCH  28  31
ATOM     30  C   UNL     1       5.367   7.039  -4.152  0.00  0.00    +0.002 C 
ATOM     31  C   UNL     1       6.207   5.806  -3.812  0.00  0.00    -0.019 C 
ENDBRANCH  28  31
ENDBRANCH  26  28
BRANCH  26  32
ATOM     32  C   UNL     1       7.460   8.469  -2.501  0.00  0.00    -0.003 C 
BRANCH  32  33
ATOM     33  C   UNL     1       8.766   8.981  -3.051  0.00  0.00    +0.089 A 
ATOM     34  C   UNL     1       9.070   9.118  -4.354  0.00  0.00    +0.042 A 
ATOM     35  C   UNL     1      10.388   9.627  -4.415  0.00  0.00    +0.041 A 
ATOM     36  C   UNL     1      10.810   9.771  -3.146  0.00  0.00    +0.195 A 
ATOM     37  O   UNL     1       9.821   9.383  -2.324  0.00  0.00    -0.470 OA
ENDBRANCH  32  33
ENDBRANCH  26  32
ENDBRANCH  25  26
ENDBRANCH  24  25
ENDBRANCH  20  24
ENDBRANCH   1  21
TORSDOF 10
