REMARK  Name = ZINC20576435
REMARK  9 active torsions:
REMARK  status: ('A' for Active; 'I' for Inactive)
REMARK    1  A    between atoms: C_1  and  C_2
REMARK    2  A    between atoms: C_17  and  C_18
REMARK    3  A    between atoms: C_18  and  N_19
REMARK    4  A    between atoms: N_19  and  C_20
REMARK    5  A    between atoms: C_20  and  C_21
REMARK    6  A    between atoms: C_21  and  C_22
REMARK    7  A    between atoms: C_22  and  N_23
REMARK    8  A    between atoms: N_23  and  C_24
REMARK    9  A    between atoms: N_23  and  C_25
REMARK                            x       y       z     vdW  Elec       q    Type
REMARK                         _______ _______ _______ _____ _____    ______ ____
ROOT
ATOM      1  C   UNL     1      11.463  -5.540  -2.136  0.00  0.00    +0.007 C 
ATOM      2  C   UNL     1      10.865  -4.633  -1.058  0.00  0.00    -0.011 C 
ATOM      3  C   UNL     1       9.605  -3.954  -1.603  0.00  0.00    +0.022 C 
ATOM      4  C   UNL     1       9.046  -3.003  -0.542  0.00  0.00    +0.107 C 
ATOM      5  N   UNL     1      10.059  -1.996  -0.202  0.00  0.00    -0.308 N 
ATOM      6  C   UNL     1      11.260  -2.622   0.366  0.00  0.00    +0.107 C 
ATOM      7  C   UNL     1      11.885  -3.561  -0.667  0.00  0.00    +0.022 C 
ATOM      8  C   UNL     1       9.541  -1.040   0.660  0.00  0.00    +0.186 A 
ATOM      9  N   UNL     1       8.327  -0.930   1.180  0.00  0.00    -0.124 NA
ATOM     10  N   UNL     1       8.019   0.011   1.962  0.00  0.00    -0.121 NA
ATOM     11  C   UNL     1       8.884   0.952   2.302  0.00  0.00    +0.202 A 
ATOM     12  S   UNL     1      10.321   0.398   1.388  0.00  0.00    -0.013 S 
ATOM     13  N   UNL     1       8.725   2.058   3.139  0.00  0.00    -0.297 N 
ATOM     14  C   UNL     1       9.688   2.980   3.433  0.00  0.00    +0.093 A 
ATOM     15  C   UNL     1       9.158   3.889   4.277  0.00  0.00    +0.020 A 
ATOM     16  C   UNL     1       7.817   3.520   4.508  0.00  0.00    +0.024 A 
ATOM     17  C   UNL     1       7.577   2.399   3.797  0.00  0.00    +0.039 A 
ENDROOT
BRANCH  17  18
ATOM     18  C   UNL     1       6.271   1.649   3.744  0.00  0.00    +0.135 C 
BRANCH  18  19
ATOM     19  N   UNL     1       5.500   2.092   2.575  0.00  0.00    -0.311 NA
ATOM     20  H   UNL     1       5.300   3.171   2.655  0.00  0.00    +0.122 HD
BRANCH  19  21
ATOM     21  C   UNL     1       4.217   1.381   2.491  0.00  0.00    +0.079 C 
BRANCH  21  22
ATOM     22  C   UNL     1       3.444   1.868   1.264  0.00  0.00    -0.003 C 
BRANCH  22  23
ATOM     23  C   UNL     1       2.108   1.127   1.176  0.00  0.00    -0.078 C 
BRANCH  23  24
ATOM     24  N   UNL     1       1.365   1.594  -0.002  0.00  0.00    +0.380 N 
ATOM     25  C   UNL     1       2.056   1.218  -1.243  0.00  0.00    -0.096 C 
ATOM     26  H   UNL     1       1.321   2.693   0.040  0.00  0.00    -0.082 HD
BRANCH  24  27
ATOM     27  C   UNL     1      -0.013   1.086   0.008  0.00  0.00    -0.069 C 
ATOM     28  C   UNL     1      -0.729   1.579   1.267  0.00  0.00    -0.015 C 
ATOM     29  C   UNL     1      -2.164   1.050   1.278  0.00  0.00    -0.002 C 
ATOM     30  C   UNL     1      -2.904   1.556   0.038  0.00  0.00    -0.000 C 
ATOM     31  C   UNL     1      -2.188   1.063  -1.221  0.00  0.00    -0.002 C 
ATOM     32  C   UNL     1      -0.753   1.593  -1.232  0.00  0.00    -0.015 C 
ENDBRANCH  24  27
ENDBRANCH  23  24
ENDBRANCH  22  23
ENDBRANCH  21  22
ENDBRANCH  19  21
ENDBRANCH  18  19
ENDBRANCH  17  18
TORSDOF 7
