REMARK  Name = ZINC17296276
REMARK  12 active torsions:
REMARK  status: ('A' for Active; 'I' for Inactive)
REMARK    1  A    between atoms: C_1  and  C_2
REMARK    2  A    between atoms: C_4  and  C_32
REMARK    3  A    between atoms: C_5  and  C_31
REMARK    4  A    between atoms: C_6  and  S_9
REMARK    5  A    between atoms: C_7  and  C_8
REMARK    6  A    between atoms: S_9  and  N_12
REMARK    7  A    between atoms: N_12  and  C_13
REMARK    8  A    between atoms: C_13  and  C_15
REMARK    9  A    between atoms: C_13  and  C_16
REMARK   10  A    between atoms: N_18  and  C_19
REMARK   11  A    between atoms: C_19  and  C_20
REMARK   12  A    between atoms: C_20  and  C_21
REMARK                            x       y       z     vdW  Elec       q    Type
REMARK                         _______ _______ _______ _____ _____    ______ ____
ROOT
ATOM      1  C   UNL     1      -4.744  -3.424  -3.734  0.00  0.00    +0.159 C 
ATOM      2  C   UNL     1      -4.117  -4.706  -3.181  0.00  0.00    +0.035 C 
ENDROOT
BRANCH   1   3
ATOM      3  C   UNL     1      -3.659  -2.522  -4.262  0.00  0.00    +0.231 C 
ATOM      4  O   UNL     1      -3.658  -2.193  -5.429  0.00  0.00    -0.274 OA
ATOM      5  N   UNL     1      -2.689  -2.080  -3.437  0.00  0.00    -0.314 N 
ATOM      6  H   UNL     1      -2.689  -2.343  -2.503  0.00  0.00    +0.149 HD
BRANCH   5   7
ATOM      7  C   UNL     1      -1.634  -1.203  -3.950  0.00  0.00    +0.109 C 
BRANCH   7   8
ATOM      8  C   UNL     1      -0.668  -0.850  -2.817  0.00  0.00    +0.056 C 
BRANCH   8   9
ATOM      9  C   UNL     1       0.418   0.052  -3.345  0.00  0.00    -0.021 A 
ATOM     10  C   UNL     1       1.629  -0.327  -3.780  0.00  0.00    +0.087 A 
ATOM     11  N   UNL     1       2.344   0.769  -4.183  0.00  0.00    -0.360 N 
ATOM     12  H   UNL     1       3.247   0.746  -4.536  0.00  0.00    +0.165 HD
ATOM     13  C   UNL     1       1.590   1.908  -4.012  0.00  0.00    +0.047 A 
ATOM     14  C   UNL     1       0.350   1.509  -3.479  0.00  0.00    +0.003 A 
ATOM     15  C   UNL     1      -0.626   2.466  -3.195  0.00  0.00    +0.010 A 
ATOM     16  C   UNL     1      -0.375   3.786  -3.445  0.00  0.00    +0.001 A 
ATOM     17  C   UNL     1       0.847   4.184  -3.970  0.00  0.00    +0.002 A 
ATOM     18  C   UNL     1       1.826   3.257  -4.253  0.00  0.00    +0.026 A 
ENDBRANCH   8   9
ENDBRANCH   7   8
ENDBRANCH   5   7
ENDBRANCH   1   3
BRANCH   1  19
ATOM     19  N   UNL     1      -5.669  -3.762  -4.819  0.00  0.00    -0.178 NA
ATOM     20  H   UNL     1      -5.330  -3.914  -5.715  0.00  0.00    +0.149 HD
BRANCH  19  21
ATOM     21  S   UNL     1      -7.292  -3.883  -4.515  0.00  0.00    +0.060 S 
ATOM     22  O   UNL     1      -7.919  -4.158  -5.760  0.00  0.00    -0.153 OA
ATOM     23  O   UNL     1      -7.432  -4.736  -3.387  0.00  0.00    -0.153 OA
BRANCH  21  29
ATOM     24  C   UNL     1      -8.643  -0.451  -0.812  0.00  0.00    +0.044 C 
ATOM     25  C   UNL     1      -8.457  -0.757  -2.275  0.00  0.00    -0.045 A 
ATOM     26  C   UNL     1      -8.723   0.213  -3.224  0.00  0.00    +0.007 A 
ATOM     27  C   UNL     1      -8.551  -0.068  -4.566  0.00  0.00    -0.045 A 
ATOM     28  C   UNL     1      -8.114  -1.319  -4.961  0.00  0.00    -0.021 A 
ATOM     29  C   UNL     1      -7.849  -2.289  -4.012  0.00  0.00    +0.112 A 
ATOM     30  C   UNL     1      -8.025  -2.010  -2.670  0.00  0.00    -0.021 A 
ATOM     31  C   UNL     1      -7.742  -3.069  -1.636  0.00  0.00    +0.046 C 
ATOM     32  C   UNL     1      -7.928  -1.625  -6.424  0.00  0.00    +0.046 C 
ATOM     33  C   UNL     1      -8.841   0.990  -5.600  0.00  0.00    +0.044 C 
ENDBRANCH  21  29
ENDBRANCH  19  21
ENDBRANCH   1  19
TORSDOF 7
