REMARK  Name = ZINC61701704
REMARK  8 active torsions:
REMARK  status: ('A' for Active; 'I' for Inactive)
REMARK    1  A    between atoms: C_1  and  C_2
REMARK    2  A    between atoms: C_5  and  N_9
REMARK    3  A    between atoms: C_7  and  N_8
REMARK    4  A    between atoms: N_9  and  C_10
REMARK    5  A    between atoms: C_10  and  C_12
REMARK    6  A    between atoms: C_10  and  C_13
REMARK    7  A    between atoms: C_14  and  C_19
REMARK    8  A    between atoms: C_16  and  C_18
REMARK                            x       y       z     vdW  Elec       q    Type
REMARK                         _______ _______ _______ _____ _____    ______ ____
ROOT
ATOM      1  N   UNL     1       0.058  -4.172  -0.027  0.00  0.00    -0.337 N 
ATOM      2  H   UNL     1       0.069  -4.665   0.808  0.00  0.00    +0.147 HD
ENDROOT
BRANCH   1   7
ATOM      3  C   UNL     1      -0.018   1.503   0.010  0.00  0.00    +0.045 C 
ATOM      4  C   UNL     1       0.002  -0.004   0.002  0.00  0.00    -0.030 A 
ATOM      5  C   UNL     1       0.006  -0.688  -1.199  0.00  0.00    +0.007 A 
ATOM      6  C   UNL     1       0.024  -2.069  -1.211  0.00  0.00    +0.023 A 
ATOM      7  C   UNL     1       0.040  -2.776  -0.014  0.00  0.00    +0.029 A 
ATOM      8  C   UNL     1       0.036  -2.092   1.193  0.00  0.00    +0.046 A 
ATOM      9  C   UNL     1       0.023  -0.704   1.202  0.00  0.00    +0.029 A 
BRANCH   9  10
ATOM     10  N   UNL     1       0.025  -0.013   2.415  0.00  0.00    -0.358 N 
ATOM     11  H   UNL     1       0.013   0.957   2.421  0.00  0.00    +0.142 HD
ATOM     12  H   UNL     1       0.040  -0.502   3.253  0.00  0.00    +0.142 HD
ENDBRANCH   9  10
ENDBRANCH   1   7
BRANCH   1  13
ATOM     13  C   UNL     1       0.061  -4.893  -1.303  0.00  0.00    +0.106 C 
ATOM     14  C   UNL     1       1.498  -5.015  -1.816  0.00  0.00    +0.033 C 
BRANCH  13  15
ATOM     15  C   UNL     1      -0.520  -6.269  -1.104  0.00  0.00    +0.032 A 
ATOM     16  C   UNL     1      -1.421  -6.947  -1.859  0.00  0.00    +0.051 A 
ATOM     17  N   UNL     1      -1.760  -8.152  -1.448  0.00  0.00    -0.249 NA
ATOM     18  C   UNL     1      -1.247  -8.669  -0.359  0.00  0.00    +0.076 A 
ATOM     19  S   UNL     1      -0.208  -7.463   0.187  0.00  0.00    -0.075 S 
ATOM     20  C   UNL     1      -1.517 -10.020   0.254  0.00  0.00    +0.073 C 
ATOM     21  C   UNL     1      -2.009  -6.348  -3.111  0.00  0.00    +0.066 C 
ENDBRANCH  13  15
ENDBRANCH   1  13
TORSDOF 4
