REMARK  Name = ZINC66976011
REMARK  7 active torsions:
REMARK  status: ('A' for Active; 'I' for Inactive)
REMARK    1  A    between atoms: C_5  and  C_7
REMARK    2  A    between atoms: C_7  and  C_8
REMARK    3  A    between atoms: N_10  and  N_11
REMARK    4  A    between atoms: N_14  and  C_15
REMARK    5  A    between atoms: C_15  and  C_16
REMARK    6  A    between atoms: C_16  and  C_18
REMARK    7  A    between atoms: C_16  and  N_23
REMARK                            x       y       z     vdW  Elec       q    Type
REMARK                         _______ _______ _______ _____ _____    ______ ____
ROOT
ATOM      1  N   UNL     1       0.491  -4.682   3.197  0.00  0.00    -0.218 N 
ATOM      2  C   UNL     1       0.589  -6.018   3.349  0.00  0.00    +0.316 C 
ATOM      3  O   UNL     1       0.370  -6.525   4.432  0.00  0.00    -0.251 OA
ATOM      4  N   UNL     1       0.930  -6.792   2.299  0.00  0.00    -0.299 N 
ATOM      5  H   UNL     1       0.246  -4.125   3.953  0.00  0.00    +0.174 HD
ATOM      6  H   UNL     1       1.105  -6.387   1.435  0.00  0.00    +0.150 HD
ENDROOT
BRANCH   1   9
ATOM      7  C   UNL     1       0.646  -2.762   1.798  0.00  0.00    +0.234 C 
ATOM      8  O   UNL     1       0.340  -2.066   2.743  0.00  0.00    -0.274 OA
ATOM      9  N   UNL     1       0.744  -4.098   1.949  0.00  0.00    -0.233 N 
ATOM     10  H   UNL     1       0.989  -4.655   1.194  0.00  0.00    +0.173 HD
BRANCH   7  11
ATOM     11  C   UNL     1       0.918  -2.134   0.456  0.00  0.00    +0.135 C 
BRANCH  11  16
ATOM     12  C   UNL     1      -0.628   1.307   0.303  0.00  0.00    +0.000 A 
ATOM     13  C   UNL     1       0.418   2.101   0.737  0.00  0.00    +0.003 A 
ATOM     14  C   UNL     1       1.626   1.525   1.081  0.00  0.00    +0.038 A 
ATOM     15  C   UNL     1       1.789   0.153   0.991  0.00  0.00    +0.127 A 
ATOM     16  C   UNL     1       0.742  -0.640   0.555  0.00  0.00    -0.003 A 
ATOM     17  C   UNL     1      -0.466  -0.062   0.212  0.00  0.00    +0.007 A 
ATOM     18  F   UNL     1       2.970  -0.411   1.326  0.00  0.00    -0.205 F 
ENDBRANCH  11  16
ENDBRANCH   7  11
ENDBRANCH   1   9
BRANCH   4  19
ATOM     19  C   UNL     1       1.036  -8.243   2.463  0.00  0.00    +0.098 C 
BRANCH  19  20
ATOM     20  C   UNL     1       1.304  -8.892   1.103  0.00  0.00    +0.016 C 
BRANCH  20  21
ATOM     21  N   UNL     1       0.239  -8.518   0.164  0.00  0.00    +0.387 N 
ATOM     22  C   UNL     1      -1.064  -8.883   0.733  0.00  0.00    -0.078 C 
ATOM     23  C   UNL     1      -2.181  -8.423  -0.205  0.00  0.00    -0.019 C 
ATOM     24  C   UNL     1      -2.010  -9.102  -1.567  0.00  0.00    -0.004 C 
ATOM     25  C   UNL     1      -0.618  -8.775  -2.117  0.00  0.00    -0.019 C 
ATOM     26  C   UNL     1       0.441  -9.223  -1.108  0.00  0.00    -0.078 C 
ATOM     27  H   UNL     1       0.267  -7.522   0.004  0.00  0.00    -0.081 HD
ENDBRANCH  20  21
BRANCH  20  28
ATOM     28  C   UNL     1       1.334 -10.391   1.259  0.00  0.00    +0.093 A 
ATOM     29  C   UNL     1       2.430 -11.168   1.185  0.00  0.00    +0.043 A 
ATOM     30  C   UNL     1       2.002 -12.500   1.388  0.00  0.00    +0.041 A 
ATOM     31  C   UNL     1       0.670 -12.457   1.575  0.00  0.00    +0.195 A 
ATOM     32  O   UNL     1       0.272 -11.176   1.501  0.00  0.00    -0.469 OA
ENDBRANCH  20  28
ENDBRANCH  19  20
ENDBRANCH   4  19
TORSDOF 7
