REMARK  Name = ZINC45916691
REMARK  11 active torsions:
REMARK  status: ('A' for Active; 'I' for Inactive)
REMARK    1  A    between atoms: C_1  and  O_2
REMARK    2  A    between atoms: O_2  and  C_3
REMARK    3  A    between atoms: C_6  and  C_9
REMARK    4  A    between atoms: C_9  and  C_11
REMARK    5  A    between atoms: C_9  and  N_31
REMARK    6  A    between atoms: C_11  and  N_12
REMARK    7  A    between atoms: C_13  and  C_15
REMARK    8  A    between atoms: C_15  and  O_16
REMARK    9  A    between atoms: O_16  and  C_17
REMARK   10  A    between atoms: C_17  and  C_19
REMARK   11  A    between atoms: N_23  and  C_24
REMARK                            x       y       z     vdW  Elec       q    Type
REMARK                         _______ _______ _______ _____ _____    ______ ____
ROOT
ATOM      1  N   UNL     1       4.693  -1.749  -3.639  0.00  0.00    -0.314 N 
ATOM      2  C   UNL     1       5.972  -1.901  -3.241  0.00  0.00    +0.251 C 
ATOM      3  O   UNL     1       6.413  -3.010  -3.029  0.00  0.00    -0.272 OA
ATOM      4  H   UNL     1       4.340  -0.861  -3.809  0.00  0.00    +0.149 HD
ENDROOT
BRANCH   1   5
ATOM      5  C   UNL     1       3.836  -2.924  -3.815  0.00  0.00    +0.093 C 
BRANCH   5   6
ATOM      6  C   UNL     1       2.411  -2.472  -4.139  0.00  0.00    -0.020 C 
BRANCH   6   7
ATOM      7  N   UNL     1       1.569  -3.649  -4.394  0.00  0.00    +0.385 N 
ATOM      8  C   UNL     1       2.087  -4.376  -5.559  0.00  0.00    -0.078 C 
ATOM      9  C   UNL     1       1.264  -5.647  -5.779  0.00  0.00    -0.019 C 
ATOM     10  C   UNL     1      -0.199  -5.264  -6.023  0.00  0.00    -0.004 C 
ATOM     11  C   UNL     1      -0.706  -4.443  -4.834  0.00  0.00    -0.019 C 
ATOM     12  C   UNL     1       0.190  -3.217  -4.649  0.00  0.00    -0.078 C 
ATOM     13  H   UNL     1       1.587  -4.254  -3.587  0.00  0.00    -0.081 HD
ENDBRANCH   6   7
BRANCH   6  17
ATOM     14  C   UNL     1       0.825  -0.275  -0.834  0.00  0.00    +0.120 A 
ATOM     15  C   UNL     1       1.328   0.398  -1.939  0.00  0.00    +0.046 A 
ATOM     16  C   UNL     1       1.840  -0.315  -3.006  0.00  0.00    +0.005 A 
ATOM     17  C   UNL     1       1.852  -1.697  -2.974  0.00  0.00    -0.059 A 
ATOM     18  C   UNL     1       1.351  -2.370  -1.875  0.00  0.00    +0.005 A 
ATOM     19  C   UNL     1       0.844  -1.662  -0.802  0.00  0.00    +0.046 A 
BRANCH  14  21
ATOM     20  C   UNL     1       0.335   1.849   0.115  0.00  0.00    +0.277 C 
ATOM     21  O   UNL     1       0.321   0.423   0.217  0.00  0.00    -0.495 OA
ENDBRANCH  14  21
ENDBRANCH   6  17
ENDBRANCH   5   6
ENDBRANCH   1   5
BRANCH   2  22
ATOM     22  C   UNL     1       6.853  -0.692  -3.061  0.00  0.00    +0.328 C 
BRANCH  22  23
ATOM     23  O   UNL     1       8.153  -1.109  -2.638  0.00  0.00    -0.451 OA
BRANCH  23  24
ATOM     24  C   UNL     1       9.069  -0.141  -2.429  0.00  0.00    +0.358 C 
ATOM     25  O   UNL     1       8.771   1.025  -2.603  0.00  0.00    -0.243 OA
BRANCH  24  26
ATOM     26  C   UNL     1      10.423  -0.495  -1.995  0.00  0.00    +0.151 A 
ATOM     27  C   UNL     1      11.454   0.366  -1.738  0.00  0.00    +0.145 A 
ATOM     28  N   UNL     1      12.509  -0.359  -1.369  0.00  0.00    -0.243 NA
ATOM     29  C   UNL     1      12.198  -1.631  -1.380  0.00  0.00    +0.204 A 
ATOM     30  N   UNL     1      10.912  -1.767  -1.756  0.00  0.00    -0.293 N 
BRANCH  30  31
ATOM     31  C   UNL     1      10.204  -2.970  -1.885  0.00  0.00    +0.048 A 
ATOM     32  C   UNL     1       8.956  -3.110  -1.293  0.00  0.00    +0.029 A 
ATOM     33  C   UNL     1       8.261  -4.296  -1.421  0.00  0.00    +0.040 A 
ATOM     34  C   UNL     1       8.807  -5.346  -2.139  0.00  0.00    +0.124 A 
ATOM     35  C   UNL     1      10.052  -5.209  -2.730  0.00  0.00    +0.040 A 
ATOM     36  C   UNL     1      10.748  -4.022  -2.610  0.00  0.00    +0.029 A 
ATOM     37  F   UNL     1       8.126  -6.506  -2.263  0.00  0.00    -0.205 F 
ENDBRANCH  30  31
ENDBRANCH  24  26
ENDBRANCH  23  24
ENDBRANCH  22  23
ENDBRANCH   2  22
TORSDOF 10
