REMARK  Name = ZINC09433055
REMARK  12 active torsions:
REMARK  status: ('A' for Active; 'I' for Inactive)
REMARK    1  A    between atoms: C_1  and  C_2
REMARK    2  A    between atoms: C_5  and  C_37
REMARK    3  A    between atoms: C_9  and  C_10
REMARK    4  A    between atoms: C_9  and  N_73
REMARK    5  A    between atoms: C_10  and  C_11
REMARK    6  A    between atoms: C_11  and  N_12
REMARK    7  A    between atoms: C_13  and  C_15
REMARK    8  A    between atoms: N_25  and  C_33
REMARK    9  A    between atoms: C_26  and  C_28
REMARK   10  A    between atoms: C_33  and  C_34
REMARK   11  A    between atoms: C_34  and  C_35
REMARK   12  A    between atoms: C_34  and  C_36
REMARK                            x       y       z     vdW  Elec       q    Type
REMARK                         _______ _______ _______ _____ _____    ______ ____
ROOT
ATOM      1  C   UNL     1       2.495   1.063   0.018  0.00  0.00    +0.131 C 
ATOM      2  C   UNL     1       1.136   1.658   0.278  0.00  0.00    -0.021 A 
ATOM      3  C   UNL     1       0.042   0.847   0.492  0.00  0.00    +0.005 A 
ATOM      4  C   UNL     1      -1.195   1.409   0.755  0.00  0.00    +0.000 A 
ATOM      5  C   UNL     1      -1.340   2.784   0.818  0.00  0.00    +0.001 A 
ATOM      6  C   UNL     1      -0.253   3.607   0.600  0.00  0.00    +0.013 A 
ATOM      7  C   UNL     1       0.991   3.046   0.323  0.00  0.00    +0.041 A 
ATOM      8  C   UNL     1       2.170   3.899   0.064  0.00  0.00    +0.247 C 
ATOM      9  O   UNL     1       2.134   5.088   0.317  0.00  0.00    -0.270 OA
ATOM     10  N   UNL     1       3.283   3.347  -0.455  0.00  0.00    -0.289 N 
ATOM     11  C   UNL     1       3.291   1.963  -0.923  0.00  0.00    +0.129 C 
ENDROOT
BRANCH  11  12
ATOM     12  C   UNL     1       2.678   1.903  -2.299  0.00  0.00    +0.011 A 
ATOM     13  C   UNL     1       3.060   1.168  -3.372  0.00  0.00    +0.013 A 
ATOM     14  C   UNL     1       2.340   1.273  -4.547  0.00  0.00    +0.008 A 
ATOM     15  C   UNL     1       1.274   2.108  -4.592  0.00  0.00    +0.045 A 
ATOM     16  S   UNL     1       1.257   2.776  -2.936  0.00  0.00    -0.100 S 
ENDBRANCH  11  12
BRANCH   1  18
ATOM     17  N   UNL     1       3.176  -1.296  -0.280  0.00  0.00    -0.315 N 
ATOM     18  C   UNL     1       2.333  -0.298  -0.609  0.00  0.00    +0.223 C 
ATOM     19  O   UNL     1       1.444  -0.494  -1.410  0.00  0.00    -0.275 OA
ATOM     20  H   UNL     1       3.841  -1.161   0.414  0.00  0.00    +0.149 HD
BRANCH  17  21
ATOM     21  C   UNL     1       3.089  -2.586  -0.969  0.00  0.00    +0.102 C 
BRANCH  21  22
ATOM     22  C   UNL     1       4.150  -3.536  -0.410  0.00  0.00    +0.000 C 
BRANCH  22  23
ATOM     23  C   UNL     1       4.059  -4.883  -1.131  0.00  0.00    -0.077 C 
BRANCH  23  31
ATOM     24  C   UNL     1       8.872  -5.721  -0.556  0.00  0.00    +0.005 C 
ATOM     25  C   UNL     1       7.463  -6.207  -0.212  0.00  0.00    -0.031 C 
ATOM     26  C   UNL     1       7.288  -7.651  -0.691  0.00  0.00    +0.003 C 
ATOM     27  C   UNL     1       5.857  -8.109  -0.397  0.00  0.00    -0.031 C 
ATOM     28  C   UNL     1       4.872  -7.163  -1.087  0.00  0.00    -0.076 C 
ATOM     29  C   UNL     1       6.431  -5.316  -0.907  0.00  0.00    -0.076 C 
ATOM     30  C   UNL     1       5.614  -8.087   1.114  0.00  0.00    +0.005 C 
ATOM     31  N   UNL     1       5.075  -5.794  -0.564  0.00  0.00    +0.380 N 
ATOM     32  H   UNL     1       4.976  -5.810   0.458  0.00  0.00    -0.082 HD
ENDBRANCH  23  31
ENDBRANCH  22  23
ENDBRANCH  21  22
ENDBRANCH  17  21
ENDBRANCH   1  18
BRANCH  10  33
ATOM     33  C   UNL     1       4.506   4.147  -0.551  0.00  0.00    +0.111 C 
BRANCH  33  34
ATOM     34  C   UNL     1       5.326   3.983   0.731  0.00  0.00    +0.000 C 
ATOM     35  C   UNL     1       5.799   2.533   0.851  0.00  0.00    +0.009 C 
ATOM     36  C   UNL     1       6.540   4.914   0.683  0.00  0.00    +0.009 C 
ENDBRANCH  33  34
ENDBRANCH  10  33
TORSDOF 8
