REMARK  Name = ZINC65416055
REMARK  4 active torsions:
REMARK  status: ('A' for Active; 'I' for Inactive)
REMARK    1  A    between atoms: C_2  and  C_25
REMARK    2  A    between atoms: C_8  and  N_9
REMARK    3  A    between atoms: N_15  and  C_18
REMARK    4  A    between atoms: C_18  and  C_19
REMARK                            x       y       z     vdW  Elec       q    Type
REMARK                         _______ _______ _______ _____ _____    ______ ____
ROOT
ATOM      1  N   UNL     1      -1.004  -1.220  -0.522  0.00  0.00    -0.265 N 
ATOM      2  C   UNL     1      -1.111  -2.563  -0.571  0.00  0.00    +0.306 C 
ATOM      3  O   UNL     1      -0.111  -3.251  -0.643  0.00  0.00    -0.252 OA
ATOM      4  N   UNL     1      -2.327  -3.144  -0.540  0.00  0.00    -0.289 N 
ATOM      5  C   UNL     1      -3.553  -2.332  -0.564  0.00  0.00    +0.091 C 
ATOM      6  C   UNL     1      -4.462  -2.792   0.581  0.00  0.00    -0.059 C 
ATOM      7  N   UNL     1      -4.691  -4.238   0.473  0.00  0.00    +0.382 N 
ATOM      8  C   UNL     1      -3.425  -4.959   0.659  0.00  0.00    -0.059 C 
ATOM      9  C   UNL     1      -2.465  -4.607  -0.487  0.00  0.00    +0.091 C 
ATOM     10  H   UNL     1      -1.795  -0.675  -0.391  0.00  0.00    +0.157 HD
ATOM     11  H   UNL     1      -5.066  -4.451  -0.439  0.00  0.00    -0.082 HD
ENDROOT
BRANCH   1  19
ATOM     12  C   UNL     1       0.482   0.278  -1.673  0.00  0.00    +0.042 A 
ATOM     13  C   UNL     1       1.746   0.873  -1.788  0.00  0.00    +0.073 A 
ATOM     14  C   UNL     1       2.722   0.565  -0.904  0.00  0.00    +0.098 A 
ATOM     15  N   UNL     1       2.496  -0.320   0.103  0.00  0.00    -0.327 N 
ATOM     16  H   UNL     1       3.208  -0.528   0.727  0.00  0.00    +0.168 HD
ATOM     17  C   UNL     1       1.294  -0.910   0.245  0.00  0.00    +0.270 A 
ATOM     18  O   UNL     1       1.105  -1.701   1.155  0.00  0.00    -0.266 OA
ATOM     19  C   UNL     1       0.252  -0.612  -0.660  0.00  0.00    +0.100 A 
BRANCH  13  20
ATOM     20  C   UNL     1       2.018   1.855  -2.898  0.00  0.00    +0.419 C 
ATOM     21  F   UNL     1       3.338   2.309  -2.807  0.00  0.00    -0.166 F 
ATOM     22  F   UNL     1       1.825   1.228  -4.134  0.00  0.00    -0.166 F 
ATOM     23  F   UNL     1       1.143   2.941  -2.785  0.00  0.00    -0.166 F 
ENDBRANCH  13  20
ENDBRANCH   1  19
BRANCH   7  24
ATOM     24  C   UNL     1      -5.649  -4.659   1.504  0.00  0.00    -0.075 C 
BRANCH  24  25
ATOM     25  C   UNL     1      -7.015  -4.032   1.217  0.00  0.00    -0.028 C 
ATOM     26  C   UNL     1      -7.543  -4.551  -0.122  0.00  0.00    +0.002 C 
ATOM     27  C   UNL     1      -8.909  -3.924  -0.409  0.00  0.00    +0.000 C 
ATOM     28  C   UNL     1      -9.887  -4.301   0.706  0.00  0.00    +0.000 C 
ATOM     29  C   UNL     1      -9.359  -3.783   2.045  0.00  0.00    +0.000 C 
ATOM     30  C   UNL     1      -7.993  -4.409   2.331  0.00  0.00    +0.002 C 
ENDBRANCH  24  25
ENDBRANCH   7  24
TORSDOF 4
