REMARK  Name = ZINC62660833
REMARK  5 active torsions:
REMARK  status: ('A' for Active; 'I' for Inactive)
REMARK    1  A    between atoms: C_1  and  C_2
REMARK    2  A    between atoms: C_5  and  C_7
REMARK    3  A    between atoms: C_7  and  C_9
REMARK    4  A    between atoms: C_7  and  N_10
REMARK    5  A    between atoms: C_11  and  C_13
REMARK                            x       y       z     vdW  Elec       q    Type
REMARK                         _______ _______ _______ _____ _____    ______ ____
ROOT
ATOM      1  N   UNL     1       2.819  -2.969   0.861  0.00  0.00    -0.301 N 
ATOM      2  C   UNL     1       3.507  -3.989   1.413  0.00  0.00    +0.263 C 
ATOM      3  O   UNL     1       3.185  -5.138   1.177  0.00  0.00    -0.268 OA
ATOM      4  H   UNL     1       3.076  -2.053   1.050  0.00  0.00    +0.150 HD
ENDROOT
BRANCH   2   5
ATOM      5  C   UNL     1       4.648  -3.712   2.301  0.00  0.00    +0.132 A 
ATOM      6  C   UNL     1       5.378  -4.716   2.879  0.00  0.00    +0.079 A 
ATOM      7  S   UNL     1       6.524  -3.867   3.767  0.00  0.00    -0.083 S 
ATOM      8  C   UNL     1       6.054  -2.300   3.388  0.00  0.00    +0.156 A 
ATOM      9  N   UNL     1       5.036  -2.465   2.587  0.00  0.00    -0.243 NA
ENDBRANCH   2   5
BRANCH   1  10
ATOM     10  C   UNL     1       1.684  -3.245  -0.023  0.00  0.00    +0.136 C 
ATOM     11  C   UNL     1       2.192  -3.480  -1.447  0.00  0.00    +0.036 C 
BRANCH  10  16
ATOM     12  C   UNL     1      -0.018   1.503   0.010  0.00  0.00    +0.086 C 
ATOM     13  C   UNL     1       0.002  -0.004   0.002  0.00  0.00    +0.102 A 
ATOM     14  C   UNL     1      -1.078  -0.805   0.003  0.00  0.00    +0.045 A 
ATOM     15  C   UNL     1      -0.601  -2.136  -0.007  0.00  0.00    +0.047 A 
ATOM     16  C   UNL     1       0.742  -2.069  -0.013  0.00  0.00    +0.125 A 
ATOM     17  O   UNL     1       1.102  -0.775  -0.013  0.00  0.00    -0.463 OA
ENDBRANCH  10  16
ENDBRANCH   1  10
TORSDOF 3
