REMARK  Name = ZINC51995537
REMARK  7 active torsions:
REMARK  status: ('A' for Active; 'I' for Inactive)
REMARK    1  A    between atoms: C_1  and  C_2
REMARK    2  A    between atoms: C_2  and  C_4
REMARK    3  A    between atoms: C_2  and  O_16
REMARK    4  A    between atoms: N_6  and  C_7
REMARK    5  A    between atoms: C_13  and  O_15
REMARK    6  A    between atoms: O_16  and  C_17
REMARK    7  A    between atoms: C_20  and  C_23
REMARK                            x       y       z     vdW  Elec       q    Type
REMARK                         _______ _______ _______ _____ _____    ______ ____
ROOT
ATOM      1  C   UNL     1       0.862  -0.292   1.210  0.00  0.00    +0.254 C 
ATOM      2  O   UNL     1       1.978  -0.743   1.067  0.00  0.00    -0.272 OA
ATOM      3  N   UNL     1       0.390  -0.041   2.447  0.00  0.00    -0.307 N 
ATOM      4  H   UNL     1      -0.503   0.320   2.562  0.00  0.00    +0.149 HD
ENDROOT
BRANCH   3   5
ATOM      5  C   UNL     1       1.226  -0.313   3.619  0.00  0.00    +0.101 C 
ATOM      6  C   UNL     1       1.079  -1.782   4.021  0.00  0.00    +0.025 C 
ATOM      7  C   UNL     1      -0.384  -2.074   4.359  0.00  0.00    +0.002 C 
ATOM      8  C   UNL     1      -0.827  -1.181   5.520  0.00  0.00    +0.003 C 
ATOM      9  C   UNL     1      -0.680   0.288   5.119  0.00  0.00    +0.033 C 
ATOM     10  C   UNL     1       0.783   0.580   4.780  0.00  0.00    +0.135 C 
BRANCH  10  11
ATOM     11  O   UNL     1       0.920   1.952   4.405  0.00  0.00    -0.390 OA
ATOM     12  H   UNL     1       0.656   2.577   5.095  0.00  0.00    +0.210 HD
ENDBRANCH  10  11
ENDBRANCH   3   5
BRANCH   1  14
ATOM     13  C   UNL     1      -0.254   1.493  -0.101  0.00  0.00    +0.062 C 
ATOM     14  C   UNL     1       0.002  -0.012   0.005  0.00  0.00    +0.255 C 
BRANCH  14  15
ATOM     15  O   UNL     1       0.671  -0.465  -1.174  0.00  0.00    -0.480 OA
BRANCH  15  16
ATOM     16  C   UNL     1      -0.106  -0.774  -2.243  0.00  0.00    +0.122 A 
ATOM     17  C   UNL     1       0.469  -1.332  -3.379  0.00  0.00    +0.047 A 
ATOM     18  C   UNL     1      -0.315  -1.647  -4.466  0.00  0.00    +0.022 A 
ATOM     19  C   UNL     1      -1.691  -1.407  -4.426  0.00  0.00    +0.052 A 
ATOM     20  C   UNL     1      -2.265  -0.847  -3.282  0.00  0.00    +0.022 A 
ATOM     21  C   UNL     1      -1.474  -0.538  -2.197  0.00  0.00    +0.047 A 
BRANCH  19  22
ATOM     22  C   UNL     1      -2.510  -1.734  -5.554  0.00  0.00    +0.099 C 
ATOM     23  N   UNL     1      -3.160  -1.992  -6.449  0.00  0.00    -0.191 NA
ENDBRANCH  19  22
ENDBRANCH  15  16
ENDBRANCH  14  15
ENDBRANCH   1  14
TORSDOF 6
