REMARK  Name = ZINC38845395
REMARK  19 active torsions:
REMARK  status: ('A' for Active; 'I' for Inactive)
REMARK    1  A    between atoms: C_1  and  C_2
REMARK    2  A    between atoms: C_2  and  N_3
REMARK    3  A    between atoms: N_3  and  C_4
REMARK    4  A    between atoms: N_3  and  C_6
REMARK    5  A    between atoms: C_4  and  C_5
REMARK    6  A    between atoms: C_6  and  C_7
REMARK    7  A    between atoms: C_7  and  N_8
REMARK    8  A    between atoms: C_14  and  S_18
REMARK    9  A    between atoms: S_18  and  C_19
REMARK   10  A    between atoms: C_20  and  C_22
REMARK   11  A    between atoms: C_24  and  O_34
REMARK   12  A    between atoms: C_25  and  O_31
REMARK   13  A    between atoms: C_26  and  O_28
REMARK   14  A    between atoms: O_28  and  C_29
REMARK   15  A    between atoms: C_29  and  C_30
REMARK   16  A    between atoms: O_31  and  C_32
REMARK   17  A    between atoms: C_32  and  C_33
REMARK   18  A    between atoms: O_34  and  C_35
REMARK   19  A    between atoms: C_35  and  C_36
REMARK                            x       y       z     vdW  Elec       q    Type
REMARK                         _______ _______ _______ _____ _____    ______ ____
ROOT
ATOM      1  N   UNL     1       0.111  -3.267   1.052  0.00  0.00    -0.248 N 
ATOM      2  C   UNL     1       1.172  -3.924   0.451  0.00  0.00    +0.168 A 
ATOM      3  N   UNL     1       1.663  -3.763  -0.755  0.00  0.00    -0.224 NA
ATOM      4  C   UNL     1       2.713  -4.480  -1.214  0.00  0.00    +0.080 A 
ATOM      5  C   UNL     1       3.333  -4.405  -2.483  0.00  0.00    +0.030 A 
ATOM      6  C   UNL     1       4.389  -5.203  -2.794  0.00  0.00    +0.017 A 
ATOM      7  C   UNL     1       4.902  -6.123  -1.882  0.00  0.00    +0.009 A 
ATOM      8  C   UNL     1       4.319  -6.226  -0.624  0.00  0.00    +0.032 A 
ATOM      9  C   UNL     1       3.253  -5.421  -0.308  0.00  0.00    +0.042 A 
ATOM     10  S   UNL     1       2.226  -5.200   1.125  0.00  0.00    -0.052 S 
ATOM     11  C   UNL     1      -0.242  -3.572   2.316  0.00  0.00    +0.252 C 
ATOM     12  O   UNL     1       0.425  -4.359   2.961  0.00  0.00    -0.270 OA
ENDROOT
BRANCH  11  13
ATOM     13  C   UNL     1      -1.438  -2.953   2.919  0.00  0.00    +0.044 A 
ATOM     14  C   UNL     1      -2.493  -3.754   3.363  0.00  0.00    +0.062 A 
ATOM     15  C   UNL     1      -3.612  -3.170   3.927  0.00  0.00    +0.166 A 
ATOM     16  C   UNL     1      -3.688  -1.786   4.052  0.00  0.00    +0.204 A 
ATOM     17  C   UNL     1      -2.639  -0.985   3.610  0.00  0.00    +0.166 A 
ATOM     18  C   UNL     1      -1.515  -1.564   3.051  0.00  0.00    +0.062 A 
BRANCH  17  19
ATOM     19  O   UNL     1      -2.717   0.367   3.733  0.00  0.00    -0.488 OA
BRANCH  19  20
ATOM     20  C   UNL     1      -1.604   1.127   3.259  0.00  0.00    +0.226 C 
ATOM     21  C   UNL     1      -1.873   2.617   3.480  0.00  0.00    +0.048 C 
ENDBRANCH  19  20
ENDBRANCH  17  19
BRANCH  16  22
ATOM     22  O   UNL     1      -4.790  -1.215   4.606  0.00  0.00    -0.485 OA
BRANCH  22  23
ATOM     23  C   UNL     1      -4.776  -1.016   6.021  0.00  0.00    +0.226 C 
ATOM     24  C   UNL     1      -6.090  -0.367   6.459  0.00  0.00    +0.048 C 
ENDBRANCH  22  23
ENDBRANCH  16  22
BRANCH  15  25
ATOM     25  O   UNL     1      -4.639  -3.950   4.360  0.00  0.00    -0.488 OA
BRANCH  25  26
ATOM     26  C   UNL     1      -4.448  -5.365   4.303  0.00  0.00    +0.226 C 
ATOM     27  C   UNL     1      -5.735  -6.070   4.736  0.00  0.00    +0.048 C 
ENDBRANCH  25  26
ENDBRANCH  15  25
ENDBRANCH  11  13
BRANCH   7  28
ATOM     28  S   UNL     1       6.271  -7.143  -2.317  0.00  0.00    -0.129 S 
ATOM     29  C   UNL     1       6.664  -6.647  -4.017  0.00  0.00    +0.090 C 
ENDBRANCH   7  28
BRANCH   1  30
ATOM     30  C   UNL     1      -0.629  -2.241   0.312  0.00  0.00    +0.097 C 
BRANCH  30  31
ATOM     31  C   UNL     1      -1.869  -2.868  -0.327  0.00  0.00    -0.059 C 
BRANCH  31  32
ATOM     32  N   UNL     1      -2.579  -1.852  -1.117  0.00  0.00    +0.380 N 
ATOM     33  H   UNL     1      -2.743  -1.036  -0.546  0.00  0.00    -0.082 HD
BRANCH  32  35
ATOM     34  C   UNL     1      -2.476  -0.381  -3.072  0.00  0.00    -0.017 C 
ATOM     35  C   UNL     1      -1.763  -1.480  -2.281  0.00  0.00    -0.082 C 
ENDBRANCH  32  35
BRANCH  32  36
ATOM     36  C   UNL     1      -3.864  -2.397  -1.574  0.00  0.00    -0.082 C 
ATOM     37  C   UNL     1      -4.742  -2.716  -0.362  0.00  0.00    -0.017 C 
ENDBRANCH  32  36
ENDBRANCH  31  32
ENDBRANCH  30  31
ENDBRANCH   1  30
TORSDOF 13
