REMARK  Name = ZINC06337006
REMARK  7 active torsions:
REMARK  status: ('A' for Active; 'I' for Inactive)
REMARK    1  A    between atoms: C_1  and  C_2
REMARK    2  A    between atoms: C_9  and  C_11
REMARK    3  A    between atoms: N_13  and  N_14
REMARK    4  A    between atoms: N_14  and  C_15
REMARK    5  A    between atoms: C_15  and  N_16
REMARK    6  A    between atoms: N_16  and  C_17
REMARK    7  A    between atoms: C_17  and  C_18
REMARK                            x       y       z     vdW  Elec       q    Type
REMARK                         _______ _______ _______ _____ _____    ______ ____
ROOT
ATOM      1  C   UNL     1       1.930  -5.253   2.756  0.00  0.00    +0.267 C 
ATOM      2  O   UNL     1       2.878  -4.985   3.472  0.00  0.00    -0.268 OA
ATOM      3  N   UNL     1       1.540  -6.534   2.605  0.00  0.00    -0.231 N 
ATOM      4  H   UNL     1       0.786  -6.747   2.034  0.00  0.00    +0.173 HD
ENDROOT
BRANCH   1  12
ATOM      5  C   UNL     1      -0.019   1.526   0.010  0.00  0.00    +0.008 C 
ATOM      6  C   UNL     1       0.002  -0.004   0.002  0.00  0.00    -0.009 C 
ATOM      7  C   UNL     1      -1.435  -0.533   0.009  0.00  0.00    +0.009 C 
ATOM      8  C   UNL     1      -1.408  -2.041  -0.272  0.00  0.00    +0.043 C 
ATOM      9  C   UNL     1      -0.377  -2.671   0.618  0.00  0.00    -0.006 A 
ATOM     10  C   UNL     1       0.604  -2.027   1.313  0.00  0.00    -0.036 A 
ATOM     11  C   UNL     1       1.448  -2.818   2.078  0.00  0.00    +0.024 A 
ATOM     12  C   UNL     1       1.214  -4.181   2.058  0.00  0.00    +0.076 A 
ATOM     13  S   UNL     1      -0.189  -4.294   0.963  0.00  0.00    -0.088 S 
ATOM     14  C   UNL     1       0.745  -0.509   1.239  0.00  0.00    +0.039 C 
ENDBRANCH   1  12
BRANCH   3  15
ATOM     15  N   UNL     1       2.226  -7.558   3.271  0.00  0.00    -0.246 N 
ATOM     16  H   UNL     1       2.981  -7.345   3.842  0.00  0.00    +0.172 HD
BRANCH  15  17
ATOM     17  C   UNL     1       1.836  -8.839   3.120  0.00  0.00    +0.147 C 
ATOM     18  S   UNL     1       2.673 -10.091   3.935  0.00  0.00    -0.017 S 
BRANCH  17  19
ATOM     19  N   UNL     1       0.787  -9.135   2.327  0.00  0.00    -0.323 N 
ATOM     20  H   UNL     1       0.312  -8.426   1.866  0.00  0.00    +0.148 HD
BRANCH  19  21
ATOM     21  C   UNL     1       0.363 -10.528   2.163  0.00  0.00    +0.134 C 
BRANCH  21  22
ATOM     22  C   UNL     1      -0.840 -10.587   1.220  0.00  0.00    +0.135 C 
ATOM     23  C   UNL     1      -1.326 -12.049   1.059  0.00  0.00    +0.035 C 
ATOM     24  C   UNL     1      -2.812 -11.824   0.665  0.00  0.00    +0.031 C 
ATOM     25  C   UNL     1      -3.176 -10.558   1.470  0.00  0.00    +0.160 C 
ATOM     26  O   UNL     1      -1.954  -9.879   1.787  0.00  0.00    -0.375 OA
ENDBRANCH  21  22
ENDBRANCH  19  21
ENDBRANCH  17  19
ENDBRANCH  15  17
ENDBRANCH   3  15
TORSDOF 6
