REMARK  Name = ZINC08773191
REMARK  19 active torsions:
REMARK  status: ('A' for Active; 'I' for Inactive)
REMARK    1  A    between atoms: C_1  and  O_2
REMARK    2  A    between atoms: O_2  and  C_3
REMARK    3  A    between atoms: C_6  and  C_11
REMARK    4  A    between atoms: C_8  and  O_9
REMARK    5  A    between atoms: O_9  and  C_10
REMARK    6  A    between atoms: C_13  and  C_32
REMARK    7  A    between atoms: C_15  and  C_28
REMARK    8  A    between atoms: C_17  and  C_18
REMARK    9  A    between atoms: C_17  and  C_24
REMARK   10  A    between atoms: C_18  and  C_19
REMARK   11  A    between atoms: C_19  and  C_20
REMARK   12  A    between atoms: C_20  and  O_22
REMARK   13  A    between atoms: O_22  and  C_23
REMARK   14  A    between atoms: C_24  and  O_26
REMARK   15  A    between atoms: O_26  and  C_27
REMARK   16  A    between atoms: C_28  and  O_30
REMARK   17  A    between atoms: O_30  and  C_31
REMARK   18  A    between atoms: C_32  and  O_34
REMARK   19  A    between atoms: O_34  and  C_35
REMARK                            x       y       z     vdW  Elec       q    Type
REMARK                         _______ _______ _______ _____ _____    ______ ____
ROOT
ATOM      1  C   UNL     1       1.607   1.936  -4.150  0.00  0.00    -0.025 C 
ATOM      2  C   UNL     1       0.218   2.412  -4.646  0.00  0.00    +0.101 C 
ATOM      3  C   UNL     1      -0.759   1.624  -3.745  0.00  0.00    +0.110 C 
ATOM      4  C   UNL     1       0.062   1.237  -2.501  0.00  0.00    +0.046 C 
ATOM      5  N   UNL     1       1.400   1.798  -2.701  0.00  0.00    +0.395 N 
ATOM      6  H   UNL     1       1.466   2.717  -2.247  0.00  0.00    -0.083 HD
ATOM      7  H   UNL     1       2.107   1.168  -2.304  0.00  0.00    -0.083 HD
ENDROOT
BRANCH   1  11
ATOM      8  C   UNL     1       4.603   4.861  -5.020  0.00  0.00    +0.161 A 
ATOM      9  C   UNL     1       3.710   5.068  -3.981  0.00  0.00    +0.049 A 
ATOM     10  C   UNL     1       2.739   4.123  -3.706  0.00  0.00    +0.006 A 
ATOM     11  C   UNL     1       2.663   2.966  -4.458  0.00  0.00    -0.057 A 
ATOM     12  C   UNL     1       3.552   2.753  -5.496  0.00  0.00    +0.051 A 
ATOM     13  C   UNL     1       4.524   3.698  -5.781  0.00  0.00    +0.162 A 
BRANCH   8  15
ATOM     14  C   UNL     1       5.577   6.961  -4.474  0.00  0.00    +0.277 C 
ATOM     15  O   UNL     1       5.555   5.792  -5.296  0.00  0.00    -0.491 OA
ENDBRANCH   8  15
BRANCH  13  16
ATOM     16  O   UNL     1       5.398   3.491  -6.802  0.00  0.00    -0.491 OA
ATOM     17  C   UNL     1       5.257   2.275  -7.540  0.00  0.00    +0.277 C 
ENDBRANCH  13  16
ENDBRANCH   1  11
BRANCH   4  18
ATOM     18  C   UNL     1       0.146  -0.263  -2.382  0.00  0.00    +0.297 C 
ATOM     19  O   UNL     1      -0.714  -0.957  -2.871  0.00  0.00    -0.252 OA
BRANCH  18  20
ATOM     20  O   UNL     1       1.176  -0.829  -1.734  0.00  0.00    -0.469 OA
ATOM     21  C   UNL     1       1.191  -2.279  -1.658  0.00  0.00    +0.280 C 
ENDBRANCH  18  20
ENDBRANCH   4  18
BRANCH   3  22
ATOM     22  C   UNL     1      -1.925   2.494  -3.351  0.00  0.00    +0.310 C 
ATOM     23  O   UNL     1      -1.790   3.693  -3.290  0.00  0.00    -0.251 OA
BRANCH  22  24
ATOM     24  O   UNL     1      -3.113   1.937  -3.069  0.00  0.00    -0.468 OA
ATOM     25  C   UNL     1      -4.191   2.837  -2.697  0.00  0.00    +0.280 C 
ENDBRANCH  22  24
ENDBRANCH   3  22
BRANCH   2  26
ATOM     26  C   UNL     1       0.019   2.054  -6.096  0.00  0.00    +0.309 C 
ATOM     27  O   UNL     1      -0.880   1.313  -6.418  0.00  0.00    -0.251 OA
BRANCH  26  28
ATOM     28  O   UNL     1       0.841   2.557  -7.031  0.00  0.00    -0.468 OA
ATOM     29  C   UNL     1       0.590   2.170  -8.407  0.00  0.00    +0.280 C 
ENDBRANCH  26  28
ENDBRANCH   2  26
BRANCH   4  30
ATOM     30  C   UNL     1      -0.585   1.824  -1.245  0.00  0.00    +0.011 C 
BRANCH  30  31
ATOM     31  C   UNL     1       0.310   1.550  -0.035  0.00  0.00    +0.120 C 
BRANCH  31  32
ATOM     32  C   UNL     1      -0.327   2.128   1.202  0.00  0.00    +0.307 C 
ATOM     33  O   UNL     1      -1.389   2.700   1.124  0.00  0.00    -0.251 OA
BRANCH  32  34
ATOM     34  O   UNL     1       0.284   2.008   2.391  0.00  0.00    -0.468 OA
ATOM     35  C   UNL     1      -0.388   2.589   3.540  0.00  0.00    +0.280 C 
ENDBRANCH  32  34
ENDBRANCH  31  32
ENDBRANCH  30  31
ENDBRANCH   4  30
TORSDOF 13
