REMARK  Name = ZINC22081788
REMARK  11 active torsions:
REMARK  status: ('A' for Active; 'I' for Inactive)
REMARK    1  A    between atoms: C_1  and  C_2
REMARK    2  A    between atoms: C_2  and  N_3
REMARK    3  A    between atoms: N_3  and  C_4
REMARK    4  A    between atoms: C_5  and  N_20
REMARK    5  A    between atoms: N_6  and  C_13
REMARK    6  A    between atoms: C_13  and  C_14
REMARK    7  A    between atoms: C_21  and  C_23
REMARK    8  A    between atoms: C_23  and  O_24
REMARK    9  A    between atoms: O_24  and  C_25
REMARK   10  A    between atoms: C_25  and  C_27
REMARK   11  A    between atoms: C_34  and  C_37
REMARK                            x       y       z     vdW  Elec       q    Type
REMARK                         _______ _______ _______ _____ _____    ______ ____
ROOT
ATOM      1  N   UNL     1       1.102   1.823  -0.054  0.00  0.00    -0.262 N 
ATOM      2  C   UNL     1      -0.011   1.084  -0.239  0.00  0.00    +0.258 C 
ATOM      3  O   UNL     1       0.079  -0.108  -0.448  0.00  0.00    -0.272 OA
ENDROOT
BRANCH   1   4
ATOM      4  C   UNL     1       2.365   1.196  -0.006  0.00  0.00    +0.140 A 
ATOM      5  C   UNL     1       2.663   0.294   0.995  0.00  0.00    +0.128 A 
ATOM      6  N   UNL     1       3.902  -0.304   1.012  0.00  0.00    -0.276 N 
ATOM      7  C   UNL     1       4.815  -0.006   0.071  0.00  0.00    +0.331 A 
ATOM      8  O   UNL     1       5.906  -0.542   0.106  0.00  0.00    -0.246 OA
ATOM      9  N   UNL     1       4.544   0.875  -0.909  0.00  0.00    -0.273 N 
ATOM     10  H   UNL     1       5.306   1.105  -1.668  0.00  0.00    +0.173 HD
ATOM     11  C   UNL     1       3.345   1.485  -0.974  0.00  0.00    +0.277 A 
ATOM     12  O   UNL     1       3.109   2.282  -1.867  0.00  0.00    -0.266 OA
BRANCH   5  13
ATOM     13  N   UNL     1       1.732  -0.007   1.960  0.00  0.00    -0.343 N 
ATOM     14  H   UNL     1       1.977  -0.727   2.754  0.00  0.00    +0.144 HD
ATOM     15  H   UNL     1       0.742   0.472   1.937  0.00  0.00    +0.144 HD
ENDBRANCH   5  13
BRANCH   6  16
ATOM     16  C   UNL     1       4.230  -1.269   2.065  0.00  0.00    +0.163 C 
BRANCH  16  17
ATOM     17  C   UNL     1       4.835  -0.543   3.239  0.00  0.00    -0.028 A 
ATOM     18  C   UNL     1       6.203  -0.361   3.308  0.00  0.00    +0.005 A 
ATOM     19  C   UNL     1       6.758   0.309   4.383  0.00  0.00    +0.000 A 
ATOM     20  C   UNL     1       5.945   0.786   5.394  0.00  0.00    +0.000 A 
ATOM     21  C   UNL     1       4.577   0.599   5.328  0.00  0.00    +0.000 A 
ATOM     22  C   UNL     1       4.022  -0.066   4.250  0.00  0.00    +0.005 A 
ENDBRANCH  16  17
ENDBRANCH   6  16
ENDBRANCH   1   4
BRANCH   1  24
ATOM     23  C   UNL     1       0.870   3.627   1.582  0.00  0.00    +0.025 C 
ATOM     24  C   UNL     1       0.999   3.277   0.098  0.00  0.00    +0.110 C 
ENDBRANCH   1  24
BRANCH   2  25
ATOM     25  C   UNL     1      -1.368   1.739  -0.193  0.00  0.00    +0.328 C 
BRANCH  25  26
ATOM     26  O   UNL     1      -2.396   0.741  -0.426  0.00  0.00    -0.451 OA
BRANCH  26  27
ATOM     27  C   UNL     1      -3.676   1.167  -0.417  0.00  0.00    +0.346 C 
ATOM     28  O   UNL     1      -3.925   2.341  -0.220  0.00  0.00    -0.244 OA
BRANCH  27  29
ATOM     29  C   UNL     1      -4.765   0.216  -0.645  0.00  0.00    +0.097 A 
ATOM     30  C   UNL     1      -6.130   0.443  -0.677  0.00  0.00    +0.026 A 
ATOM     31  C   UNL     1      -6.967  -0.635  -0.914  0.00  0.00    -0.036 A 
ATOM     32  C   UNL     1      -6.369  -1.849  -1.101  0.00  0.00    -0.006 A 
ATOM     33  S   UNL     1      -4.680  -1.538  -0.963  0.00  0.00    -0.086 S 
ATOM     34  C   UNL     1      -7.046  -3.157  -1.372  0.00  0.00    +0.043 C 
ATOM     35  C   UNL     1      -8.499  -2.874  -1.780  0.00  0.00    +0.009 C 
ATOM     36  C   UNL     1      -9.108  -1.887  -0.781  0.00  0.00    -0.009 C 
ATOM     37  C   UNL     1      -8.486  -0.503  -0.970  0.00  0.00    +0.039 C 
ATOM     38  C   UNL     1     -10.619  -1.801  -1.008  0.00  0.00    +0.008 C 
ENDBRANCH  27  29
ENDBRANCH  26  27
ENDBRANCH  25  26
ENDBRANCH   2  25
TORSDOF 9
