REMARK  Name = ZINC33781657
REMARK  7 active torsions:
REMARK  status: ('A' for Active; 'I' for Inactive)
REMARK    1  A    between atoms: C_1  and  C_2
REMARK    2  A    between atoms: C_7  and  N_29
REMARK    3  A    between atoms: C_8  and  C_13
REMARK    4  A    between atoms: N_17  and  C_21
REMARK    5  A    between atoms: C_21  and  C_22
REMARK    6  A    between atoms: C_31  and  C_38
REMARK    7  A    between atoms: C_34  and  C_37
REMARK                            x       y       z     vdW  Elec       q    Type
REMARK                         _______ _______ _______ _____ _____    ______ ____
ROOT
ATOM      1  C   UNL     1      -0.196   1.545   0.047  0.00  0.00    +0.045 C 
ATOM      2  C   UNL     1      -0.210   0.038   0.044  0.00  0.00    -0.034 A 
ATOM      3  C   UNL     1      -0.551  -0.656  -1.125  0.00  0.00    +0.008 A 
ATOM      4  C   UNL     1      -0.560  -2.020  -1.119  0.00  0.00    +0.047 A 
ATOM      5  C   UNL     1      -0.227  -2.710   0.061  0.00  0.00    +0.142 A 
ATOM      6  N   UNL     1      -0.238  -4.043   0.057  0.00  0.00    -0.214 NA
ATOM      7  C   UNL     1       0.067  -4.744   1.139  0.00  0.00    +0.136 A 
ATOM      8  C   UNL     1       0.415  -4.069   2.333  0.00  0.00    +0.081 A 
ATOM      9  C   UNL     1       0.424  -2.653   2.325  0.00  0.00    +0.267 A 
ATOM     10  O   UNL     1       0.718  -2.030   3.330  0.00  0.00    -0.267 OA
ATOM     11  N   UNL     1       0.102  -2.005   1.185  0.00  0.00    -0.267 N 
ATOM     12  C   UNL     1       0.113  -0.642   1.167  0.00  0.00    +0.099 A 
ENDROOT
BRANCH   8  13
ATOM     13  C   UNL     1       0.746  -4.789   3.504  0.00  0.00    +0.037 C 
ATOM     14  C   UNL     1      -0.058  -4.709   4.604  0.00  0.00    +0.077 C 
ATOM     15  C   UNL     1      -1.323  -4.074   4.757  0.00  0.00    +0.259 C 
ATOM     16  O   UNL     1      -1.848  -3.491   3.825  0.00  0.00    -0.269 OA
ATOM     17  N   UNL     1      -1.912  -4.135   5.939  0.00  0.00    -0.251 N 
ATOM     18  C   UNL     1      -1.330  -4.782   6.973  0.00  0.00    +0.121 C 
ATOM     19  S   UNL     1      -1.905  -4.987   8.572  0.00  0.00    -0.027 S 
ATOM     20  S   UNL     1       0.188  -5.378   6.243  0.00  0.00    -0.061 S 
BRANCH  17  21
ATOM     21  C   UNL     1      -3.215  -3.493   6.130  0.00  0.00    +0.150 C 
BRANCH  21  22
ATOM     22  C   UNL     1      -4.312  -4.475   5.809  0.00  0.00    -0.029 A 
ATOM     23  C   UNL     1      -4.800  -4.567   4.519  0.00  0.00    +0.008 A 
ATOM     24  C   UNL     1      -5.806  -5.468   4.224  0.00  0.00    +0.038 A 
ATOM     25  C   UNL     1      -6.324  -6.278   5.220  0.00  0.00    +0.123 A 
ATOM     26  C   UNL     1      -5.834  -6.184   6.512  0.00  0.00    +0.038 A 
ATOM     27  C   UNL     1      -4.825  -5.287   6.804  0.00  0.00    +0.008 A 
ATOM     28  F   UNL     1      -7.308  -7.158   4.932  0.00  0.00    -0.205 F 
ENDBRANCH  21  22
ENDBRANCH  17  21
ENDBRANCH   8  13
BRANCH   7  29
ATOM     29  N   UNL     1       0.046  -6.122   1.103  0.00  0.00    -0.314 N 
ATOM     30  C   UNL     1      -0.497  -6.892   2.230  0.00  0.00    +0.109 C 
ATOM     31  C   UNL     1      -1.566  -7.853   1.702  0.00  0.00    +0.004 C 
ATOM     32  C   UNL     1      -0.968  -8.711   0.585  0.00  0.00    +0.009 C 
ATOM     33  C   UNL     1      -0.517  -7.810  -0.567  0.00  0.00    +0.004 C 
ATOM     34  C   UNL     1       0.559  -6.848  -0.067  0.00  0.00    +0.109 C 
ATOM     35  C   UNL     1       0.051  -8.671  -1.697  0.00  0.00    +0.009 C 
ATOM     36  C   UNL     1      -2.047  -8.757   2.839  0.00  0.00    +0.009 C 
ENDBRANCH   7  29
TORSDOF 4
