REMARK  Name = ZINC34907208
REMARK  5 active torsions:
REMARK  status: ('A' for Active; 'I' for Inactive)
REMARK    1  A    between atoms: N_9  and  C_10
REMARK    2  A    between atoms: C_18  and  N_21
REMARK    3  A    between atoms: C_22  and  C_24
REMARK    4  A    between atoms: C_24  and  O_25
REMARK    5  A    between atoms: O_25  and  C_26
REMARK                            x       y       z     vdW  Elec       q    Type
REMARK                         _______ _______ _______ _____ _____    ______ ____
ROOT
ATOM      1  C   UNL     1       1.555   2.197   0.034  0.00  0.00    +0.002 A 
ATOM      2  C   UNL     1       0.290   1.630   0.076  0.00  0.00    +0.002 A 
ATOM      3  C   UNL     1       0.138   0.259   0.069  0.00  0.00    +0.028 A 
ATOM      4  C   UNL     1       1.257  -0.559   0.019  0.00  0.00    +0.068 A 
ATOM      5  C   UNL     1       2.540   0.010  -0.025  0.00  0.00    +0.065 A 
ATOM      6  C   UNL     1       2.677   1.400  -0.017  0.00  0.00    +0.028 A 
ATOM      7  N   UNL     1       3.431  -1.016  -0.068  0.00  0.00    -0.327 N 
ATOM      8  C   UNL     1       2.789  -2.157  -0.055  0.00  0.00    +0.177 A 
ATOM      9  N   UNL     1       1.443  -1.932  -0.002  0.00  0.00    -0.310 N 
ATOM     10  N   UNL     1       3.383  -3.401  -0.089  0.00  0.00    -0.301 N 
ATOM     11  C   UNL     1       4.829  -3.659  -0.219  0.00  0.00    +0.110 C 
ATOM     12  C   UNL     1       5.037  -5.064   0.401  0.00  0.00    +0.043 C 
ATOM     13  C   UNL     1       3.750  -5.800  -0.055  0.00  0.00    +0.092 C 
ATOM     14  C   UNL     1       2.680  -4.689   0.003  0.00  0.00    +0.130 C 
ATOM     15  H   UNL     1       4.395  -0.917  -0.104  0.00  0.00    +0.169 HD
ENDROOT
BRANCH   9  16
ATOM     16  C   UNL     1       0.392  -2.952   0.030  0.00  0.00    +0.090 C 
ATOM     17  C   UNL     1      -0.499  -2.831  -1.224  0.00  0.00    +0.025 C 
ATOM     18  C   UNL     1      -1.925  -3.149  -0.710  0.00  0.00    +0.002 C 
ATOM     19  C   UNL     1      -1.942  -2.476   0.685  0.00  0.00    +0.002 C 
ATOM     20  C   UNL     1      -0.526  -2.726   1.244  0.00  0.00    +0.025 C 
ENDBRANCH   9  16
BRANCH  13  21
ATOM     21  N   UNL     1       3.902  -6.314  -1.419  0.00  0.00    -0.308 N 
ATOM     22  C   UNL     1       4.460  -7.523  -1.624  0.00  0.00    +0.251 C 
ATOM     23  O   UNL     1       4.837  -8.186  -0.681  0.00  0.00    -0.272 OA
ATOM     24  H   UNL     1       3.601  -5.784  -2.173  0.00  0.00    +0.149 HD
BRANCH  22  25
ATOM     25  C   UNL     1       4.617  -8.052  -3.027  0.00  0.00    +0.324 C 
BRANCH  25  26
ATOM     26  O   UNL     1       5.230  -9.342  -2.984  0.00  0.00    -0.483 OA
BRANCH  26  27
ATOM     27  C   UNL     1       5.444  -9.963  -4.174  0.00  0.00    +0.121 A 
ATOM     28  C   UNL     1       5.077  -9.341  -5.358  0.00  0.00    +0.047 A 
ATOM     29  C   UNL     1       5.296  -9.974  -6.566  0.00  0.00    +0.023 A 
ATOM     30  C   UNL     1       5.880 -11.228  -6.596  0.00  0.00    +0.041 A 
ATOM     31  C   UNL     1       6.246 -11.851  -5.415  0.00  0.00    +0.023 A 
ATOM     32  C   UNL     1       6.035 -11.218  -4.205  0.00  0.00    +0.047 A 
ATOM     33 CL   UNL     1       6.153 -12.022  -8.115  0.00  0.00    -0.084 Cl
ENDBRANCH  26  27
ENDBRANCH  25  26
ENDBRANCH  22  25
ENDBRANCH  13  21
TORSDOF 5
