REMARK  Name = ZINC12317926
REMARK  8 active torsions:
REMARK  status: ('A' for Active; 'I' for Inactive)
REMARK    1  A    between atoms: C_1  and  C_2
REMARK    2  A    between atoms: C_7  and  C_8
REMARK    3  A    between atoms: C_8  and  N_66
REMARK    4  A    between atoms: C_11  and  C_14
REMARK    5  A    between atoms: C_14  and  N_15
REMARK    6  A    between atoms: N_15  and  C_16
REMARK    7  A    between atoms: C_16  and  C_17
REMARK    8  A    between atoms: C_23  and  C_25
REMARK                            x       y       z     vdW  Elec       q    Type
REMARK                         _______ _______ _______ _____ _____    ______ ____
ROOT
ATOM      1  C   UNL     1       3.396   4.126  -2.664  0.00  0.00    +0.111 C 
ENDROOT
BRANCH   1   4
ATOM      2  C   UNL     1       3.342   1.147  -5.101  0.00  0.00    -0.078 C 
ATOM      3  C   UNL     1       3.938   2.263  -4.241  0.00  0.00    -0.014 C 
ATOM      4  C   UNL     1       2.805   3.047  -3.574  0.00  0.00    +0.003 C 
ATOM      5  C   UNL     1       1.951   2.087  -2.741  0.00  0.00    -0.014 C 
ATOM      6  C   UNL     1       1.413   0.976  -3.645  0.00  0.00    -0.078 C 
ATOM      7  N   UNL     1       2.553   0.244  -4.237  0.00  0.00    +0.382 N 
ATOM      8  H   UNL     1       3.155  -0.103  -3.481  0.00  0.00    -0.081 HD
BRANCH   7   9
ATOM      9  C   UNL     1       2.061  -0.905  -5.024  0.00  0.00    -0.043 C 
BRANCH   9  16
ATOM     10  C   UNL     1       3.118  -2.668  -2.994  0.00  0.00    +0.044 C 
ATOM     11  C   UNL     1       1.629  -2.563  -3.200  0.00  0.00    -0.049 A 
ATOM     12  C   UNL     1       0.768  -3.308  -2.415  0.00  0.00    +0.003 A 
ATOM     13  C   UNL     1      -0.597  -3.216  -2.607  0.00  0.00    +0.000 A 
ATOM     14  C   UNL     1      -1.103  -2.376  -3.582  0.00  0.00    +0.000 A 
ATOM     15  C   UNL     1      -0.243  -1.629  -4.364  0.00  0.00    +0.002 A 
ATOM     16  C   UNL     1       1.123  -1.720  -4.171  0.00  0.00    -0.061 A 
ENDBRANCH   9  16
ENDBRANCH   7   9
ENDBRANCH   1   4
BRANCH   1  17
ATOM     17  N   UNL     1       2.310   4.886  -2.038  0.00  0.00    -0.297 N 
ATOM     18  C   UNL     1       2.188   4.904  -0.696  0.00  0.00    +0.219 C 
ATOM     19  O   UNL     1       1.218   5.422  -0.182  0.00  0.00    -0.275 OA
BRANCH  18  20
ATOM     20  C   UNL     1       3.255   4.282   0.167  0.00  0.00    +0.079 C 
ATOM     21  C   UNL     1       2.957   4.569   1.644  0.00  0.00    +0.017 C 
ATOM     22  C   UNL     1       4.139   4.079   2.482  0.00  0.00    +0.027 C 
ATOM     23  C   UNL     1       4.508   2.678   2.092  0.00  0.00    -0.031 C 
ATOM     24  C   UNL     1       4.133   2.108   0.992  0.00  0.00    -0.030 C 
ATOM     25  C   UNL     1       3.268   2.767  -0.043  0.00  0.00    +0.039 C 
ENDBRANCH  18  20
BRANCH  17  26
ATOM     26  C   UNL     1       1.358   5.624  -2.871  0.00  0.00    +0.144 C 
BRANCH  26  27
ATOM     27  C   UNL     1       1.920   6.986  -3.188  0.00  0.00    -0.012 A 
ATOM     28  C   UNL     1       2.775   7.159  -4.266  0.00  0.00    +0.008 A 
ATOM     29  C   UNL     1       3.267   8.429  -4.521  0.00  0.00    +0.020 A 
ATOM     30  C   UNL     1       2.896   9.474  -3.696  0.00  0.00    +0.111 A 
ATOM     31  N   UNL     1       2.077   9.273  -2.682  0.00  0.00    -0.263 NA
ATOM     32  C   UNL     1       1.589   8.079  -2.410  0.00  0.00    +0.115 A 
ENDBRANCH  26  27
ENDBRANCH  17  26
ENDBRANCH   1  17
TORSDOF 7
