REMARK  Name = ZINC56782036
REMARK  9 active torsions:
REMARK  status: ('A' for Active; 'I' for Inactive)
REMARK    1  A    between atoms: C_1  and  C_2
REMARK    2  A    between atoms: C_2  and  C_3
REMARK    3  A    between atoms: C_3  and  C_4
REMARK    4  A    between atoms: C_4  and  C_5
REMARK    5  A    between atoms: C_5  and  C_6
REMARK    6  A    between atoms: C_6  and  C_8
REMARK    7  A    between atoms: C_6  and  N_9
REMARK    8  A    between atoms: C_15  and  C_18
REMARK    9  A    between atoms: C_23  and  C_27
REMARK                            x       y       z     vdW  Elec       q    Type
REMARK                         _______ _______ _______ _____ _____    ______ ____
ROOT
ATOM      1  N   UNL     1      -1.610  -6.590  -0.207  0.00  0.00    -0.297 N 
ATOM      2  C   UNL     1      -1.662  -5.812  -1.307  0.00  0.00    +0.302 C 
ATOM      3  O   UNL     1      -2.267  -4.758  -1.277  0.00  0.00    -0.253 OA
ATOM      4  N   UNL     1      -1.044  -6.202  -2.439  0.00  0.00    -0.286 N 
ATOM      5  C   UNL     1      -0.993  -5.314  -3.608  0.00  0.00    +0.110 C 
ATOM      6  C   UNL     1       0.467  -5.159  -4.046  0.00  0.00    +0.032 C 
ATOM      7  C   UNL     1       1.075  -6.543  -4.281  0.00  0.00    +0.078 C 
ATOM      8  C   UNL     1       1.044  -7.344  -2.977  0.00  0.00    +0.032 C 
ATOM      9  C   UNL     1      -0.404  -7.522  -2.525  0.00  0.00    +0.110 C 
ATOM     10  H   UNL     1      -1.191  -7.464  -0.252  0.00  0.00    +0.151 HD
ENDROOT
BRANCH   7  11
ATOM     11  C   UNL     1       2.501  -6.393  -4.744  0.00  0.00    +0.221 C 
ATOM     12  O   UNL     1       2.983  -5.287  -4.874  0.00  0.00    -0.275 OA
ATOM     13  N   UNL     1       3.241  -7.486  -5.015  0.00  0.00    -0.270 N 
ATOM     14  C   UNL     1       4.590  -7.352  -5.341  0.00  0.00    +0.125 A 
ATOM     15  C   UNL     1       5.372  -8.488  -5.515  0.00  0.00    +0.047 A 
ATOM     16  C   UNL     1       6.709  -8.341  -5.839  0.00  0.00    -0.046 A 
ATOM     17  C   UNL     1       7.220  -7.058  -5.977  0.00  0.00    +0.023 A 
ATOM     18  C   UNL     1       6.385  -5.974  -5.790  0.00  0.00    +0.113 A 
ATOM     19  N   UNL     1       5.112  -6.145  -5.487  0.00  0.00    -0.240 NA
ATOM     20  C   UNL     1       7.592  -9.547  -6.036  0.00  0.00    +0.044 C 
ATOM     21  H   UNL     1       2.835  -8.367  -4.983  0.00  0.00    +0.156 HD
ENDBRANCH   7  11
BRANCH   1  22
ATOM     22  C   UNL     1      -2.185  -6.116   1.054  0.00  0.00    +0.071 C 
ATOM     23  C   UNL     1      -1.156  -5.257   1.792  0.00  0.00    +0.028 C 
BRANCH  22  24
ATOM     24  C   UNL     1      -2.565  -7.316   1.923  0.00  0.00    +0.022 C 
BRANCH  24  25
ATOM     25  C   UNL     1      -3.683  -8.106   1.241  0.00  0.00    +0.002 C 
BRANCH  25  26
ATOM     26  C   UNL     1      -4.064  -9.306   2.110  0.00  0.00    -0.000 C 
BRANCH  26  28
ATOM     27  C   UNL     1      -5.563 -11.296   2.297  0.00  0.00    +0.004 C 
ATOM     28  C   UNL     1      -5.182 -10.097   1.428  0.00  0.00    -0.003 C 
ENDBRANCH  26  28
ENDBRANCH  25  26
ENDBRANCH  24  25
ENDBRANCH  22  24
ENDBRANCH   1  22
TORSDOF 6
