REMARK  Name = ZINC64520850
REMARK  9 active torsions:
REMARK  status: ('A' for Active; 'I' for Inactive)
REMARK    1  A    between atoms: C_1  and  C_2
REMARK    2  A    between atoms: C_4  and  S_9
REMARK    3  A    between atoms: C_5  and  C_8
REMARK    4  A    between atoms: S_9  and  N_12
REMARK    5  A    between atoms: C_15  and  C_18
REMARK    6  A    between atoms: C_18  and  C_19
REMARK    7  A    between atoms: N_21  and  C_22
REMARK    8  A    between atoms: C_22  and  C_23
REMARK    9  A    between atoms: C_23  and  C_24
REMARK                            x       y       z     vdW  Elec       q    Type
REMARK                         _______ _______ _______ _____ _____    ______ ____
ROOT
ATOM      1  N   UNL     1      -2.300  -1.212  -2.470  0.00  0.00    -0.177 NA
ATOM      2  C   UNL     1      -1.454  -0.688  -3.552  0.00  0.00    +0.110 C 
ATOM      3  C   UNL     1      -2.193  -0.862  -4.883  0.00  0.00    +0.021 C 
ATOM      4  C   UNL     1      -2.593  -2.329  -5.052  0.00  0.00    +0.000 C 
ATOM      5  C   UNL     1      -3.538  -2.736  -3.919  0.00  0.00    +0.021 C 
ATOM      6  C   UNL     1      -2.811  -2.585  -2.575  0.00  0.00    +0.110 C 
ENDROOT
BRANCH   1   7
ATOM      7  S   UNL     1      -2.666  -0.273  -1.156  0.00  0.00    +0.061 S 
ATOM      8  O   UNL     1      -3.870  -0.792  -0.609  0.00  0.00    -0.153 OA
ATOM      9  O   UNL     1      -2.539   1.079  -1.574  0.00  0.00    -0.153 OA
BRANCH   7  12
ATOM     10  C   UNL     1      -0.019   1.526   0.010  0.00  0.00    +0.047 C 
ATOM     11  C   UNL     1       0.002  -0.004   0.002  0.00  0.00    +0.196 C 
ATOM     12  C   UNL     1      -1.407  -0.548   0.046  0.00  0.00    +0.134 C 
ATOM     13  C   UNL     1      -1.526  -1.263   1.145  0.00  0.00    +0.061 C 
ATOM     14  N   UNL     1      -0.345  -1.271   1.865  0.00  0.00    -0.268 N 
ATOM     15  O   UNL     1       0.636  -0.500   1.190  0.00  0.00    -0.265 OA
ATOM     16  C   UNL     1      -2.784  -1.980   1.564  0.00  0.00    +0.067 C 
ATOM     17  H   UNL     1      -0.208  -1.735   2.706  0.00  0.00    +0.194 HD
ENDBRANCH   7  12
ENDBRANCH   1   7
BRANCH   4  18
ATOM     18  C   UNL     1      -3.300  -2.513  -6.396  0.00  0.00    +0.099 C 
BRANCH  18  19
ATOM     19  C   UNL     1      -3.585  -3.976  -6.619  0.00  0.00    +0.213 C 
ATOM     20  O   UNL     1      -3.255  -4.791  -5.784  0.00  0.00    -0.276 OA
ATOM     21  N   UNL     1      -4.207  -4.378  -7.745  0.00  0.00    -0.315 N 
ATOM     22  H   UNL     1      -4.471  -3.725  -8.412  0.00  0.00    +0.149 HD
BRANCH  21  23
ATOM     23  C   UNL     1      -4.484  -5.800  -7.961  0.00  0.00    +0.108 C 
BRANCH  23  24
ATOM     24  C   UNL     1      -5.191  -5.984  -9.305  0.00  0.00    +0.052 C 
BRANCH  24  25
ATOM     25  C   UNL     1      -5.476  -7.447  -9.527  0.00  0.00    -0.040 C 
ATOM     26  C   UNL     1      -6.625  -8.103  -9.248  0.00  0.00    -0.001 A 
ATOM     27  C   UNL     1      -7.905  -7.668  -8.676  0.00  0.00    +0.010 A 
ATOM     28  C   UNL     1      -8.893  -8.576  -8.512  0.00  0.00    +0.001 A 
ATOM     29  C   UNL     1      -8.726  -9.920  -8.875  0.00  0.00    +0.002 A 
ATOM     30  C   UNL     1      -7.580 -10.395  -9.407  0.00  0.00    +0.026 A 
ATOM     31  C   UNL     1      -6.474  -9.527  -9.623  0.00  0.00    +0.043 A 
ATOM     32  N   UNL     1      -5.279  -9.743 -10.115  0.00  0.00    -0.380 N 
ATOM     33  C   UNL     1      -4.536  -8.477 -10.113  0.00  0.00    +0.144 C 
ATOM     34  H   UNL     1      -4.942 -10.596 -10.431  0.00  0.00    +0.160 HD
ENDBRANCH  24  25
ENDBRANCH  23  24
ENDBRANCH  21  23
ENDBRANCH  18  19
ENDBRANCH   4  18
TORSDOF 7
