REMARK  Name = ZINC02859423
REMARK  7 active torsions:
REMARK  status: ('A' for Active; 'I' for Inactive)
REMARK    1  A    between atoms: C_1  and  C_2
REMARK    2  A    between atoms: C_5  and  C_8
REMARK    3  A    between atoms: C_8  and  N_9
REMARK    4  A    between atoms: C_10  and  C_26
REMARK    5  A    between atoms: C_29  and  C_32
REMARK    6  A    between atoms: C_32  and  O_34
REMARK    7  A    between atoms: O_34  and  C_35
REMARK                            x       y       z     vdW  Elec       q    Type
REMARK                         _______ _______ _______ _____ _____    ______ ____
ROOT
ATOM      1  N   UNL     1       2.238   0.798  -0.015  0.00  0.00    -0.279 N 
ATOM      2  C   UNL     1       1.445  -0.438  -0.014  0.00  0.00    +0.145 C 
ATOM      3  C   UNL     1       0.002  -0.004   0.002  0.00  0.00    +0.072 A 
ATOM      4  C   UNL     1      -1.259  -0.751   0.010  0.00  0.00    +0.199 A 
ATOM      5  O   UNL     1      -1.281  -1.969   0.004  0.00  0.00    -0.287 OA
ATOM      6  C   UNL     1      -2.501   0.047   0.025  0.00  0.00    +0.065 A 
ATOM      7  C   UNL     1      -3.755  -0.562   0.033  0.00  0.00    +0.030 A 
ATOM      8  C   UNL     1      -4.889   0.221   0.047  0.00  0.00    +0.019 A 
ATOM      9  C   UNL     1      -4.782   1.606   0.054  0.00  0.00    +0.019 A 
ATOM     10  C   UNL     1      -3.548   2.218   0.046  0.00  0.00    +0.048 A 
ATOM     11  C   UNL     1      -2.389   1.448   0.032  0.00  0.00    +0.140 A 
ATOM     12  O   UNL     1      -1.178   2.034   0.029  0.00  0.00    -0.450 OA
ATOM     13  C   UNL     1      -0.016   1.351   0.009  0.00  0.00    +0.199 A 
ATOM     14  C   UNL     1       1.386   1.837  -0.001  0.00  0.00    +0.283 C 
ATOM     15  O   UNL     1       1.716   3.006   0.001  0.00  0.00    -0.267 OA
ATOM     16 BR   UNL     1      -6.597  -0.592   0.057  0.00  0.00    -0.050 Br
ENDROOT
BRANCH   2  17
ATOM     17  C   UNL     1       1.756  -1.253   1.214  0.00  0.00    -0.022 A 
ATOM     18  C   UNL     1       1.979  -0.619   2.424  0.00  0.00    +0.006 A 
ATOM     19  C   UNL     1       2.258  -1.360   3.553  0.00  0.00    +0.015 A 
ATOM     20  C   UNL     1       2.326  -2.752   3.472  0.00  0.00    +0.059 A 
ATOM     21  C   UNL     1       2.105  -3.385   2.248  0.00  0.00    +0.015 A 
ATOM     22  C   UNL     1       1.821  -2.632   1.127  0.00  0.00    +0.006 A 
BRANCH  20  23
ATOM     23  C   UNL     1       2.631  -3.551   4.676  0.00  0.00    +0.339 C 
ATOM     24  O   UNL     1       2.689  -4.762   4.603  0.00  0.00    -0.245 OA
BRANCH  23  25
ATOM     25  O   UNL     1       2.843  -2.937   5.857  0.00  0.00    -0.464 OA
ATOM     26  C   UNL     1       3.138  -3.786   6.997  0.00  0.00    +0.280 C 
ENDBRANCH  23  25
ENDBRANCH  20  23
ENDBRANCH   2  17
BRANCH   1  27
ATOM     27  C   UNL     1       3.701   0.882  -0.029  0.00  0.00    +0.144 C 
BRANCH  27  32
ATOM     28  C   UNL     1       5.571   1.024  -5.495  0.00  0.00    +0.044 C 
ATOM     29  C   UNL     1       5.083   0.987  -4.069  0.00  0.00    -0.050 A 
ATOM     30  C   UNL     1       4.790   2.165  -3.409  0.00  0.00    +0.003 A 
ATOM     31  C   UNL     1       4.343   2.131  -2.101  0.00  0.00    +0.005 A 
ATOM     32  C   UNL     1       4.188   0.919  -1.454  0.00  0.00    -0.030 A 
ATOM     33  C   UNL     1       4.486  -0.259  -2.114  0.00  0.00    +0.005 A 
ATOM     34  C   UNL     1       4.930  -0.225  -3.423  0.00  0.00    +0.003 A 
ENDBRANCH  27  32
ENDBRANCH   1  27
TORSDOF 5
