REMARK  Name = ZINC35306460
REMARK  4 active torsions:
REMARK  status: ('A' for Active; 'I' for Inactive)
REMARK    1  A    between atoms: C_3  and  S_9
REMARK    2  A    between atoms: S_9  and  N_12
REMARK    3  A    between atoms: N_12  and  C_13
REMARK    4  A    between atoms: C_17  and  C_18
REMARK                            x       y       z     vdW  Elec       q    Type
REMARK                         _______ _______ _______ _____ _____    ______ ____
ROOT
ATOM      1  S   UNL     1       3.890   2.319  -0.023  0.00  0.00    +0.075 S 
ATOM      2  O   UNL     1       4.688   1.764  -1.059  0.00  0.00    -0.150 OA
ATOM      3  O   UNL     1       3.540   3.696   0.015  0.00  0.00    -0.150 OA
ENDROOT
BRANCH   1   6
ATOM      4  C   UNL     1      -0.017   1.380   0.010  0.00  0.00    +0.040 A 
ATOM      5  C   UNL     1       1.171   2.088   0.002  0.00  0.00    +0.034 A 
ATOM      6  C   UNL     1       2.377   1.415  -0.013  0.00  0.00    +0.144 A 
ATOM      7  C   UNL     1       2.399   0.030  -0.021  0.00  0.00    +0.153 A 
ATOM      8  C   UNL     1       1.210  -0.679  -0.014  0.00  0.00    +0.078 A 
ATOM      9  C   UNL     1       0.002  -0.004   0.002  0.00  0.00    +0.126 A 
ATOM     10  F   UNL     1      -1.158  -0.696   0.010  0.00  0.00    -0.205 F 
ATOM     11  F   UNL     1       3.579  -0.627  -0.037  0.00  0.00    -0.203 F 
ENDBRANCH   1   6
BRANCH   1  12
ATOM     12  N   UNL     1       4.667   1.989   1.402  0.00  0.00    -0.215 N 
ATOM     13  H   UNL     1       4.811   2.695   2.051  0.00  0.00    +0.174 HD
BRANCH  12  14
ATOM     14  C   UNL     1       5.112   0.700   1.668  0.00  0.00    +0.069 A 
ATOM     15  C   UNL     1       5.601  -0.131   0.679  0.00  0.00    +0.033 A 
ATOM     16  C   UNL     1       6.018  -1.375   1.012  0.00  0.00    +0.048 A 
ATOM     17  S   UNL     1       5.768  -1.473   2.670  0.00  0.00    -0.088 S 
ATOM     18  C   UNL     1       5.103   0.155   2.956  0.00  0.00    +0.123 A 
BRANCH  18  19
ATOM     19  C   UNL     1       4.677   0.740   4.163  0.00  0.00    +0.395 C 
ATOM     20  O   UNL     1       4.202   1.986   4.170  0.00  0.00    -0.240 OA
ATOM     21  O   UNL     1       4.748   0.049   5.301  0.00  0.00    -0.240 OA
ENDBRANCH  18  19
ENDBRANCH  12  14
ENDBRANCH   1  12
TORSDOF 4
