REMARK  Name = ZINC18273695
REMARK  13 active torsions:
REMARK  status: ('A' for Active; 'I' for Inactive)
REMARK    1  A    between atoms: C_1  and  C_2
REMARK    2  A    between atoms: C_2  and  C_3
REMARK    3  A    between atoms: C_3  and  C_4
REMARK    4  A    between atoms: C_4  and  N_5
REMARK    5  A    between atoms: N_5  and  C_6
REMARK    6  A    between atoms: C_7  and  N_22
REMARK    7  A    between atoms: N_8  and  C_15
REMARK    8  A    between atoms: C_15  and  C_16
REMARK    9  A    between atoms: C_23  and  C_25
REMARK   10  A    between atoms: C_25  and  S_26
REMARK   11  A    between atoms: S_26  and  C_27
REMARK   12  A    between atoms: C_30  and  C_33
REMARK   13  A    between atoms: N_31  and  N_32
REMARK                            x       y       z     vdW  Elec       q    Type
REMARK                         _______ _______ _______ _____ _____    ______ ____
ROOT
ATOM      1  N   UNL     1      -1.361  -0.514   0.015  0.00  0.00    -0.264 N 
ATOM      2  C   UNL     1      -1.857  -0.846   1.225  0.00  0.00    +0.230 C 
ATOM      3  O   UNL     1      -2.949  -1.367   1.312  0.00  0.00    -0.274 OA
ENDROOT
BRANCH   1   4
ATOM      4  C   UNL     1      -2.157  -0.670  -1.140  0.00  0.00    +0.140 A 
ATOM      5  C   UNL     1      -1.811  -1.586  -2.112  0.00  0.00    +0.128 A 
ATOM      6  N   UNL     1      -2.609  -1.718  -3.225  0.00  0.00    -0.276 N 
ATOM      7  C   UNL     1      -3.709  -0.956  -3.368  0.00  0.00    +0.331 A 
ATOM      8  O   UNL     1      -4.399  -1.085  -4.361  0.00  0.00    -0.246 OA
ATOM      9  N   UNL     1      -4.059  -0.054  -2.434  0.00  0.00    -0.273 N 
ATOM     10  H   UNL     1      -4.881   0.500  -2.564  0.00  0.00    +0.173 HD
ATOM     11  C   UNL     1      -3.314   0.111  -1.323  0.00  0.00    +0.277 A 
ATOM     12  O   UNL     1      -3.640   0.931  -0.482  0.00  0.00    -0.266 OA
BRANCH   5  13
ATOM     13  N   UNL     1      -0.685  -2.361  -1.968  0.00  0.00    -0.343 N 
ATOM     14  H   UNL     1      -0.090  -2.216  -1.216  0.00  0.00    +0.144 HD
ATOM     15  H   UNL     1      -0.486  -3.052  -2.619  0.00  0.00    +0.144 HD
ENDBRANCH   5  13
BRANCH   6  16
ATOM     16  C   UNL     1      -2.257  -2.690  -4.262  0.00  0.00    +0.163 C 
BRANCH  16  17
ATOM     17  C   UNL     1      -1.363  -2.034  -5.283  0.00  0.00    -0.028 A 
ATOM     18  C   UNL     1      -1.916  -1.411  -6.387  0.00  0.00    +0.005 A 
ATOM     19  C   UNL     1      -1.097  -0.805  -7.321  0.00  0.00    +0.000 A 
ATOM     20  C   UNL     1       0.276  -0.830  -7.157  0.00  0.00    +0.000 A 
ATOM     21  C   UNL     1       0.828  -1.457  -6.056  0.00  0.00    +0.000 A 
ATOM     22  C   UNL     1       0.009  -2.059  -5.119  0.00  0.00    +0.005 A 
ENDBRANCH  16  17
ENDBRANCH   6  16
ENDBRANCH   1   4
BRANCH   1  23
ATOM     23  C   UNL     1       0.002   0.008  -0.100  0.00  0.00    +0.114 C 
BRANCH  23  24
ATOM     24  C   UNL     1      -0.035   1.538  -0.095  0.00  0.00    +0.019 C 
BRANCH  24  26
ATOM     25  C   UNL     1       1.353   3.612  -0.210  0.00  0.00    +0.004 C 
ATOM     26  C   UNL     1       1.390   2.083  -0.215  0.00  0.00    -0.002 C 
ENDBRANCH  24  26
ENDBRANCH  23  24
ENDBRANCH   1  23
BRANCH   2  27
ATOM     27  C   UNL     1      -1.054  -0.568   2.470  0.00  0.00    +0.173 C 
BRANCH  27  28
ATOM     28  S   UNL     1      -1.981  -1.123   3.922  0.00  0.00    -0.075 S 
BRANCH  28  29
ATOM     29  C   UNL     1      -0.843  -0.690   5.196  0.00  0.00    +0.209 A 
ATOM     30  N   UNL     1       0.330  -0.123   5.034  0.00  0.00    -0.121 NA
ATOM     31  N   UNL     1       0.893   0.049   6.177  0.00  0.00    -0.132 NA
ATOM     32  C   UNL     1       0.119  -0.394   7.128  0.00  0.00    +0.154 A 
ATOM     33  N   UNL     1      -1.017  -0.875   6.537  0.00  0.00    -0.228 N 
BRANCH  33  34
ATOM     34  N   UNL     1      -2.099  -1.428   7.160  0.00  0.00    -0.295 N 
ATOM     35  H   UNL     1      -1.988  -2.426   7.260  0.00  0.00    +0.163 HD
ATOM     36  H   UNL     1      -2.264  -0.992   8.055  0.00  0.00    +0.163 HD
ENDBRANCH  33  34
BRANCH  32  37
ATOM     37  C   UNL     1       0.418  -0.373   8.604  0.00  0.00    +0.059 C 
ATOM     38  C   UNL     1       1.655   0.401   9.064  0.00  0.00    +0.012 C 
ATOM     39  C   UNL     1       1.658  -1.129   9.085  0.00  0.00    +0.012 C 
ENDBRANCH  32  37
ENDBRANCH  28  29
ENDBRANCH  27  28
ENDBRANCH   2  27
TORSDOF 12
