REMARK  Name = ZINC43222841
REMARK  8 active torsions:
REMARK  status: ('A' for Active; 'I' for Inactive)
REMARK    1  A    between atoms: C_1  and  C_2
REMARK    2  A    between atoms: C_2  and  C_4
REMARK    3  A    between atoms: C_2  and  N_14
REMARK    4  A    between atoms: C_15  and  C_17
REMARK    5  A    between atoms: C_22  and  C_24
REMARK    6  A    between atoms: N_26  and  C_27
REMARK    7  A    between atoms: C_27  and  C_29
REMARK    8  A    between atoms: C_27  and  C_30
REMARK                            x       y       z     vdW  Elec       q    Type
REMARK                         _______ _______ _______ _____ _____    ______ ____
ROOT
ATOM      1  C   UNL     1       2.874  -1.276   2.190  0.00  0.00    +0.068 C 
ATOM      2  C   UNL     1       2.545  -2.781   2.288  0.00  0.00    -0.069 C 
ATOM      3  N   UNL     1       3.619  -3.450   1.509  0.00  0.00    +0.380 N 
ATOM      4  C   UNL     1       4.847  -2.687   1.851  0.00  0.00    -0.069 C 
ATOM      5  C   UNL     1       4.388  -1.212   1.904  0.00  0.00    +0.068 C 
ATOM      6  H   UNL     1       3.712  -4.414   1.792  0.00  0.00    -0.086 HD
ATOM      7  H   UNL     1       3.429  -3.388   0.520  0.00  0.00    -0.086 HD
ENDROOT
BRANCH   1   9
ATOM      8  N   UNL     1       0.754  -0.619   1.099  0.00  0.00    -0.309 N 
ATOM      9  C   UNL     1       2.101  -0.643   1.062  0.00  0.00    +0.215 C 
ATOM     10  O   UNL     1       2.691  -0.156   0.121  0.00  0.00    -0.276 OA
ATOM     11  H   UNL     1       0.282  -1.009   1.851  0.00  0.00    +0.149 HD
BRANCH   8  13
ATOM     12  C   UNL     1      -0.150   1.495   0.266  0.00  0.00    +0.033 C 
ATOM     13  C   UNL     1       0.002  -0.004   0.002  0.00  0.00    +0.101 C 
BRANCH  13  14
ATOM     14  C   UNL     1      -1.362  -0.638  -0.090  0.00  0.00    -0.020 A 
ATOM     15  C   UNL     1      -1.935  -1.192   1.014  0.00  0.00    +0.006 A 
ATOM     16  C   UNL     1      -3.195  -1.783   0.948  0.00  0.00    +0.001 A 
ATOM     17  C   UNL     1      -3.889  -1.824  -0.222  0.00  0.00    +0.008 A 
ATOM     18  C   UNL     1      -3.330  -1.263  -1.382  0.00  0.00    -0.018 A 
ATOM     19  C   UNL     1      -2.051  -0.657  -1.314  0.00  0.00    -0.013 A 
ATOM     20  C   UNL     1      -1.495  -0.090  -2.474  0.00  0.00    +0.009 A 
ATOM     21  C   UNL     1      -2.192  -0.127  -3.642  0.00  0.00    +0.001 A 
ATOM     22  C   UNL     1      -3.452  -0.717  -3.708  0.00  0.00    +0.001 A 
ATOM     23  C   UNL     1      -4.017  -1.288  -2.608  0.00  0.00    +0.008 A 
ENDBRANCH  13  14
ENDBRANCH   8  13
ENDBRANCH   1   9
BRANCH   5  24
ATOM     24  C   UNL     1       5.100  -0.480   3.013  0.00  0.00    +0.215 C 
ATOM     25  O   UNL     1       4.471  -0.043   3.953  0.00  0.00    -0.276 OA
ATOM     26  N   UNL     1       6.436  -0.311   2.959  0.00  0.00    -0.312 N 
ATOM     27  H   UNL     1       6.940  -0.660   2.207  0.00  0.00    +0.149 HD
BRANCH  26  28
ATOM     28  C   UNL     1       7.128   0.400   4.037  0.00  0.00    +0.073 C 
ATOM     29  C   UNL     1       7.075   1.906   3.771  0.00  0.00    +0.028 C 
BRANCH  28  30
ATOM     30  C   UNL     1       8.588  -0.056   4.094  0.00  0.00    +0.009 C 
ATOM     31  C   UNL     1       8.641  -1.562   4.360  0.00  0.00    +0.005 C 
ATOM     32  C   UNL     1      10.101  -2.018   4.418  0.00  0.00    +0.000 C 
ATOM     33  C   UNL     1      10.823  -1.275   5.543  0.00  0.00    +0.000 C 
ATOM     34  C   UNL     1      10.770   0.231   5.277  0.00  0.00    +0.000 C 
ATOM     35  C   UNL     1       9.310   0.687   5.220  0.00  0.00    +0.005 C 
ENDBRANCH  28  30
ENDBRANCH  26  28
ENDBRANCH   5  24
TORSDOF 6
