REMARK  Name = ZINC22415432
REMARK  14 active torsions:
REMARK  status: ('A' for Active; 'I' for Inactive)
REMARK    1  A    between atoms: C_1  and  C_2
REMARK    2  A    between atoms: C_2  and  C_3
REMARK    3  A    between atoms: C_2  and  C_4
REMARK    4  A    between atoms: C_4  and  C_6
REMARK    5  A    between atoms: C_4  and  N_18
REMARK    6  A    between atoms: C_6  and  O_8
REMARK    7  A    between atoms: O_8  and  C_9
REMARK    8  A    between atoms: C_9  and  C_10
REMARK    9  A    between atoms: C_10  and  C_12
REMARK   10  A    between atoms: C_12  and  C_16
REMARK   11  A    between atoms: C_13  and  C_14
REMARK   12  A    between atoms: C_13  and  N_15
REMARK   13  A    between atoms: N_18  and  C_19
REMARK   14  A    between atoms: C_22  and  C_26
REMARK                            x       y       z     vdW  Elec       q    Type
REMARK                         _______ _______ _______ _____ _____    ______ ____
ROOT
ATOM      1  C   UNL     1      -3.948   2.283   0.257  0.00  0.00    +0.182 C 
ENDROOT
BRANCH   1   3
ATOM      2  C   UNL     1      -3.272   3.501  -1.817  0.00  0.00    +0.009 C 
ATOM      3  C   UNL     1      -4.359   2.638  -1.173  0.00  0.00    +0.014 C 
ATOM      4  C   UNL     1      -4.538   1.354  -1.986  0.00  0.00    +0.009 C 
ENDBRANCH   1   3
BRANCH   1   5
ATOM      5  C   UNL     1      -5.042   1.477   0.909  0.00  0.00    +0.328 C 
ATOM      6  O   UNL     1      -4.813   0.360   1.309  0.00  0.00    -0.249 OA
BRANCH   5   7
ATOM      7  O   UNL     1      -6.271   2.000   1.045  0.00  0.00    -0.455 OA
BRANCH   7   8
ATOM      8  C   UNL     1      -7.275   1.168   1.682  0.00  0.00    +0.312 C 
BRANCH   8   9
ATOM      9  C   UNL     1      -8.581   1.916   1.746  0.00  0.00    +0.212 C 
ATOM     10  O   UNL     1      -8.658   3.042   1.299  0.00  0.00    -0.288 OA
BRANCH   9  11
ATOM     11  C   UNL     1      -9.719   1.306   2.329  0.00  0.00    +0.114 C 
ATOM     12  C   UNL     1     -10.818   1.002   1.546  0.00  0.00    +0.019 C 
ATOM     13  C   UNL     1     -10.758   1.201   0.053  0.00  0.00    +0.061 C 
BRANCH  12  14
ATOM     14  N   UNL     1     -11.944   0.528   2.119  0.00  0.00    -0.360 N 
ATOM     15  H   UNL     1     -12.818   0.287   1.496  0.00  0.00    +0.142 HD
ATOM     16  H   UNL     1     -11.988   0.384   3.208  0.00  0.00    +0.142 HD
ENDBRANCH  12  14
BRANCH  11  17
ATOM     17  C   UNL     1      -9.731   1.004   3.729  0.00  0.00    +0.104 C 
ATOM     18  N   UNL     1      -9.741   0.765   4.839  0.00  0.00    -0.191 NA
ENDBRANCH  11  17
ENDBRANCH   9  11
ENDBRANCH   8   9
ENDBRANCH   7   8
ENDBRANCH   5   7
ENDBRANCH   1   5
BRANCH   1  19
ATOM     19  N   UNL     1      -2.712   1.496   0.229  0.00  0.00    -0.330 N 
ATOM     20  H   UNL     1      -2.423   0.960  -0.686  0.00  0.00    +0.147 HD
BRANCH  19  21
ATOM     21  C   UNL     1      -1.902   1.428   1.366  0.00  0.00    +0.046 A 
ATOM     22  C   UNL     1      -2.212   2.183   2.489  0.00  0.00    +0.025 A 
ATOM     23  C   UNL     1      -1.406   2.118   3.608  0.00  0.00    +0.014 A 
ATOM     24  C   UNL     1      -0.294   1.296   3.615  0.00  0.00    +0.056 A 
ATOM     25  C   UNL     1       0.015   0.537   2.501  0.00  0.00    +0.034 A 
ATOM     26  C   UNL     1      -0.787   0.598   1.377  0.00  0.00    +0.062 A 
ATOM     27 CL   UNL     1      -0.397  -0.354  -0.022  0.00  0.00    -0.082 Cl
BRANCH  24  28
ATOM     28  C   UNL     1       0.583   1.227   4.838  0.00  0.00    +0.417 C 
ATOM     29  F   UNL     1       1.588   2.196   4.747  0.00  0.00    -0.166 F 
ATOM     30  F   UNL     1      -0.190   1.464   5.980  0.00  0.00    -0.166 F 
ATOM     31  F   UNL     1       1.165  -0.043   4.924  0.00  0.00    -0.166 F 
ENDBRANCH  24  28
ENDBRANCH  19  21
ENDBRANCH   1  19
TORSDOF 11
