REMARK  Name = ZINC30973605
REMARK  11 active torsions:
REMARK  status: ('A' for Active; 'I' for Inactive)
REMARK    1  A    between atoms: C_1  and  C_2
REMARK    2  A    between atoms: C_7  and  C_8
REMARK    3  A    between atoms: C_10  and  C_13
REMARK    4  A    between atoms: C_13  and  N_14
REMARK    5  A    between atoms: C_17  and  C_20
REMARK    6  A    between atoms: N_22  and  C_23
REMARK    7  A    between atoms: C_23  and  C_24
REMARK    8  A    between atoms: C_24  and  C_25
REMARK    9  A    between atoms: C_25  and  S_26
REMARK   10  A    between atoms: S_26  and  C_27
REMARK   11  A    between atoms: C_27  and  C_28
REMARK                            x       y       z     vdW  Elec       q    Type
REMARK                         _______ _______ _______ _____ _____    ______ ____
ROOT
ATOM      1  N   UNL     1      -1.602  -1.204  -1.374  0.00  0.00    +0.386 N 
ATOM      2  C   UNL     1      -0.437  -1.543  -2.202  0.00  0.00    -0.077 C 
ATOM      3  C   UNL     1      -0.874  -1.695  -3.661  0.00  0.00    -0.006 C 
ATOM      4  C   UNL     1      -1.933  -2.797  -3.760  0.00  0.00    +0.071 C 
ATOM      5  C   UNL     1      -3.113  -2.443  -2.851  0.00  0.00    -0.006 C 
ATOM      6  C   UNL     1      -2.611  -2.270  -1.415  0.00  0.00    -0.077 C 
ATOM      7  H   UNL     1      -2.057  -0.294  -1.792  0.00  0.00    -0.081 HD
ENDROOT
BRANCH   4   8
ATOM      8  C   UNL     1      -2.410  -2.909  -5.184  0.00  0.00    +0.216 C 
ATOM      9  O   UNL     1      -3.580  -2.725  -5.449  0.00  0.00    -0.276 OA
ATOM     10  N   UNL     1      -1.538  -3.215  -6.165  0.00  0.00    -0.315 N 
ATOM     11  H   UNL     1      -0.478  -3.382  -5.926  0.00  0.00    +0.149 HD
BRANCH  10  12
ATOM     12  C   UNL     1      -2.003  -3.325  -7.551  0.00  0.00    +0.105 C 
BRANCH  12  13
ATOM     13  C   UNL     1      -0.822  -3.679  -8.458  0.00  0.00    +0.029 C 
BRANCH  13  14
ATOM     14  C   UNL     1      -1.307  -3.793  -9.904  0.00  0.00    +0.071 C 
BRANCH  14  15
ATOM     15  S   UNL     1       0.092  -4.213 -10.980  0.00  0.00    -0.153 S 
BRANCH  15  16
ATOM     16  C   UNL     1      -0.641  -4.310 -12.636  0.00  0.00    +0.143 C 
BRANCH  16  17
ATOM     17  C   UNL     1       0.428  -4.656 -13.639  0.00  0.00    +0.115 A 
ATOM     18  C   UNL     1       0.785  -5.899 -14.011  0.00  0.00    +0.045 A 
ATOM     19  C   UNL     1       1.819  -5.760 -14.966  0.00  0.00    +0.041 A 
ATOM     20  C   UNL     1       2.033  -4.440 -15.120  0.00  0.00    +0.195 A 
ATOM     21  O   UNL     1       1.183  -3.777 -14.318  0.00  0.00    -0.467 OA
ENDBRANCH  16  17
ENDBRANCH  15  16
ENDBRANCH  14  15
ENDBRANCH  13  14
ENDBRANCH  12  13
ENDBRANCH  10  12
ENDBRANCH   4   8
BRANCH   1  22
ATOM     22  C   UNL     1      -1.198  -0.916   0.009  0.00  0.00    +0.022 C 
BRANCH  22  25
ATOM     23  C   UNL     1       1.282   1.686  -0.001  0.00  0.00    +0.202 A 
ATOM     24  N   UNL     1      -0.016   1.306   0.009  0.00  0.00    -0.193 NA
ATOM     25  C   UNL     1       0.002  -0.004   0.002  0.00  0.00    +0.211 A 
ATOM     26  O   UNL     1       1.285  -0.380  -0.012  0.00  0.00    -0.340 OA
ATOM     27  N   UNL     1       2.004   0.596  -0.014  0.00  0.00    -0.056 NA
BRANCH  23  34
ATOM     28  C   UNL     1       4.133   2.172  -0.025  0.00  0.00    +0.044 C 
ATOM     29  C   UNL     1       3.162   3.324  -0.011  0.00  0.00    -0.040 A 
ATOM     30  C   UNL     1       3.630   4.623  -0.009  0.00  0.00    +0.004 A 
ATOM     31  C   UNL     1       2.740   5.681   0.004  0.00  0.00    +0.000 A 
ATOM     32  C   UNL     1       1.377   5.445   0.016  0.00  0.00    +0.001 A 
ATOM     33  C   UNL     1       0.898   4.151   0.009  0.00  0.00    +0.012 A 
ATOM     34  C   UNL     1       1.791   3.081   0.001  0.00  0.00    +0.025 A 
ENDBRANCH  23  34
ENDBRANCH  22  25
ENDBRANCH   1  22
TORSDOF 10
