REMARK  Name = ZINC11880782
REMARK  13 active torsions:
REMARK  status: ('A' for Active; 'I' for Inactive)
REMARK    1  A    between atoms: C_1  and  C_2
REMARK    2  A    between atoms: C_2  and  C_20
REMARK    3  A    between atoms: N_5  and  C_9
REMARK    4  A    between atoms: C_9  and  C_10
REMARK    5  A    between atoms: C_14  and  O_18
REMARK    6  A    between atoms: C_15  and  O_16
REMARK    7  A    between atoms: O_16  and  C_17
REMARK    8  A    between atoms: O_18  and  C_19
REMARK    9  A    between atoms: C_25  and  C_26
REMARK   10  A    between atoms: C_25  and  N_71
REMARK   11  A    between atoms: C_31  and  O_32
REMARK   12  A    between atoms: O_32  and  C_33
REMARK   13  A    between atoms: C_33  and  C_34
REMARK                            x       y       z     vdW  Elec       q    Type
REMARK                         _______ _______ _______ _____ _____    ______ ____
ROOT
ATOM      1  C   UNL     1       1.306  -0.525   8.004  0.00  0.00    +0.042 C 
ATOM      2  C   UNL     1       1.818   0.155   6.733  0.00  0.00    +0.112 C 
ATOM      3  C   UNL     1       2.850  -0.713   6.042  0.00  0.00    +0.247 C 
ATOM      4  O   UNL     1       2.688  -1.828   5.594  0.00  0.00    -0.273 OA
ATOM      5  N   UNL     1       3.987   0.011   6.031  0.00  0.00    -0.220 N 
ATOM      6  C   UNL     1       3.817   1.204   6.613  0.00  0.00    +0.310 C 
ATOM      7  O   UNL     1       4.699   2.033   6.723  0.00  0.00    -0.252 OA
ATOM      8  N   UNL     1       2.562   1.383   7.061  0.00  0.00    -0.285 N 
ATOM      9  H   UNL     1       2.215   2.168   7.513  0.00  0.00    +0.151 HD
ENDROOT
BRANCH   2  10
ATOM     10  C   UNL     1       0.656   0.467   5.787  0.00  0.00    +0.018 C 
ATOM     11  C   UNL     1      -0.371   1.344   6.508  0.00  0.00    -0.013 C 
ATOM     12  C   UNL     1      -1.500   1.701   5.539  0.00  0.00    -0.078 C 
ATOM     13  C   UNL     1       0.008   1.576   3.646  0.00  0.00    -0.078 C 
ATOM     14  C   UNL     1       1.182   1.215   4.559  0.00  0.00    -0.013 C 
ATOM     15  N   UNL     1      -0.932   2.440   4.391  0.00  0.00    +0.382 N 
ATOM     16  H   UNL     1      -0.423   3.260   4.743  0.00  0.00    -0.081 HD
BRANCH  15  17
ATOM     17  C   UNL     1      -2.017   2.895   3.498  0.00  0.00    -0.039 C 
BRANCH  17  18
ATOM     18  C   UNL     1      -1.435   3.825   2.464  0.00  0.00    -0.022 A 
ATOM     19  C   UNL     1      -1.536   5.193   2.630  0.00  0.00    +0.005 A 
ATOM     20  C   UNL     1      -1.008   6.047   1.679  0.00  0.00    +0.000 A 
ATOM     21  C   UNL     1      -0.373   5.534   0.563  0.00  0.00    +0.004 A 
ATOM     22  C   UNL     1      -0.264   4.168   0.396  0.00  0.00    +0.046 A 
ATOM     23  C   UNL     1      -0.793   3.309   1.349  0.00  0.00    +0.122 A 
BRANCH  23  24
ATOM     24  O   UNL     1      -0.687   1.964   1.186  0.00  0.00    -0.488 OA
BRANCH  24  25
ATOM     25  C   UNL     1      -0.018   1.503   0.010  0.00  0.00    +0.256 C 
BRANCH  25  26
ATOM     26  C   UNL     1       0.002  -0.004   0.002  0.00  0.00    +0.006 C 
ATOM     27  C   UNL     1      -0.293  -0.657  -1.095  0.00  0.00    +0.007 C 
ENDBRANCH  25  26
ENDBRANCH  24  25
ENDBRANCH  23  24
ENDBRANCH  17  18
ENDBRANCH  15  17
ENDBRANCH   2  10
BRANCH   5  28
ATOM     28  C   UNL     1       5.252  -0.451   5.454  0.00  0.00    +0.157 C 
BRANCH  28  29
ATOM     29  C   UNL     1       5.317  -0.051   4.002  0.00  0.00    +0.016 A 
ATOM     30  C   UNL     1       5.024  -0.976   3.017  0.00  0.00    +0.009 A 
ATOM     31  C   UNL     1       5.082  -0.612   1.685  0.00  0.00    +0.004 A 
ATOM     32  C   UNL     1       5.435   0.677   1.331  0.00  0.00    +0.049 A 
ATOM     33  C   UNL     1       5.730   1.608   2.314  0.00  0.00    +0.162 A 
ATOM     34  C   UNL     1       5.666   1.244   3.656  0.00  0.00    +0.166 A 
BRANCH  34  35
ATOM     35  O   UNL     1       5.950   2.155   4.624  0.00  0.00    -0.491 OA
ATOM     36  C   UNL     1       7.311   2.250   5.047  0.00  0.00    +0.277 C 
ENDBRANCH  34  35
BRANCH  33  37
ATOM     37  O   UNL     1       6.077   2.877   1.968  0.00  0.00    -0.491 OA
ATOM     38  C   UNL     1       6.116   3.182   0.573  0.00  0.00    +0.277 C 
ENDBRANCH  33  37
ENDBRANCH  28  29
ENDBRANCH   5  28
TORSDOF 10
