REMARK  Name = ZINC32964288
REMARK  5 active torsions:
REMARK  status: ('A' for Active; 'I' for Inactive)
REMARK    1  A    between atoms: C_1  and  O_2
REMARK    2  A    between atoms: O_2  and  C_3
REMARK    3  A    between atoms: C_8  and  N_9
REMARK    4  A    between atoms: C_13  and  C_14
REMARK    5  A    between atoms: C_24  and  C_26
REMARK                            x       y       z     vdW  Elec       q    Type
REMARK                         _______ _______ _______ _____ _____    ______ ____
ROOT
ATOM      1  C   UNL     1      -2.309  -2.310  -0.570  0.00  0.00    +0.042 C 
ATOM      2  C   UNL     1      -2.042  -1.613  -1.737  0.00  0.00    +0.082 C 
ATOM      3  C   UNL     1      -0.681  -1.580  -2.336  0.00  0.00    +0.153 C 
ATOM      4  N   UNL     1       0.159  -2.581  -2.265  0.00  0.00    -0.283 NA
ATOM      5  N   UNL     1      -0.384  -0.364  -2.987  0.00  0.00    -0.152 N 
ATOM      6  C   UNL     1      -1.446   0.397  -3.428  0.00  0.00    +0.181 C 
ATOM      7  N   UNL     1      -2.721   0.175  -3.231  0.00  0.00    -0.152 NA
ATOM      8  C   UNL     1      -3.098  -0.866  -2.458  0.00  0.00    +0.273 C 
ATOM      9  O   UNL     1      -4.274  -1.180  -2.353  0.00  0.00    -0.268 OA
ATOM     10  S   UNL     1      -0.631   1.720  -4.282  0.00  0.00    -0.033 S 
ATOM     11  C   UNL     1       1.050   1.237  -3.916  0.00  0.00    +0.133 C 
ATOM     12  N   UNL     1       0.879   0.130  -3.234  0.00  0.00    -0.164 NA
ATOM     13  H   UNL     1       1.007  -2.536  -2.735  0.00  0.00    +0.188 HD
ENDROOT
BRANCH  11  14
ATOM     14  C   UNL     1       2.313   1.913  -4.288  0.00  0.00    +0.044 A 
ATOM     15  C   UNL     1       2.283   3.100  -5.020  0.00  0.00    +0.013 A 
ATOM     16  C   UNL     1       3.463   3.725  -5.363  0.00  0.00    +0.001 A 
ATOM     17  C   UNL     1       4.677   3.179  -4.983  0.00  0.00    +0.003 A 
ATOM     18  C   UNL     1       4.716   2.003  -4.258  0.00  0.00    +0.039 A 
ATOM     19  C   UNL     1       3.540   1.368  -3.902  0.00  0.00    +0.133 A 
ATOM     20  F   UNL     1       3.578   0.222  -3.188  0.00  0.00    -0.205 F 
ENDBRANCH  11  14
BRANCH   1  25
ATOM     21  N   UNL     1      -1.349  -3.530   1.374  0.00  0.00    -0.313 N 
ATOM     22  C   UNL     1      -0.113  -3.670   1.917  0.00  0.00    +0.092 A 
ATOM     23  C   UNL     1       0.775  -2.943   1.191  0.00  0.00    +0.020 A 
ATOM     24  C   UNL     1       0.078  -2.323   0.154  0.00  0.00    +0.027 A 
ATOM     25  C   UNL     1      -1.253  -2.702   0.273  0.00  0.00    +0.048 A 
BRANCH  21  31
ATOM     26  C   UNL     1      -3.172  -5.096   1.080  0.00  0.00    +0.144 A 
ATOM     27  C   UNL     1      -4.330  -5.690   1.554  0.00  0.00    +0.049 A 
ATOM     28  C   UNL     1      -4.844  -5.321   2.783  0.00  0.00    +0.024 A 
ATOM     29  C   UNL     1      -4.204  -4.357   3.543  0.00  0.00    +0.043 A 
ATOM     30  C   UNL     1      -3.047  -3.760   3.077  0.00  0.00    +0.049 A 
ATOM     31  C   UNL     1      -2.524  -4.130   1.846  0.00  0.00    +0.090 A 
ATOM     32 CL   UNL     1      -4.855  -3.897   5.085  0.00  0.00    -0.083 Cl
BRANCH  26  34
ATOM     33  C   UNL     1      -3.383  -6.455  -0.860  0.00  0.00    +0.277 C 
ATOM     34  O   UNL     1      -2.666  -5.459  -0.129  0.00  0.00    -0.493 OA
ENDBRANCH  26  34
ENDBRANCH  21  31
ENDBRANCH   1  25
TORSDOF 4
