REMARK  Name = ZINC08416385
REMARK  14 active torsions:
REMARK  status: ('A' for Active; 'I' for Inactive)
REMARK    1  A    between atoms: C_1  and  C_2
REMARK    2  A    between atoms: C_2  and  O_3
REMARK    3  A    between atoms: O_3  and  C_4
REMARK    4  A    between atoms: C_4  and  C_6
REMARK    5  A    between atoms: C_8  and  C_32
REMARK    6  A    between atoms: C_15  and  C_26
REMARK    7  A    between atoms: C_17  and  C_21
REMARK    8  A    between atoms: C_18  and  C_20
REMARK    9  A    between atoms: C_21  and  O_23
REMARK   10  A    between atoms: O_23  and  C_24
REMARK   11  A    between atoms: C_24  and  C_25
REMARK   12  A    between atoms: C_27  and  C_31
REMARK   13  A    between atoms: C_36  and  O_38
REMARK   14  A    between atoms: O_38  and  C_39
REMARK                            x       y       z     vdW  Elec       q    Type
REMARK                         _______ _______ _______ _____ _____    ______ ____
ROOT
ATOM      1  C   UNL     1      -3.404   3.378   1.229  0.00  0.00    +0.176 C 
ATOM      2  C   UNL     1      -1.930   3.706   1.489  0.00  0.00    +0.046 C 
ATOM      3  C   UNL     1      -1.103   3.229   0.293  0.00  0.00    +0.060 C 
ATOM      4  C   UNL     1      -1.603   3.894  -0.966  0.00  0.00    +0.016 C 
ATOM      5  C   UNL     1      -2.900   4.244  -1.101  0.00  0.00    +0.025 C 
ATOM      6  C   UNL     1      -3.825   4.013  -0.068  0.00  0.00    +0.176 C 
ATOM      7  O   UNL     1      -4.987   4.332  -0.226  0.00  0.00    -0.291 OA
ATOM      8  C   UNL     1      -3.395   4.891  -2.370  0.00  0.00    +0.099 C 
ATOM      9  C   UNL     1      -2.255   5.448  -3.170  0.00  0.00    +0.066 C 
ATOM     10  C   UNL     1      -0.989   5.056  -2.947  0.00  0.00    +0.016 C 
ATOM     11  N   UNL     1      -0.709   4.138  -1.974  0.00  0.00    -0.321 N 
ATOM     12  C   UNL     1       0.131   5.633  -3.775  0.00  0.00    +0.061 C 
ATOM     13  H   UNL     1       0.245   3.592  -2.006  0.00  0.00    +0.152 HD
ENDROOT
BRANCH   8  14
ATOM     14  C   UNL     1      -4.124   3.864  -3.198  0.00  0.00    +0.005 A 
ATOM     15  C   UNL     1      -5.412   3.865  -3.619  0.00  0.00    -0.039 A 
ATOM     16  C   UNL     1      -5.870   2.805  -4.378  0.00  0.00    +0.011 A 
ATOM     17  C   UNL     1      -5.017   1.795  -4.679  0.00  0.00    +0.046 A 
ATOM     18  S   UNL     1      -3.512   2.334  -3.885  0.00  0.00    -0.100 S 
ATOM     19  C   UNL     1      -6.332   5.006  -3.265  0.00  0.00    +0.044 C 
ENDBRANCH   8  14
BRANCH   2  20
ATOM     20  C   UNL     1      -1.467   3.001   2.738  0.00  0.00    -0.039 A 
ATOM     21  C   UNL     1      -1.441   1.619   2.782  0.00  0.00    +0.004 A 
ATOM     22  C   UNL     1      -1.022   0.970   3.928  0.00  0.00    +0.004 A 
ATOM     23  C   UNL     1      -0.617   1.700   5.028  0.00  0.00    +0.045 A 
ATOM     24  C   UNL     1      -0.636   3.086   4.985  0.00  0.00    +0.120 A 
ATOM     25  C   UNL     1      -1.062   3.736   3.835  0.00  0.00    +0.049 A 
BRANCH  24  26
ATOM     26  O   UNL     1      -0.238   3.807   6.066  0.00  0.00    -0.495 OA
ATOM     27  C   UNL     1       0.188   3.071   7.215  0.00  0.00    +0.277 C 
ENDBRANCH  24  26
ENDBRANCH   2  20
BRANCH   1  28
ATOM     28  C   UNL     1      -3.579   1.884   1.141  0.00  0.00    +0.318 C 
ATOM     29  O   UNL     1      -3.008   1.257   0.281  0.00  0.00    -0.250 OA
BRANCH  28  30
ATOM     30  O   UNL     1      -4.372   1.249   2.020  0.00  0.00    -0.464 OA
BRANCH  30  32
ATOM     31  C   UNL     1      -5.431  -0.733   2.957  0.00  0.00    +0.048 C 
ATOM     32  C   UNL     1      -4.494  -0.191   1.876  0.00  0.00    +0.229 C 
ENDBRANCH  30  32
ENDBRANCH  28  30
ENDBRANCH   1  28
BRANCH   9  33
ATOM     33  C   UNL     1      -2.517   6.405  -4.179  0.00  0.00    +0.338 C 
ATOM     34  O   UNL     1      -1.601   6.865  -4.834  0.00  0.00    -0.245 OA
BRANCH  33  35
ATOM     35  O   UNL     1      -3.784   6.807  -4.414  0.00  0.00    -0.462 OA
BRANCH  35  36
ATOM     36  C   UNL     1      -3.975   7.776  -5.447  0.00  0.00    +0.229 C 
ATOM     37  C   UNL     1      -5.465   8.106  -5.566  0.00  0.00    +0.048 C 
ENDBRANCH  35  36
ENDBRANCH  33  35
ENDBRANCH   9  33
TORSDOF 9
