REMARK  Name = ZINC36027121
REMARK  5 active torsions:
REMARK  status: ('A' for Active; 'I' for Inactive)
REMARK    1  A    between atoms: C_1  and  C_2
REMARK    2  A    between atoms: N_6  and  C_24
REMARK    3  A    between atoms: N_11  and  S_14
REMARK    4  A    between atoms: S_14  and  C_17
REMARK    5  A    between atoms: C_24  and  C_25
REMARK                            x       y       z     vdW  Elec       q    Type
REMARK                         _______ _______ _______ _____ _____    ______ ____
ROOT
ATOM      1  C   UNL     1      -1.552  -0.827  -3.897  0.00  0.00    -0.004 C 
ATOM      2  C   UNL     1      -1.048  -1.474  -2.606  0.00  0.00    +0.016 C 
ATOM      3  C   UNL     1       0.295  -2.133  -2.836  0.00  0.00    +0.200 C 
ATOM      4  O   UNL     1       0.591  -2.825  -3.787  0.00  0.00    -0.277 OA
ATOM      5  N   UNL     1       1.108  -1.820  -1.805  0.00  0.00    -0.309 N 
ATOM      6  C   UNL     1       0.386  -0.971  -0.854  0.00  0.00    +0.006 C 
ATOM      7  N   UNL     1      -0.793  -0.440  -1.574  0.00  0.00    +0.401 N 
ATOM      8  C   UNL     1      -0.074  -1.795   0.347  0.00  0.00    +0.023 C 
ATOM      9  C   UNL     1       1.149  -2.375   1.064  0.00  0.00    +0.109 C 
ATOM     10  N   UNL     1       2.069  -1.276   1.392  0.00  0.00    -0.177 NA
ATOM     11  C   UNL     1       2.511  -0.379   0.316  0.00  0.00    +0.109 C 
ATOM     12  C   UNL     1       1.275   0.184  -0.395  0.00  0.00    +0.023 C 
ATOM     13  H   UNL     1      -0.577   0.447  -2.005  0.00  0.00    -0.082 HD
ATOM     14  H   UNL     1      -1.583  -0.353  -0.953  0.00  0.00    -0.082 HD
ENDROOT
BRANCH  10  15
ATOM     15  S   UNL     1       2.596  -1.054   2.946  0.00  0.00    +0.061 S 
ATOM     16  O   UNL     1       2.966   0.314   3.057  0.00  0.00    -0.153 OA
ATOM     17  O   UNL     1       1.626  -1.652   3.794  0.00  0.00    -0.153 OA
BRANCH  15  18
ATOM     18  C   UNL     1       4.075  -1.993   3.133  0.00  0.00    +0.107 A 
ATOM     19  C   UNL     1       4.011  -3.308   3.555  0.00  0.00    +0.028 A 
ATOM     20  C   UNL     1       5.171  -4.045   3.702  0.00  0.00    +0.003 A 
ATOM     21  C   UNL     1       6.396  -3.468   3.428  0.00  0.00    +0.020 A 
ATOM     22  C   UNL     1       6.462  -2.152   3.005  0.00  0.00    +0.043 A 
ATOM     23  C   UNL     1       5.300  -1.417   2.852  0.00  0.00    +0.048 A 
ATOM     24 CL   UNL     1       8.001  -1.427   2.660  0.00  0.00    -0.083 Cl
ENDBRANCH  15  18
ENDBRANCH  10  15
BRANCH   5  25
ATOM     25  C   UNL     1       2.497  -2.261  -1.660  0.00  0.00    +0.141 C 
BRANCH  25  26
ATOM     26  C   UNL     1       3.407  -1.302  -2.382  0.00  0.00    -0.030 A 
ATOM     27  C   UNL     1       2.989  -0.703  -3.556  0.00  0.00    +0.005 A 
ATOM     28  C   UNL     1       3.824   0.177  -4.218  0.00  0.00    +0.000 A 
ATOM     29  C   UNL     1       5.077   0.459  -3.707  0.00  0.00    +0.000 A 
ATOM     30  C   UNL     1       5.495  -0.139  -2.533  0.00  0.00    +0.000 A 
ATOM     31  C   UNL     1       4.658  -1.016  -1.868  0.00  0.00    +0.005 A 
ENDBRANCH  25  26
ENDBRANCH   5  25
TORSDOF 4
