REMARK  Name = ZINC09329011
REMARK  18 active torsions:
REMARK  status: ('A' for Active; 'I' for Inactive)
REMARK    1  A    between atoms: C_1  and  C_2
REMARK    2  A    between atoms: C_2  and  N_76
REMARK    3  A    between atoms: C_3  and  C_4
REMARK    4  A    between atoms: C_3  and  N_76
REMARK    5  A    between atoms: C_5  and  C_6
REMARK    6  A    between atoms: C_5  and  N_76
REMARK    7  A    between atoms: C_6  and  N_7
REMARK    8  A    between atoms: C_8  and  C_27
REMARK    9  A    between atoms: C_11  and  C_12
REMARK   10  A    between atoms: C_11  and  O_22
REMARK   11  A    between atoms: C_15  and  O_18
REMARK   12  A    between atoms: O_18  and  C_19
REMARK   13  A    between atoms: C_19  and  C_20
REMARK   14  A    between atoms: C_19  and  C_21
REMARK   15  A    between atoms: C_30  and  C_33
REMARK   16  A    between atoms: C_33  and  C_34
REMARK   17  A    between atoms: C_33  and  C_35
REMARK   18  A    between atoms: C_33  and  C_36
REMARK                            x       y       z     vdW  Elec       q    Type
REMARK                         _______ _______ _______ _____ _____    ______ ____
ROOT
ATOM      1  N   UNL     1      -3.585   4.243   3.597  0.00  0.00    -0.285 N 
ATOM      2  C   UNL     1      -4.599   5.294   3.467  0.00  0.00    +0.144 C 
ATOM      3  C   UNL     1      -5.282   5.405   4.811  0.00  0.00    +0.071 C 
ATOM      4  C   UNL     1      -6.304   6.269   5.153  0.00  0.00    +0.133 C 
ATOM      5  C   UNL     1      -4.668   4.455   5.640  0.00  0.00    +0.249 C 
ATOM      6  O   UNL     1      -4.944   4.240   6.806  0.00  0.00    -0.282 OA
ATOM      7  C   UNL     1      -3.624   3.752   4.846  0.00  0.00    +0.288 C 
ATOM      8  O   UNL     1      -2.909   2.865   5.268  0.00  0.00    -0.266 OA
ENDROOT
BRANCH   4   9
ATOM      9  C   UNL     1      -6.937   6.171   6.477  0.00  0.00    +0.017 A 
ATOM     10  C   UNL     1      -7.373   4.930   6.957  0.00  0.00    +0.015 A 
ATOM     11  C   UNL     1      -7.960   4.843   8.199  0.00  0.00    +0.046 A 
ATOM     12  C   UNL     1      -8.129   5.986   8.973  0.00  0.00    +0.121 A 
ATOM     13  C   UNL     1      -7.703   7.222   8.498  0.00  0.00    +0.046 A 
ATOM     14  C   UNL     1      -7.110   7.319   7.260  0.00  0.00    +0.015 A 
BRANCH  12  15
ATOM     15  O   UNL     1      -8.713   5.896  10.194  0.00  0.00    -0.489 OA
BRANCH  15  16
ATOM     16  C   UNL     1      -8.926   7.118  10.903  0.00  0.00    +0.167 C 
ATOM     17  C   UNL     1     -10.083   6.941  11.888  0.00  0.00    +0.051 C 
ATOM     18  C   UNL     1      -7.656   7.490  11.671  0.00  0.00    +0.051 C 
ENDBRANCH  15  16
ENDBRANCH  12  15
ENDBRANCH   4   9
BRANCH   2  19
ATOM     19  C   UNL     1      -5.602   4.916   2.408  0.00  0.00    -0.022 A 
ATOM     20  C   UNL     1      -6.037   3.608   2.303  0.00  0.00    +0.006 A 
ATOM     21  C   UNL     1      -6.960   3.261   1.335  0.00  0.00    +0.004 A 
ATOM     22  C   UNL     1      -7.442   4.222   0.465  0.00  0.00    -0.042 A 
ATOM     23  C   UNL     1      -7.004   5.529   0.566  0.00  0.00    +0.004 A 
ATOM     24  C   UNL     1      -6.084   5.876   1.538  0.00  0.00    +0.006 A 
BRANCH  22  25
ATOM     25  C   UNL     1      -8.446   3.844  -0.594  0.00  0.00    -0.013 C 
ATOM     26  C   UNL     1      -7.868   4.148  -1.977  0.00  0.00    +0.015 C 
ATOM     27  C   UNL     1      -8.759   2.350  -0.489  0.00  0.00    +0.015 C 
ATOM     28  C   UNL     1      -9.731   4.649  -0.389  0.00  0.00    +0.015 C 
ENDBRANCH  22  25
ENDBRANCH   2  19
BRANCH   4  29
ATOM     29  O   UNL     1      -6.722   7.203   4.272  0.00  0.00    -0.506 OA
ATOM     30  H   UNL     1      -7.463   7.737   4.680  0.00  0.00    +0.292 HD
ENDBRANCH   4  29
BRANCH   1  31
ATOM     31  C   UNL     1      -2.682   3.796   2.534  0.00  0.00    +0.090 C 
BRANCH  31  32
ATOM     32  C   UNL     1      -1.397   4.627   2.574  0.00  0.00    -0.060 C 
BRANCH  32  33
ATOM     33  N   UNL     1      -0.505   4.179   1.484  0.00  0.00    +0.380 N 
ATOM     34  H   UNL     1      -1.030   4.182   0.601  0.00  0.00    -0.082 HD
BRANCH  33  36
ATOM     35  C   UNL     1       0.675   2.740   3.111  0.00  0.00    -0.017 C 
ATOM     36  C   UNL     1      -0.028   2.807   1.753  0.00  0.00    -0.082 C 
ENDBRANCH  33  36
BRANCH  33  37
ATOM     37  C   UNL     1       0.645   5.099   1.362  0.00  0.00    -0.082 C 
ATOM     38  C   UNL     1       1.316   4.869   0.006  0.00  0.00    -0.017 C 
ENDBRANCH  33  37
ENDBRANCH  32  33
ENDBRANCH  31  32
ENDBRANCH   1  31
TORSDOF 11
