REMARK  Name = ZINC64888291
REMARK  12 active torsions:
REMARK  status: ('A' for Active; 'I' for Inactive)
REMARK    1  A    between atoms: C_1  and  C_2
REMARK    2  A    between atoms: C_2  and  N_3
REMARK    3  A    between atoms: C_6  and  C_18
REMARK    4  A    between atoms: N_8  and  C_11
REMARK    5  A    between atoms: C_14  and  C_17
REMARK    6  A    between atoms: C_20  and  C_23
REMARK    7  A    between atoms: C_23  and  C_24
REMARK    8  A    between atoms: C_24  and  C_25
REMARK    9  A    between atoms: N_27  and  C_28
REMARK   10  A    between atoms: C_28  and  C_29
REMARK   11  A    between atoms: C_34  and  O_35
REMARK   12  A    between atoms: O_35  and  C_36
REMARK                            x       y       z     vdW  Elec       q    Type
REMARK                         _______ _______ _______ _____ _____    ______ ____
ROOT
ATOM      1  C   UNL     1      -3.567  -2.404   2.340  0.00  0.00    +0.228 A 
ATOM      2  N   UNL     1      -4.565  -3.305   2.397  0.00  0.00    -0.190 NA
ATOM      3  C   UNL     1      -4.698  -3.746   3.615  0.00  0.00    +0.228 A 
ATOM      4  O   UNL     1      -3.786  -3.142   4.388  0.00  0.00    -0.338 OA
ATOM      5  N   UNL     1      -3.053  -2.272   3.539  0.00  0.00    -0.054 NA
ENDROOT
BRANCH   1   9
ATOM      6  N   UNL     1      -1.625  -0.085   0.063  0.00  0.00    -0.258 N 
ATOM      7  C   UNL     1      -2.008  -0.723   1.189  0.00  0.00    +0.286 A 
ATOM      8  O   UNL     1      -1.442  -0.505   2.244  0.00  0.00    -0.265 OA
ATOM      9  C   UNL     1      -3.120  -1.685   1.124  0.00  0.00    +0.196 A 
ATOM     10  N   UNL     1      -3.709  -1.896  -0.031  0.00  0.00    -0.153 NA
ATOM     11  N   UNL     1      -3.273  -1.208  -1.170  0.00  0.00    -0.181 N 
ATOM     12  C   UNL     1      -2.260  -0.327  -1.099  0.00  0.00    +0.353 A 
ATOM     13  O   UNL     1      -1.907   0.259  -2.104  0.00  0.00    -0.244 OA
BRANCH  11  14
ATOM     14  C   UNL     1      -3.903  -1.436  -2.398  0.00  0.00    +0.071 A 
ATOM     15  C   UNL     1      -5.289  -1.401  -2.486  0.00  0.00    +0.028 A 
ATOM     16  C   UNL     1      -5.908  -1.626  -3.699  0.00  0.00    +0.005 A 
ATOM     17  C   UNL     1      -5.150  -1.887  -4.826  0.00  0.00    -0.050 A 
ATOM     18  C   UNL     1      -3.771  -1.924  -4.742  0.00  0.00    +0.005 A 
ATOM     19  C   UNL     1      -3.145  -1.694  -3.533  0.00  0.00    +0.028 A 
ATOM     20  C   UNL     1      -5.830  -2.134  -6.149  0.00  0.00    +0.044 C 
ENDBRANCH  11  14
BRANCH   6  22
ATOM     21  C   UNL     1      -1.070   2.271   0.412  0.00  0.00    +0.027 C 
ATOM     22  C   UNL     1      -0.520   0.876   0.107  0.00  0.00    +0.127 C 
ENDBRANCH   6  22
ENDBRANCH   1   9
BRANCH   3  23
ATOM     23  C   UNL     1      -5.707  -4.765   4.077  0.00  0.00    +0.108 C 
BRANCH  23  24
ATOM     24  C   UNL     1      -5.109  -6.168   3.953  0.00  0.00    +0.105 C 
BRANCH  24  25
ATOM     25  C   UNL     1      -6.119  -7.187   4.415  0.00  0.00    +0.214 C 
ATOM     26  O   UNL     1      -7.209  -6.827   4.806  0.00  0.00    -0.276 OA
ATOM     27  N   UNL     1      -5.810  -8.499   4.395  0.00  0.00    -0.311 N 
ATOM     28  H   UNL     1      -4.938  -8.787   4.083  0.00  0.00    +0.149 HD
BRANCH  27  29
ATOM     29  C   UNL     1      -6.791  -9.490   4.844  0.00  0.00    +0.143 C 
BRANCH  29  30
ATOM     30  C   UNL     1      -6.202 -10.871   4.722  0.00  0.00    +0.011 A 
ATOM     31  C   UNL     1      -6.523 -11.667   3.639  0.00  0.00    +0.009 A 
ATOM     32  C   UNL     1      -5.984 -12.934   3.527  0.00  0.00    +0.001 A 
ATOM     33  C   UNL     1      -5.121 -13.410   4.497  0.00  0.00    +0.004 A 
ATOM     34  C   UNL     1      -4.796 -12.618   5.582  0.00  0.00    +0.046 A 
ATOM     35  C   UNL     1      -5.332 -11.344   5.694  0.00  0.00    +0.125 A 
BRANCH  35  36
ATOM     36  O   UNL     1      -5.010 -10.561   6.757  0.00  0.00    -0.495 OA
ATOM     37  C   UNL     1      -4.108 -11.112   7.719  0.00  0.00    +0.277 C 
ENDBRANCH  35  36
ENDBRANCH  29  30
ENDBRANCH  27  29
ENDBRANCH  24  25
ENDBRANCH  23  24
ENDBRANCH   3  23
TORSDOF 9
