REMARK  Name = ZINC11791275
REMARK  11 active torsions:
REMARK  status: ('A' for Active; 'I' for Inactive)
REMARK    1  A    between atoms: C_1  and  C_2
REMARK    2  A    between atoms: C_2  and  C_3
REMARK    3  A    between atoms: C_3  and  C_5
REMARK    4  A    between atoms: C_3  and  N_64
REMARK    5  A    between atoms: C_5  and  O_6
REMARK    6  A    between atoms: O_6  and  C_7
REMARK    7  A    between atoms: C_8  and  N_64
REMARK    8  A    between atoms: N_11  and  C_14
REMARK    9  A    between atoms: C_17  and  C_20
REMARK   10  A    between atoms: N_22  and  C_23
REMARK   11  A    between atoms: C_23  and  C_24
REMARK                            x       y       z     vdW  Elec       q    Type
REMARK                         _______ _______ _______ _____ _____    ______ ____
ROOT
ATOM      1  C   UNL     1       0.725   6.426   5.636  0.00  0.00    +0.030 A 
ATOM      2  C   UNL     1       0.654   7.252   4.518  0.00  0.00    +0.024 A 
ATOM      3  C   UNL     1       0.559   6.703   3.259  0.00  0.00    +0.015 A 
ATOM      4  C   UNL     1       0.533   5.314   3.105  0.00  0.00    +0.037 A 
ATOM      5  C   UNL     1       0.599   4.487   4.230  0.00  0.00    +0.015 A 
ATOM      6  C   UNL     1       0.700   5.042   5.485  0.00  0.00    +0.024 A 
ENDROOT
BRANCH   1  10
ATOM      7  C   UNL     1       0.005   7.566   9.614  0.00  0.00    -0.068 C 
ATOM      8  C   UNL     1       1.137   6.583   9.302  0.00  0.00    +0.003 C 
ATOM      9  C   UNL     1       0.885   5.939   7.936  0.00  0.00    +0.103 C 
ATOM     10  N   UNL     1       0.822   6.984   6.906  0.00  0.00    -0.330 N 
ATOM     11  C   UNL     1      -0.287   7.913   7.158  0.00  0.00    +0.103 C 
ATOM     12  C   UNL     1      -0.070   8.615   8.501  0.00  0.00    +0.003 C 
BRANCH   7  13
ATOM     13  N   UNL     1       0.281   8.231  10.901  0.00  0.00    +0.384 N 
ATOM     14  H   UNL     1       0.759   7.572  11.527  0.00  0.00    -0.085 HD
ATOM     15  H   UNL     1       0.883   9.047  10.739  0.00  0.00    -0.085 HD
BRANCH  13  16
ATOM     16  C   UNL     1      -0.978   8.674  11.529  0.00  0.00    -0.046 C 
BRANCH  16  18
ATOM     17  C   UNL     1      -0.205  11.045  11.675  0.00  0.00    +0.002 C 
ATOM     18  C   UNL     1      -0.684   9.835  12.480  0.00  0.00    -0.017 C 
ENDBRANCH  16  18
BRANCH  16  19
ATOM     19  C   UNL     1      -1.592   7.513  12.315  0.00  0.00    +0.144 C 
BRANCH  19  20
ATOM     20  O   UNL     1      -0.726   7.160  13.396  0.00  0.00    -0.385 OA
ATOM     21  C   UNL     1      -1.209   6.080  14.198  0.00  0.00    +0.193 C 
ENDBRANCH  19  20
ENDBRANCH  16  19
ENDBRANCH  13  16
ENDBRANCH   7  13
ENDBRANCH   1  10
BRANCH   4  22
ATOM     22  C   UNL     1       0.430   4.722   1.758  0.00  0.00    +0.244 C 
ATOM     23  O   UNL     1       0.368   5.443   0.780  0.00  0.00    -0.270 OA
ATOM     24  N   UNL     1       0.405   3.383   1.610  0.00  0.00    -0.307 N 
ATOM     25  H   UNL     1       0.455   2.808   2.390  0.00  0.00    +0.149 HD
BRANCH  24  26
ATOM     26  C   UNL     1       0.303   2.795   0.272  0.00  0.00    +0.140 C 
BRANCH  26  27
ATOM     27  C   UNL     1       0.295   1.292   0.383  0.00  0.00    -0.027 A 
ATOM     28  C   UNL     1       1.487   0.592   0.350  0.00  0.00    +0.009 A 
ATOM     29  C   UNL     1       1.485  -0.787   0.449  0.00  0.00    +0.050 A 
ATOM     30  C   UNL     1       0.287  -1.470   0.585  0.00  0.00    +0.166 A 
ATOM     31  C   UNL     1      -0.913  -0.765   0.621  0.00  0.00    +0.167 A 
ATOM     32  C   UNL     1      -0.903   0.617   0.519  0.00  0.00    +0.054 A 
ATOM     33  O   UNL     1      -1.938  -1.655   0.760  0.00  0.00    -0.453 OA
ATOM     34  C   UNL     1      -1.388  -2.935   0.399  0.00  0.00    +0.466 C 
ATOM     35  O   UNL     1       0.014  -2.803   0.702  0.00  0.00    -0.453 OA
ENDBRANCH  26  27
ENDBRANCH  24  26
ENDBRANCH   4  22
TORSDOF 9
