REMARK  Name = ZINC05826990
REMARK  6 active torsions:
REMARK  status: ('A' for Active; 'I' for Inactive)
REMARK    1  A    between atoms: C_1  and  C_2
REMARK    2  A    between atoms: C_5  and  C_29
REMARK    3  A    between atoms: C_6  and  C_8
REMARK    4  A    between atoms: C_9  and  C_10
REMARK    5  A    between atoms: C_9  and  C_12
REMARK    6  A    between atoms: C_24  and  C_28
REMARK                            x       y       z     vdW  Elec       q    Type
REMARK                         _______ _______ _______ _____ _____    ______ ____
ROOT
ATOM      1  C   UNL     1      -2.335   1.471   0.162  0.00  0.00    +0.152 A 
ATOM      2  N   UNL     1      -2.416   0.114   0.325  0.00  0.00    -0.306 N 
ATOM      3  H   UNL     1      -3.309  -0.309   0.478  0.00  0.00    +0.170 HD
ATOM      4  C   UNL     1      -1.316  -0.660   0.281  0.00  0.00    +0.260 A 
ATOM      5  O   UNL     1      -1.403  -1.867   0.428  0.00  0.00    -0.267 OA
ATOM      6  C   UNL     1      -0.041  -0.045   0.060  0.00  0.00    +0.075 A 
ATOM      7  C   UNL     1       1.271  -0.686  -0.024  0.00  0.00    -0.023 A 
ATOM      8  C   UNL     1       2.333   0.118  -0.241  0.00  0.00    -0.004 A 
ATOM      9  S   UNL     1       1.659   1.754  -0.344  0.00  0.00    -0.073 S 
ATOM     10  C   UNL     1      -0.052   1.353  -0.096  0.00  0.00    +0.116 A 
ATOM     11  N   UNL     1      -1.173   2.059  -0.047  0.00  0.00    -0.221 NA
ATOM     12  C   UNL     1       3.770  -0.290  -0.365  0.00  0.00    +0.046 C 
ATOM     13  C   UNL     1       3.912  -1.727   0.159  0.00  0.00    -0.009 C 
ATOM     14  C   UNL     1       2.808  -2.588  -0.462  0.00  0.00    +0.008 C 
ATOM     15  C   UNL     1       1.451  -2.194   0.123  0.00  0.00    +0.037 C 
ATOM     16  C   UNL     1       5.281  -2.286  -0.234  0.00  0.00    +0.008 C 
ENDROOT
BRANCH   1  18
ATOM     17  C   UNL     1      -3.490   3.638   0.055  0.00  0.00    +0.030 C 
ATOM     18  C   UNL     1      -3.561   2.284   0.216  0.00  0.00    +0.095 C 
BRANCH  17  24
ATOM     19  C   UNL     1      -8.249   4.057  -1.365  0.00  0.00    +0.044 C 
ATOM     20  C   UNL     1      -7.017   4.640  -0.722  0.00  0.00    -0.050 A 
ATOM     21  C   UNL     1      -7.045   5.930  -0.219  0.00  0.00    +0.003 A 
ATOM     22  C   UNL     1      -5.919   6.475   0.373  0.00  0.00    +0.004 A 
ATOM     23  C   UNL     1      -4.758   5.737   0.467  0.00  0.00    -0.043 A 
ATOM     24  C   UNL     1      -4.721   4.432  -0.040  0.00  0.00    -0.021 A 
ATOM     25  C   UNL     1      -5.864   3.890  -0.642  0.00  0.00    +0.011 A 
ATOM     26  C   UNL     1      -3.534   6.332   1.111  0.00  0.00    +0.044 C 
ENDBRANCH  17  24
BRANCH  18  27
ATOM     27  C   UNL     1      -4.828   1.655   0.438  0.00  0.00    +0.103 C 
ATOM     28  N   UNL     1      -5.833   1.156   0.614  0.00  0.00    -0.191 NA
ENDBRANCH  18  27
ENDBRANCH   1  18
TORSDOF 3
