REMARK  Name = ZINC10127366
REMARK  8 active torsions:
REMARK  status: ('A' for Active; 'I' for Inactive)
REMARK    1  A    between atoms: C_1  and  C_2
REMARK    2  A    between atoms: C_8  and  C_29
REMARK    3  A    between atoms: C_12  and  C_14
REMARK    4  A    between atoms: C_12  and  O_16
REMARK    5  A    between atoms: C_14  and  O_15
REMARK    6  A    between atoms: C_21  and  C_28
REMARK    7  A    between atoms: C_24  and  C_26
REMARK    8  A    between atoms: C_24  and  C_27
REMARK                            x       y       z     vdW  Elec       q    Type
REMARK                         _______ _______ _______ _____ _____    ______ ____
ROOT
ATOM      1  C   UNL     1       2.206   2.581   1.348  0.00  0.00    +0.010 C 
ATOM      2  C   UNL     1       2.033   1.921  -0.012  0.00  0.00    +0.019 C 
ATOM      3  C   UNL     1       0.612   2.067  -0.533  0.00  0.00    +0.006 C 
ATOM      4  C   UNL     1      -0.342   1.127   0.194  0.00  0.00    +0.005 C 
ATOM      5  C   UNL     1       0.098  -0.337   0.035  0.00  0.00    +0.008 C 
ATOM      6  C   UNL     1       1.498  -0.511   0.611  0.00  0.00    +0.001 C 
ATOM      7  C   UNL     1       2.481   0.470  -0.016  0.00  0.00    +0.081 C 
ATOM      8  C   UNL     1       2.792   0.095  -1.489  0.00  0.00    +0.041 C 
ATOM      9  C   UNL     1       4.165   0.798  -1.685  0.00  0.00    +0.070 C 
ATOM     10  C   UNL     1       4.798   0.713  -0.281  0.00  0.00    +0.191 C 
ATOM     11  O   UNL     1       3.760   0.341   0.641  0.00  0.00    -0.339 OA
ATOM     12  C   UNL     1       1.461  -0.357   2.134  0.00  0.00    +0.012 C 
ATOM     13  C   UNL     1       0.512  -1.403   2.741  0.00  0.00    +0.033 C 
ATOM     14  C   UNL     1      -0.892  -1.118   2.226  0.00  0.00    +0.130 C 
ATOM     15  C   UNL     1      -0.956  -1.202   0.702  0.00  0.00    +0.021 C 
ATOM     16  C   UNL     1      -2.376  -0.691   0.349  0.00  0.00    +0.172 C 
ATOM     17  O   UNL     1      -3.303  -1.604   0.937  0.00  0.00    -0.349 OA
ATOM     18  C   UNL     1      -3.202  -1.807   2.341  0.00  0.00    +0.165 C 
ATOM     19  O   UNL     1      -1.856  -2.024   2.762  0.00  0.00    -0.345 OA
ATOM     20  C   UNL     1      -3.792  -0.607   3.087  0.00  0.00    +0.074 C 
ATOM     21  C   UNL     1      -4.024  -3.058   2.710  0.00  0.00    +0.074 C 
ATOM     22  C   UNL     1      -0.905  -2.658   0.236  0.00  0.00    +0.016 C 
ATOM     23  C   UNL     1       2.042  -1.925   0.325  0.00  0.00    +0.014 C 
ENDROOT
BRANCH  10  24
ATOM     24  O   UNL     1       5.342   1.981   0.086  0.00  0.00    -0.363 OA
ATOM     25  H   UNL     1       5.750   1.995   0.963  0.00  0.00    +0.213 HD
ENDBRANCH  10  24
BRANCH  10  26
ATOM     26  C   UNL     1       5.901  -0.352  -0.278  0.00  0.00    +0.220 C 
BRANCH  26  27
ATOM     27  O   UNL     1       6.476  -0.440   1.027  0.00  0.00    -0.390 OA
ATOM     28  H   UNL     1       7.182  -1.096   1.103  0.00  0.00    +0.210 HD
ENDBRANCH  26  27
ENDBRANCH  10  26
TORSDOF 3
