REMARK  Name = ZINC35746329
REMARK  12 active torsions:
REMARK  status: ('A' for Active; 'I' for Inactive)
REMARK    1  A    between atoms: C_1  and  C_2
REMARK    2  A    between atoms: C_2  and  O_3
REMARK    3  A    between atoms: O_3  and  C_4
REMARK    4  A    between atoms: C_4  and  C_5
REMARK    5  A    between atoms: C_5  and  C_7
REMARK    6  A    between atoms: C_5  and  O_34
REMARK    7  A    between atoms: C_7  and  N_8
REMARK    8  A    between atoms: N_8  and  C_9
REMARK    9  A    between atoms: N_8  and  C_15
REMARK   10  A    between atoms: C_9  and  C_10
REMARK   11  A    between atoms: C_15  and  C_16
REMARK   12  A    between atoms: C_22  and  C_27
REMARK                            x       y       z     vdW  Elec       q    Type
REMARK                         _______ _______ _______ _____ _____    ______ ____
ROOT
ATOM      1  C   UNL     1       3.483  -5.852   5.098  0.00  0.00    +0.094 A 
ATOM      2  N   UNL     1       3.865  -7.135   5.323  0.00  0.00    -0.312 N 
ATOM      3  H   UNL     1       3.631  -7.821   4.679  0.00  0.00    +0.170 HD
ATOM      4  C   UNL     1       4.564  -7.473   6.423  0.00  0.00    +0.260 A 
ATOM      5  O   UNL     1       4.899  -8.630   6.611  0.00  0.00    -0.267 OA
ATOM      6  C   UNL     1       4.906  -6.454   7.368  0.00  0.00    +0.080 A 
ATOM      7  C   UNL     1       5.647  -6.567   8.619  0.00  0.00    +0.004 A 
ATOM      8  C   UNL     1       5.853  -5.451   9.358  0.00  0.00    +0.056 A 
ATOM      9  S   UNL     1       5.054  -4.173   8.405  0.00  0.00    -0.076 S 
ATOM     10  C   UNL     1       4.469  -5.158   7.051  0.00  0.00    +0.116 A 
ATOM     11  N   UNL     1       3.786  -4.899   5.939  0.00  0.00    -0.229 NA
ENDROOT
BRANCH   7  12
ATOM     12  C   UNL     1       6.166  -7.880   9.073  0.00  0.00    -0.015 A 
ATOM     13  C   UNL     1       5.325  -8.992   9.104  0.00  0.00    +0.008 A 
ATOM     14  C   UNL     1       5.812 -10.211   9.528  0.00  0.00    +0.002 A 
ATOM     15  C   UNL     1       7.133 -10.332   9.923  0.00  0.00    +0.020 A 
ATOM     16  C   UNL     1       7.973  -9.232   9.894  0.00  0.00    +0.042 A 
ATOM     17  C   UNL     1       7.497  -8.008   9.466  0.00  0.00    +0.028 A 
ATOM     18 CL   UNL     1       9.628  -9.393  10.391  0.00  0.00    -0.084 Cl
ENDBRANCH   7  12
BRANCH   1  19
ATOM     19  C   UNL     1       2.703  -5.519   3.852  0.00  0.00    -0.003 C 
BRANCH  19  20
ATOM     20  N   UNL     1       2.412  -4.080   3.825  0.00  0.00    +0.391 N 
ATOM     21  H   UNL     1       1.954  -3.813   4.684  0.00  0.00    -0.080 HD
BRANCH  20  22
ATOM     22  C   UNL     1       1.534  -3.778   2.687  0.00  0.00    -0.044 C 
BRANCH  22  23
ATOM     23  C   UNL     1       0.157  -4.399   2.928  0.00  0.00    +0.124 C 
BRANCH  23  24
ATOM     24  O   UNL     1       0.259  -5.823   2.867  0.00  0.00    -0.391 OA
ATOM     25  H   UNL     1       0.579  -6.159   2.019  0.00  0.00    +0.210 HD
ENDBRANCH  23  24
BRANCH  23  26
ATOM     26  C   UNL     1      -0.817  -3.911   1.853  0.00  0.00    +0.189 C 
BRANCH  26  27
ATOM     27  O   UNL     1      -2.129  -4.397   2.143  0.00  0.00    -0.378 OA
BRANCH  27  29
ATOM     28  C   UNL     1      -4.479  -4.571   1.604  0.00  0.00    +0.034 C 
ATOM     29  C   UNL     1      -3.121  -3.997   1.195  0.00  0.00    +0.156 C 
ENDBRANCH  27  29
ENDBRANCH  26  27
ENDBRANCH  23  26
ENDBRANCH  22  23
ENDBRANCH  20  22
BRANCH  20  30
ATOM     30  C   UNL     1       3.668  -3.329   3.687  0.00  0.00    -0.002 C 
BRANCH  30  31
ATOM     31  C   UNL     1       3.386  -1.853   3.805  0.00  0.00    +0.089 A 
ATOM     32  C   UNL     1       3.484  -1.121   4.929  0.00  0.00    +0.042 A 
ATOM     33  C   UNL     1       3.132   0.204   4.587  0.00  0.00    +0.041 A 
ATOM     34  C   UNL     1       2.840   0.203   3.274  0.00  0.00    +0.195 A 
ATOM     35  O   UNL     1       3.001  -1.045   2.804  0.00  0.00    -0.470 OA
ENDBRANCH  30  31
ENDBRANCH  20  30
ENDBRANCH  19  20
ENDBRANCH   1  19
TORSDOF 11
