REMARK  Name = ZINC38685644
REMARK  10 active torsions:
REMARK  status: ('A' for Active; 'I' for Inactive)
REMARK    1  A    between atoms: C_1  and  C_2
REMARK    2  A    between atoms: C_6  and  N_9
REMARK    3  A    between atoms: C_7  and  C_8
REMARK    4  A    between atoms: N_12  and  C_15
REMARK    5  A    between atoms: C_15  and  C_16
REMARK    6  A    between atoms: N_18  and  C_19
REMARK    7  A    between atoms: C_21  and  C_33
REMARK    8  A    between atoms: C_27  and  C_29
REMARK    9  A    between atoms: C_29  and  O_31
REMARK   10  A    between atoms: O_31  and  C_32
REMARK                            x       y       z     vdW  Elec       q    Type
REMARK                         _______ _______ _______ _____ _____    ______ ____
ROOT
ATOM      1  C   UNL     1       1.321  -3.873   7.905  0.00  0.00    +0.231 C 
ATOM      2  O   UNL     1       1.399  -4.863   7.209  0.00  0.00    -0.274 OA
ATOM      3  N   UNL     1       1.884  -3.865   9.129  0.00  0.00    -0.285 N 
ATOM      4  H   UNL     1       1.762  -3.101   9.714  0.00  0.00    +0.155 HD
ENDROOT
BRANCH   3   5
ATOM      5  C   UNL     1       2.625  -4.930   9.546  0.00  0.00    +0.053 C 
ATOM      6  C   UNL     1       3.182  -5.121  10.798  0.00  0.00    +0.021 A 
ATOM      7  C   UNL     1       3.173  -4.338  11.978  0.00  0.00    -0.040 A 
ATOM      8  C   UNL     1       3.818  -4.783  13.084  0.00  0.00    +0.004 A 
ATOM      9  C   UNL     1       4.499  -6.003  13.095  0.00  0.00    +0.002 A 
ATOM     10  C   UNL     1       4.550  -6.804  12.003  0.00  0.00    +0.026 A 
ATOM     11  C   UNL     1       3.898  -6.409  10.806  0.00  0.00    +0.045 A 
ATOM     12  N   UNL     1       3.801  -6.996   9.631  0.00  0.00    -0.367 N 
ATOM     13  C   UNL     1       3.003  -6.151   8.737  0.00  0.00    +0.234 C 
ATOM     14  C   UNL     1       2.450  -3.017  12.003  0.00  0.00    +0.044 C 
ATOM     15  H   UNL     1       4.191  -7.853   9.396  0.00  0.00    +0.161 HD
BRANCH  13  16
ATOM     16  C   UNL     1       3.823  -5.747   7.540  0.00  0.00    +0.335 C 
ATOM     17  O   UNL     1       5.006  -5.535   7.661  0.00  0.00    -0.248 OA
BRANCH  16  18
ATOM     18  O   UNL     1       3.240  -5.623   6.337  0.00  0.00    -0.466 OA
ATOM     19  C   UNL     1       4.078  -5.237   5.246  0.00  0.00    +0.280 C 
ENDBRANCH  16  18
ENDBRANCH  13  16
ENDBRANCH   3   5
BRANCH   1  20
ATOM     20  C   UNL     1       0.594  -2.653   7.401  0.00  0.00    +0.180 C 
BRANCH  20  24
ATOM     21  N   UNL     1      -0.794  -2.625   3.441  0.00  0.00    -0.327 N 
ATOM     22  C   UNL     1      -1.794  -2.424   4.500  0.00  0.00    +0.120 C 
ATOM     23  C   UNL     1      -1.069  -1.980   5.776  0.00  0.00    +0.104 C 
ATOM     24  N   UNL     1      -0.011  -2.947   6.096  0.00  0.00    -0.291 NA
ATOM     25  C   UNL     1       1.010  -2.989   5.040  0.00  0.00    +0.104 C 
ATOM     26  C   UNL     1       0.367  -3.479   3.733  0.00  0.00    +0.120 C 
BRANCH  21  32
ATOM     27  C   UNL     1       0.015   1.192   0.453  0.00  0.00    +0.044 C 
ATOM     28  C   UNL     1      -0.564  -0.175   0.712  0.00  0.00    -0.046 A 
ATOM     29  C   UNL     1      -1.247  -0.837  -0.292  0.00  0.00    +0.004 A 
ATOM     30  C   UNL     1      -1.780  -2.091  -0.059  0.00  0.00    +0.002 A 
ATOM     31  C   UNL     1      -1.632  -2.687   1.178  0.00  0.00    +0.023 A 
ATOM     32  C   UNL     1      -0.946  -2.025   2.188  0.00  0.00    +0.033 A 
ATOM     33  C   UNL     1      -0.407  -0.767   1.949  0.00  0.00    -0.027 A 
ATOM     34  C   UNL     1       0.343  -0.048   3.040  0.00  0.00    +0.046 C 
ENDBRANCH  21  32
ENDBRANCH  20  24
ENDBRANCH   1  20
TORSDOF 6
