REMARK  Name = ZINC36138822
REMARK  3 active torsions:
REMARK  status: ('A' for Active; 'I' for Inactive)
REMARK    1  A    between atoms: C_3  and  N_11
REMARK    2  A    between atoms: C_6  and  C_7
REMARK    3  A    between atoms: C_12  and  C_16
REMARK                            x       y       z     vdW  Elec       q    Type
REMARK                         _______ _______ _______ _____ _____    ______ ____
ROOT
ATOM      1  C   UNL     1      -0.017   1.379   0.010  0.00  0.00    +0.014 A 
ATOM      2  C   UNL     1       1.169   2.087   0.002  0.00  0.00    +0.028 A 
ATOM      3  C   UNL     1       2.381   1.409  -0.013  0.00  0.00    +0.069 A 
ATOM      4  C   UNL     1       2.396   0.021  -0.021  0.00  0.00    +0.028 A 
ATOM      5  C   UNL     1       1.207  -0.682  -0.013  0.00  0.00    +0.014 A 
ATOM      6  C   UNL     1       0.002  -0.004   0.002  0.00  0.00    +0.055 A 
ENDROOT
BRANCH   3   7
ATOM      7  N   UNL     1       3.587   2.126  -0.021  0.00  0.00    -0.196 N 
ATOM      8  C   UNL     1       4.748   1.783   0.577  0.00  0.00    +0.171 A 
ATOM      9  N   UNL     1       5.612   2.729   0.317  0.00  0.00    -0.112 NA
ATOM     10  N   UNL     1       5.077   3.646  -0.405  0.00  0.00    -0.023 NA
ATOM     11  N   UNL     1       3.847   3.351  -0.659  0.00  0.00    -0.039 NA
BRANCH   8  12
ATOM     12  C   UNL     1       5.001   0.541   1.393  0.00  0.00    +0.186 C 
ATOM     13 CL   UNL     1       5.582  -0.780   0.312  0.00  0.00    -0.117 Cl
ENDBRANCH   8  12
ENDBRANCH   3   7
BRANCH   6  14
ATOM     14  C   UNL     1      -1.294  -0.774   0.010  0.00  0.00    +0.417 C 
ATOM     15  F   UNL     1      -1.707  -1.005  -1.306  0.00  0.00    -0.166 F 
ATOM     16  F   UNL     1      -1.105  -1.998   0.661  0.00  0.00    -0.166 F 
ATOM     17  F   UNL     1      -2.272  -0.034   0.683  0.00  0.00    -0.166 F 
ENDBRANCH   6  14
TORSDOF 3
