REMARK  Name = ZINC43604401
REMARK  8 active torsions:
REMARK  status: ('A' for Active; 'I' for Inactive)
REMARK    1  A    between atoms: C_1  and  C_2
REMARK    2  A    between atoms: C_6  and  N_9
REMARK    3  A    between atoms: C_7  and  C_8
REMARK    4  A    between atoms: N_12  and  C_15
REMARK    5  A    between atoms: C_15  and  C_16
REMARK    6  A    between atoms: C_27  and  C_34
REMARK    7  A    between atoms: C_29  and  C_33
REMARK    8  A    between atoms: C_30  and  O_32
REMARK                            x       y       z     vdW  Elec       q    Type
REMARK                         _______ _______ _______ _____ _____    ______ ____
ROOT
ATOM      1  C   UNL     1       1.247  -3.567   7.344  0.00  0.00    +0.090 C 
ATOM      2  C   UNL     1       1.092  -3.295   8.873  0.00  0.00    +0.071 C 
ATOM      3  C   UNL     1       1.967  -2.032   8.988  0.00  0.00    +0.187 C 
ATOM      4  C   UNL     1       2.402  -1.713  10.395  0.00  0.00    +0.076 C 
ATOM      5  C   UNL     1       2.918  -2.956  11.093  0.00  0.00    -0.061 C 
ATOM      6  C   UNL     1       4.066  -2.905  11.699  0.00  0.00    -0.027 C 
ATOM      7  C   UNL     1       4.657  -4.081  12.424  0.00  0.00    +0.027 C 
ATOM      8  C   UNL     1       3.514  -4.979  12.909  0.00  0.00    +0.008 C 
ATOM      9  C   UNL     1       2.678  -5.390  11.699  0.00  0.00    -0.001 C 
ATOM     10  C   UNL     1       2.046  -4.179  11.034  0.00  0.00    +0.018 C 
ATOM     11  C   UNL     1       1.728  -4.493   9.580  0.00  0.00    +0.132 C 
ATOM     12  C   UNL     1       0.718  -3.871  11.729  0.00  0.00    +0.018 C 
ATOM     13  C   UNL     1       1.573  -6.347  12.153  0.00  0.00    +0.008 C 
ATOM     14  O   UNL     1       3.055  -2.288   8.095  0.00  0.00    -0.460 OA
ATOM     15  C   UNL     1       2.534  -2.852   6.977  0.00  0.00    +0.309 C 
ATOM     16  O   UNL     1       3.014  -2.794   5.870  0.00  0.00    -0.251 OA
ENDROOT
BRANCH  11  17
ATOM     17  O   UNL     1       0.842  -5.611   9.498  0.00  0.00    -0.391 OA
ATOM     18  H   UNL     1       0.637  -5.885   8.594  0.00  0.00    +0.210 HD
ENDBRANCH  11  17
BRANCH   1  19
ATOM     19  C   UNL     1       0.065  -2.979   6.571  0.00  0.00    -0.064 C 
BRANCH  19  23
ATOM     20  N   UNL     1      -3.407  -5.290   6.235  0.00  0.00    -0.333 N 
ATOM     21  C   UNL     1      -3.578  -3.877   6.608  0.00  0.00    +0.086 C 
ATOM     22  C   UNL     1      -2.304  -3.116   6.227  0.00  0.00    -0.060 C 
ATOM     23  N   UNL     1      -1.142  -3.770   6.844  0.00  0.00    +0.382 N 
ATOM     24  C   UNL     1      -0.976  -5.120   6.292  0.00  0.00    -0.060 C 
ATOM     25  C   UNL     1      -2.187  -5.982   6.681  0.00  0.00    +0.086 C 
ATOM     26  H   UNL     1      -1.283  -3.830   7.842  0.00  0.00    -0.082 HD
BRANCH  20  32
ATOM     27  C   UNL     1      -5.186  -6.624   1.852  0.00  0.00    +0.044 C 
ATOM     28  C   UNL     1      -5.265  -6.621   3.357  0.00  0.00    -0.046 A 
ATOM     29  C   UNL     1      -6.300  -7.279   3.996  0.00  0.00    +0.004 A 
ATOM     30  C   UNL     1      -6.376  -7.278   5.377  0.00  0.00    +0.002 A 
ATOM     31  C   UNL     1      -5.418  -6.619   6.122  0.00  0.00    +0.023 A 
ATOM     32  C   UNL     1      -4.377  -5.957   5.484  0.00  0.00    +0.033 A 
ATOM     33  C   UNL     1      -4.301  -5.965   4.097  0.00  0.00    -0.027 A 
ATOM     34  C   UNL     1      -3.170  -5.252   3.400  0.00  0.00    +0.046 C 
ENDBRANCH  20  32
ENDBRANCH  19  23
ENDBRANCH   1  19
TORSDOF 4
