REMARK  Name = ZINC49487400
REMARK  7 active torsions:
REMARK  status: ('A' for Active; 'I' for Inactive)
REMARK    1  A    between atoms: C_5  and  N_7
REMARK    2  A    between atoms: N_10  and  C_13
REMARK    3  A    between atoms: C_13  and  C_15
REMARK    4  A    between atoms: C_13  and  C_26
REMARK    5  A    between atoms: C_15  and  N_16
REMARK    6  A    between atoms: C_17  and  C_19
REMARK    7  A    between atoms: C_20  and  C_21
REMARK                            x       y       z     vdW  Elec       q    Type
REMARK                         _______ _______ _______ _____ _____    ______ ____
ROOT
ATOM      1  C   UNL     1      -0.647  -5.833  -0.045  0.00  0.00    +0.104 C 
ENDROOT
BRANCH   1   2
ATOM      2  C   UNL     1      -0.451  -6.551  -1.356  0.00  0.00    -0.025 A 
ATOM      3  C   UNL     1       0.821  -6.695  -1.879  0.00  0.00    +0.009 A 
ATOM      4  C   UNL     1       1.006  -7.353  -3.081  0.00  0.00    +0.050 A 
ATOM      5  C   UNL     1      -0.083  -7.868  -3.765  0.00  0.00    +0.166 A 
ATOM      6  C   UNL     1      -1.364  -7.722  -3.238  0.00  0.00    +0.167 A 
ATOM      7  C   UNL     1      -1.541  -7.067  -2.030  0.00  0.00    +0.054 A 
ATOM      8  O   UNL     1      -2.255  -8.309  -4.089  0.00  0.00    -0.453 OA
ATOM      9  C   UNL     1      -1.554  -8.456  -5.338  0.00  0.00    +0.466 C 
ATOM     10  O   UNL     1      -0.172  -8.546  -4.946  0.00  0.00    -0.453 OA
ENDBRANCH   1   2
BRANCH   1  14
ATOM     11  N   UNL     1       1.058  -2.006   0.200  0.00  0.00    -0.325 N 
ATOM     12  C   UNL     1       1.174  -2.867   1.387  0.00  0.00    +0.120 C 
ATOM     13  C   UNL     1       0.111  -3.966   1.297  0.00  0.00    +0.104 C 
ATOM     14  N   UNL     1       0.239  -4.663   0.010  0.00  0.00    -0.291 NA
ATOM     15  C   UNL     1      -0.017  -3.755  -1.115  0.00  0.00    +0.104 C 
ATOM     16  C   UNL     1       1.035  -2.647  -1.124  0.00  0.00    +0.120 C 
BRANCH  11  21
ATOM     17  C   UNL     1      -0.362   1.364   0.576  0.00  0.00    +0.002 A 
ATOM     18  C   UNL     1       0.786   2.134   0.576  0.00  0.00    +0.003 A 
ATOM     19  C   UNL     1       2.026   1.534   0.452  0.00  0.00    +0.040 A 
ATOM     20  C   UNL     1       2.120   0.160   0.327  0.00  0.00    +0.144 A 
ATOM     21  C   UNL     1       0.967  -0.617   0.326  0.00  0.00    +0.065 A 
ATOM     22  C   UNL     1      -0.275  -0.009   0.451  0.00  0.00    +0.026 A 
ATOM     23  F   UNL     1       3.331  -0.426   0.206  0.00  0.00    -0.204 F 
ENDBRANCH  11  21
ENDBRANCH   1  14
BRANCH   1  24
ATOM     24  C   UNL     1      -0.314  -6.781   1.109  0.00  0.00    +0.128 C 
BRANCH  24  25
ATOM     25  N   UNL     1      -1.256  -7.903   1.107  0.00  0.00    -0.310 N 
ATOM     26  C   UNL     1      -1.208  -8.824   2.090  0.00  0.00    +0.237 C 
ATOM     27  O   UNL     1      -0.382  -8.723   2.979  0.00  0.00    -0.271 OA
ATOM     28  H   UNL     1      -1.913  -7.983   0.399  0.00  0.00    +0.149 HD
BRANCH  26  29
ATOM     29  C   UNL     1      -2.118  -9.909   2.088  0.00  0.00    +0.071 C 
ATOM     30  C   UNL     1      -2.070 -10.835   3.077  0.00  0.00    +0.051 C 
BRANCH  30  31
ATOM     31  C   UNL     1      -2.980 -11.920   3.075  0.00  0.00    +0.128 A 
ATOM     32  C   UNL     1      -3.047 -12.927   4.016  0.00  0.00    +0.049 A 
ATOM     33  C   UNL     1      -4.089 -13.777   3.618  0.00  0.00    +0.042 A 
ATOM     34  C   UNL     1      -4.605 -13.270   2.476  0.00  0.00    +0.195 A 
ATOM     35  O   UNL     1      -3.941 -12.151   2.156  0.00  0.00    -0.464 OA
ENDBRANCH  30  31
ENDBRANCH  26  29
ENDBRANCH  24  25
ENDBRANCH   1  24
TORSDOF 7
