REMARK  Name = ZINC32961889
REMARK  7 active torsions:
REMARK  status: ('A' for Active; 'I' for Inactive)
REMARK    1  A    between atoms: C_1  and  C_2
REMARK    2  A    between atoms: C_2  and  C_3
REMARK    3  A    between atoms: C_6  and  S_9
REMARK    4  A    between atoms: S_9  and  N_12
REMARK    5  A    between atoms: N_12  and  C_13
REMARK    6  A    between atoms: C_15  and  C_31
REMARK    7  A    between atoms: C_18  and  N_19
REMARK                            x       y       z     vdW  Elec       q    Type
REMARK                         _______ _______ _______ _____ _____    ______ ____
ROOT
ATOM      1  C   UNL     1      -0.412  -0.614   1.103  0.00  0.00    +0.070 A 
ATOM      2  C   UNL     1      -0.282  -1.988   1.039  0.00  0.00    +0.041 A 
ATOM      3  C   UNL     1       0.490  -2.568   0.028  0.00  0.00    +0.065 A 
ATOM      4  C   UNL     1       1.123  -1.756  -0.918  0.00  0.00    +0.017 A 
ATOM      5  C   UNL     1       0.987  -0.387  -0.853  0.00  0.00    +0.026 A 
ATOM      6  C   UNL     1       0.220   0.192   0.152  0.00  0.00    +0.052 A 
ENDROOT
BRANCH   6   7
ATOM      7  N   UNL     1       0.085   1.577   0.213  0.00  0.00    -0.325 N 
ATOM      8  C   UNL     1      -0.608   2.092  -0.976  0.00  0.00    +0.124 C 
ATOM      9  C   UNL     1      -0.806   3.603  -0.833  0.00  0.00    +0.125 C 
ATOM     10  N   UNL     1       0.502   4.252  -0.667  0.00  0.00    -0.314 N 
ATOM     11  C   UNL     1       1.195   3.737   0.522  0.00  0.00    +0.125 C 
ATOM     12  C   UNL     1       1.393   2.226   0.379  0.00  0.00    +0.124 C 
ATOM     13  C   UNL     1       0.367   5.634  -0.606  0.00  0.00    +0.099 A 
ATOM     14  C   UNL     1      -0.266   6.312  -1.643  0.00  0.00    +0.042 A 
ATOM     15  C   UNL     1      -0.392   7.688  -1.569  0.00  0.00    +0.005 A 
ATOM     16  C   UNL     1       0.120   8.341  -0.456  0.00  0.00    +0.018 A 
ATOM     17  C   UNL     1       0.736   7.606   0.537  0.00  0.00    +0.084 A 
ATOM     18  N   UNL     1       0.838   6.293   0.442  0.00  0.00    -0.350 N 
ATOM     19  H   UNL     1       1.328   5.747   1.261  0.00  0.00    +0.166 HD
ENDBRANCH   6   7
BRANCH   3  20
ATOM     20  C   UNL     1       0.635  -4.033  -0.042  0.00  0.00    +0.387 C 
ATOM     21  O   UNL     1       0.085  -4.738   0.781  0.00  0.00    -0.241 OA
ATOM     22  O   UNL     1       1.380  -4.591  -1.017  0.00  0.00    -0.241 OA
ENDBRANCH   3  20
BRANCH   1  23
ATOM     23  N   UNL     1      -1.179  -0.029   2.118  0.00  0.00    -0.214 N 
ATOM     24  H   UNL     1      -1.767   0.877   1.910  0.00  0.00    +0.174 HD
BRANCH  23  25
ATOM     25  S   UNL     1      -1.202  -0.701   3.631  0.00  0.00    +0.072 S 
ATOM     26  O   UNL     1      -1.950   0.182   4.456  0.00  0.00    -0.150 OA
ATOM     27  O   UNL     1      -1.554  -2.068   3.463  0.00  0.00    -0.150 OA
BRANCH  25  31
ATOM     28  C   UNL     1       3.048  -0.640   5.188  0.00  0.00    -0.048 A 
ATOM     29  C   UNL     1       2.208   0.432   5.428  0.00  0.00    +0.005 A 
ATOM     30  C   UNL     1       0.910   0.413   4.952  0.00  0.00    +0.029 A 
ATOM     31  C   UNL     1       0.452  -0.677   4.237  0.00  0.00    +0.109 A 
ATOM     32  C   UNL     1       1.290  -1.751   4.002  0.00  0.00    +0.029 A 
ATOM     33  C   UNL     1       2.589  -1.731   4.474  0.00  0.00    +0.005 A 
BRANCH  28  35
ATOM     34  C   UNL     1       4.502  -1.230   7.107  0.00  0.00    +0.009 C 
ATOM     35  C   UNL     1       4.463  -0.619   5.705  0.00  0.00    +0.032 C 
ENDBRANCH  28  35
ENDBRANCH  25  31
ENDBRANCH  23  25
ENDBRANCH   1  23
TORSDOF 6
