REMARK  Name = ZINC27016236
REMARK  10 active torsions:
REMARK  status: ('A' for Active; 'I' for Inactive)
REMARK    1  A    between atoms: C_1  and  C_2
REMARK    2  A    between atoms: C_2  and  O_3
REMARK    3  A    between atoms: O_3  and  C_4
REMARK    4  A    between atoms: C_9  and  N_10
REMARK    5  A    between atoms: C_11  and  C_13
REMARK    6  A    between atoms: C_13  and  C_14
REMARK    7  A    between atoms: N_25  and  S_26
REMARK    8  A    between atoms: S_26  and  C_29
REMARK    9  A    between atoms: C_32  and  C_35
REMARK   10  A    between atoms: C_35  and  C_37
REMARK                            x       y       z     vdW  Elec       q    Type
REMARK                         _______ _______ _______ _____ _____    ______ ____
ROOT
ATOM      1  C   UNL     1       1.381   2.106   0.175  0.00  0.00    +0.192 C 
ATOM      2  C   UNL     1       0.989   3.518   0.528  0.00  0.00    +0.240 C 
ATOM      3  O   UNL     1       0.901   3.841   1.694  0.00  0.00    -0.273 OA
ATOM      4  N   UNL     1       0.734   4.423  -0.435  0.00  0.00    -0.282 N 
ATOM      5  C   UNL     1       0.876   4.088  -1.787  0.00  0.00    +0.056 A 
ATOM      6  C   UNL     1       0.351   4.902  -2.778  0.00  0.00    +0.025 A 
ATOM      7  C   UNL     1       0.510   4.557  -4.107  0.00  0.00    +0.002 A 
ATOM      8  C   UNL     1       1.191   3.405  -4.454  0.00  0.00    +0.002 A 
ATOM      9  C   UNL     1       1.717   2.585  -3.471  0.00  0.00    +0.026 A 
ATOM     10  C   UNL     1       1.560   2.923  -2.139  0.00  0.00    +0.073 A 
ATOM     11  N   UNL     1       2.077   2.111  -1.120  0.00  0.00    -0.189 N 
ATOM     12  H   UNL     1       0.412   5.439  -0.163  0.00  0.00    +0.155 HD
ENDROOT
BRANCH  11  13
ATOM     13  S   UNL     1       3.429   1.188  -1.367  0.00  0.00    +0.075 S 
ATOM     14  O   UNL     1       4.180   1.832  -2.388  0.00  0.00    -0.150 OA
ATOM     15  O   UNL     1       3.971   0.910  -0.083  0.00  0.00    -0.150 OA
BRANCH  13  16
ATOM     16  C   UNL     1       2.893  -0.353  -2.032  0.00  0.00    +0.109 A 
ATOM     17  C   UNL     1       2.443  -1.350  -1.184  0.00  0.00    +0.029 A 
ATOM     18  C   UNL     1       2.018  -2.557  -1.697  0.00  0.00    +0.013 A 
ATOM     19  C   UNL     1       2.053  -2.777  -3.078  0.00  0.00    +0.017 A 
ATOM     20  C   UNL     1       2.514  -1.767  -3.928  0.00  0.00    +0.013 A 
ATOM     21  C   UNL     1       2.930  -0.563  -3.400  0.00  0.00    +0.029 A 
BRANCH  19  22
ATOM     22  C   UNL     1       1.607  -4.065  -3.633  0.00  0.00    +0.160 C 
ATOM     23  O   UNL     1       1.734  -4.291  -4.817  0.00  0.00    -0.292 OA
ATOM     24  C   UNL     1       0.992  -5.103  -2.730  0.00  0.00    +0.091 C 
ENDBRANCH  19  22
ENDBRANCH  13  16
ENDBRANCH  11  13
BRANCH   1  25
ATOM     25  C   UNL     1       0.126   1.235   0.078  0.00  0.00    +0.129 C 
BRANCH  25  27
ATOM     26  N   UNL     1      -1.680   0.473   1.587  0.00  0.00    -0.283 N 
ATOM     27  C   UNL     1      -0.485   1.081   1.447  0.00  0.00    +0.220 C 
ATOM     28  O   UNL     1       0.098   1.504   2.423  0.00  0.00    -0.275 OA
ATOM     29  H   UNL     1      -2.176   0.028   0.712  0.00  0.00    +0.155 HD
BRANCH  26  35
ATOM     30  C   UNL     1      -3.608  -0.025   2.963  0.00  0.00    +0.142 A 
ATOM     31  C   UNL     1      -4.204  -0.093   4.213  0.00  0.00    +0.047 A 
ATOM     32  C   UNL     1      -3.492   0.277   5.339  0.00  0.00    +0.004 A 
ATOM     33  C   UNL     1      -2.184   0.711   5.224  0.00  0.00    +0.002 A 
ATOM     34  C   UNL     1      -1.581   0.776   3.982  0.00  0.00    +0.027 A 
ATOM     35  C   UNL     1      -2.289   0.407   2.847  0.00  0.00    +0.076 A 
BRANCH  30  36
ATOM     36  O   UNL     1      -4.308  -0.384   1.854  0.00  0.00    -0.490 OA
BRANCH  36  38
ATOM     37  C   UNL     1      -6.277  -1.175   0.698  0.00  0.00    +0.048 C 
ATOM     38  C   UNL     1      -5.656  -0.816   2.049  0.00  0.00    +0.226 C 
ENDBRANCH  36  38
ENDBRANCH  30  36
ENDBRANCH  26  35
ENDBRANCH  25  27
ENDBRANCH   1  25
TORSDOF 8
