REMARK  Name = ZINC16192516
REMARK  9 active torsions:
REMARK  status: ('A' for Active; 'I' for Inactive)
REMARK    1  A    between atoms: C_1  and  C_2
REMARK    2  A    between atoms: N_6  and  C_14
REMARK    3  A    between atoms: C_14  and  C_15
REMARK    4  A    between atoms: C_15  and  C_16
REMARK    5  A    between atoms: C_16  and  O_18
REMARK    6  A    between atoms: O_18  and  C_19
REMARK    7  A    between atoms: C_19  and  C_21
REMARK    8  A    between atoms: C_19  and  C_22
REMARK    9  A    between atoms: N_24  and  C_25
REMARK                            x       y       z     vdW  Elec       q    Type
REMARK                         _______ _______ _______ _____ _____    ______ ____
ROOT
ATOM      1  C   UNL     1       3.891   9.837  -0.616  0.00  0.00    +0.309 C 
ATOM      2  O   UNL     1       4.830   9.091  -0.471  0.00  0.00    -0.251 OA
ENDROOT
BRANCH   1   3
ATOM      3  C   UNL     1       3.246  10.479   0.586  0.00  0.00    +0.140 C 
BRANCH   3   4
ATOM      4  C   UNL     1       3.966  10.021   1.856  0.00  0.00    +0.125 C 
BRANCH   4   9
ATOM      5  C   UNL     1       3.877  11.953   5.957  0.00  0.00    +0.062 C 
ATOM      6  C   UNL     1       3.143  12.446   4.708  0.00  0.00    +0.256 C 
ATOM      7  C   UNL     1       3.776  11.838   3.482  0.00  0.00    +0.260 C 
ATOM      8  O   UNL     1       4.674  12.418   2.909  0.00  0.00    -0.271 OA
ATOM      9  N   UNL     1       3.339  10.645   3.024  0.00  0.00    -0.265 N 
ATOM     10  C   UNL     1       2.276  10.012   3.684  0.00  0.00    +0.078 A 
ATOM     11  C   UNL     1       2.003   8.672   3.464  0.00  0.00    +0.027 A 
ATOM     12  C   UNL     1       0.949   8.068   4.124  0.00  0.00    +0.002 A 
ATOM     13  C   UNL     1       0.168   8.797   5.002  0.00  0.00    +0.004 A 
ATOM     14  C   UNL     1       0.432  10.137   5.223  0.00  0.00    +0.047 A 
ATOM     15  C   UNL     1       1.489  10.747   4.570  0.00  0.00    +0.143 A 
ATOM     16  O   UNL     1       1.768  12.061   4.780  0.00  0.00    -0.478 OA
ENDBRANCH   4   9
ENDBRANCH   3   4
ENDBRANCH   1   3
BRANCH   1  17
ATOM     17  O   UNL     1       3.422  10.095  -1.847  0.00  0.00    -0.452 OA
BRANCH  17  18
ATOM     18  C   UNL     1       4.093   9.442  -2.957  0.00  0.00    +0.259 C 
ATOM     19  C   UNL     1       3.423   8.095  -3.237  0.00  0.00    +0.062 C 
BRANCH  18  20
ATOM     20  C   UNL     1       3.999  10.313  -4.183  0.00  0.00    +0.258 C 
ATOM     21  O   UNL     1       3.424  11.380  -4.126  0.00  0.00    -0.271 OA
ATOM     22  N   UNL     1       4.554   9.908  -5.342  0.00  0.00    -0.280 N 
ATOM     23  H   UNL     1       5.076   9.091  -5.370  0.00  0.00    +0.155 HD
BRANCH  22  24
ATOM     24  C   UNL     1       4.376  10.666  -6.507  0.00  0.00    +0.071 A 
ATOM     25  C   UNL     1       3.282  10.431  -7.330  0.00  0.00    +0.065 A 
ATOM     26  C   UNL     1       3.106  11.184  -8.476  0.00  0.00    +0.042 A 
ATOM     27  C   UNL     1       4.024  12.164  -8.809  0.00  0.00    +0.044 A 
ATOM     28  C   UNL     1       5.118  12.396  -7.994  0.00  0.00    +0.042 A 
ATOM     29  C   UNL     1       5.297  11.650  -6.844  0.00  0.00    +0.065 A 
ATOM     30 CL   UNL     1       6.669  11.943  -5.822  0.00  0.00    -0.082 Cl
ATOM     31 CL   UNL     1       3.804  13.103 -10.252  0.00  0.00    -0.083 Cl
ATOM     32 CL   UNL     1       2.133   9.197  -6.917  0.00  0.00    -0.082 Cl
ENDBRANCH  22  24
ENDBRANCH  18  20
ENDBRANCH  17  18
ENDBRANCH   1  17
TORSDOF 7
