REMARK  Name = ZINC06660208
REMARK  10 active torsions:
REMARK  status: ('A' for Active; 'I' for Inactive)
REMARK    1  A    between atoms: C_1  and  C_2
REMARK    2  A    between atoms: C_3  and  C_29
REMARK    3  A    between atoms: C_11  and  O_13
REMARK    4  A    between atoms: O_13  and  C_14
REMARK    5  A    between atoms: C_14  and  C_15
REMARK    6  A    between atoms: N_17  and  C_18
REMARK    7  A    between atoms: C_20  and  C_26
REMARK    8  A    between atoms: C_20  and  C_27
REMARK    9  A    between atoms: C_22  and  C_24
REMARK   10  A    between atoms: C_22  and  C_25
REMARK                            x       y       z     vdW  Elec       q    Type
REMARK                         _______ _______ _______ _____ _____    ______ ____
ROOT
ATOM      1  C   UNL     1       0.198  -4.358   5.313  0.00  0.00    +0.324 C 
ENDROOT
BRANCH   1   2
ATOM      2  C   UNL     1       0.149  -5.079   6.636  0.00  0.00    +0.251 C 
ATOM      3  O   UNL     1       0.100  -4.447   7.670  0.00  0.00    -0.272 OA
ATOM      4  N   UNL     1       0.159  -6.427   6.670  0.00  0.00    -0.310 N 
ATOM      5  H   UNL     1       0.198  -6.932   5.843  0.00  0.00    +0.149 HD
BRANCH   4   6
ATOM      6  C   UNL     1       0.111  -7.129   7.958  0.00  0.00    +0.070 C 
ATOM      7  C   UNL     1      -1.349  -7.310   8.378  0.00  0.00    +0.009 C 
ATOM      8  C   UNL     1      -1.415  -8.051   9.713  0.00  0.00    -0.072 C 
ATOM      9  N   UNL     1      -0.685  -9.309   9.678  0.00  0.00    +0.386 N 
ATOM     10  C   UNL     1       0.651  -9.299   9.105  0.00  0.00    -0.072 C 
ATOM     11  C   UNL     1       0.741  -8.513   7.801  0.00  0.00    +0.009 C 
ATOM     12  C   UNL     1       1.691  -8.778  10.101  0.00  0.00    -0.010 C 
ATOM     13  C   UNL     1       1.030 -10.765   8.783  0.00  0.00    -0.010 C 
ATOM     14  C   UNL     1      -2.902  -8.382   9.979  0.00  0.00    -0.010 C 
ATOM     15  C   UNL     1      -0.943  -7.142  10.846  0.00  0.00    -0.010 C 
ATOM     16  H   UNL     1      -0.623  -9.671  10.633  0.00  0.00    -0.084 HD
ATOM     17  H   UNL     1      -1.249  -9.994   9.168  0.00  0.00    -0.084 HD
ENDBRANCH   4   6
ENDBRANCH   1   2
BRANCH   1  18
ATOM     18  O   UNL     1       0.176  -2.947   5.539  0.00  0.00    -0.481 OA
BRANCH  18  29
ATOM     19  C   UNL     1       0.320   1.854   1.153  0.00  0.00    +0.045 C 
ATOM     20  C   UNL     1       0.337   0.352   1.031  0.00  0.00    -0.030 A 
ATOM     21  C   UNL     1       0.399  -0.248  -0.186  0.00  0.00    +0.037 A 
ATOM     22  C   UNL     1       0.415  -1.655  -0.274  0.00  0.00    +0.340 A 
ATOM     23  O   UNL     1       0.470  -2.180  -1.372  0.00  0.00    -0.245 OA
ATOM     24  O   UNL     1       0.370  -2.431   0.820  0.00  0.00    -0.422 OA
ATOM     25  C   UNL     1       0.308  -1.898   2.059  0.00  0.00    +0.143 A 
ATOM     26  C   UNL     1       0.294  -0.500   2.221  0.00  0.00    +0.022 A 
ATOM     27  C   UNL     1       0.235   0.056   3.504  0.00  0.00    +0.035 A 
ATOM     28  C   UNL     1       0.196  -0.762   4.597  0.00  0.00    +0.083 A 
ATOM     29  C   UNL     1       0.214  -2.147   4.443  0.00  0.00    +0.143 A 
ATOM     30  C   UNL     1       0.262  -2.714   3.180  0.00  0.00    +0.094 A 
ATOM     31 CL   UNL     1       0.122  -0.072   6.188  0.00  0.00    -0.080 Cl
ATOM     32  C   UNL     1       0.451   0.588  -1.439  0.00  0.00    +0.051 C 
ENDBRANCH  18  29
ENDBRANCH   1  18
TORSDOF 4
