REMARK  Name = ZINC12399847
REMARK  11 active torsions:
REMARK  status: ('A' for Active; 'I' for Inactive)
REMARK    1  A    between atoms: C_1  and  C_2
REMARK    2  A    between atoms: C_2  and  O_3
REMARK    3  A    between atoms: O_3  and  C_4
REMARK    4  A    between atoms: C_4  and  C_6
REMARK    5  A    between atoms: C_7  and  C_35
REMARK    6  A    between atoms: C_11  and  C_15
REMARK    7  A    between atoms: C_15  and  O_16
REMARK    8  A    between atoms: O_16  and  C_17
REMARK    9  A    between atoms: C_17  and  C_19
REMARK   10  A    between atoms: C_19  and  N_20
REMARK   11  A    between atoms: C_28  and  C_30
REMARK                            x       y       z     vdW  Elec       q    Type
REMARK                         _______ _______ _______ _____ _____    ______ ____
ROOT
ATOM      1  C   UNL     1      -2.788   0.446   7.226  0.00  0.00    +0.308 C 
ENDROOT
BRANCH   1   7
ATOM      2  C   UNL     1      -6.040   1.233  12.578  0.00  0.00    +0.102 A 
ATOM      3  C   UNL     1      -5.752   0.038  11.991  0.00  0.00    -0.017 A 
ATOM      4  C   UNL     1      -5.018   0.006  10.798  0.00  0.00    +0.051 A 
ATOM      5  C   UNL     1      -4.608  -1.117  10.019  0.00  0.00    +0.128 A 
ATOM      6  N   UNL     1      -3.913  -0.915   8.912  0.00  0.00    -0.214 NA
ATOM      7  C   UNL     1      -3.582   0.294   8.498  0.00  0.00    +0.170 A 
ATOM      8  N   UNL     1      -3.926   1.373   9.175  0.00  0.00    -0.221 NA
ATOM      9  C   UNL     1      -4.624   1.268  10.287  0.00  0.00    +0.115 A 
ATOM     10  S   UNL     1      -5.284   2.412  11.472  0.00  0.00    -0.062 S 
ATOM     11  N   UNL     1      -4.934  -2.398  10.416  0.00  0.00    -0.343 N 
ATOM     12  C   UNL     1      -6.221  -1.247  12.623  0.00  0.00    +0.046 C 
ATOM     13  H   UNL     1      -5.013  -3.105   9.756  0.00  0.00    +0.144 HD
ATOM     14  H   UNL     1      -5.082  -2.592  11.354  0.00  0.00    +0.144 HD
BRANCH   2  15
ATOM     15  C   UNL     1      -6.787   1.487  13.814  0.00  0.00    +0.346 C 
ATOM     16  O   UNL     1      -7.152   0.557  14.506  0.00  0.00    -0.244 OA
BRANCH  15  17
ATOM     17  O   UNL     1      -7.069   2.753  14.182  0.00  0.00    -0.461 OA
BRANCH  17  19
ATOM     18  C   UNL     1      -8.035   4.423  15.669  0.00  0.00    +0.048 C 
ATOM     19  C   UNL     1      -7.812   2.930  15.418  0.00  0.00    +0.229 C 
ENDBRANCH  17  19
ENDBRANCH  15  17
ENDBRANCH   2  15
ENDBRANCH   1   7
BRANCH   1  20
ATOM     20  O   UNL     1      -3.696   0.567   6.100  0.00  0.00    -0.456 OA
BRANCH  20  21
ATOM     21  C   UNL     1      -3.144   0.710   4.884  0.00  0.00    +0.326 C 
ATOM     22  O   UNL     1      -1.942   0.733   4.766  0.00  0.00    -0.249 OA
BRANCH  21  23
ATOM     23  C   UNL     1      -4.024   0.841   3.668  0.00  0.00    +0.238 C 
BRANCH  23  24
ATOM     24  N   UNL     1      -3.188   0.984   2.474  0.00  0.00    -0.213 N 
ATOM     25  C   UNL     1      -2.764   2.167   1.982  0.00  0.00    +0.247 C 
ATOM     26  O   UNL     1      -2.994   3.271   2.426  0.00  0.00    -0.273 OA
ATOM     27  C   UNL     1      -1.943   1.825   0.760  0.00  0.00    +0.115 C 
ATOM     28  C   UNL     1      -2.564   2.442  -0.489  0.00  0.00    +0.035 C 
ATOM     29  C   UNL     1      -1.736   2.053  -1.716  0.00  0.00    +0.003 C 
ATOM     30  C   UNL     1      -0.300   2.551  -1.540  0.00  0.00    +0.000 C 
ATOM     31  C   UNL     1       0.316   1.908  -0.296  0.00  0.00    +0.006 C 
ATOM     32  C   UNL     1      -0.504   2.296   0.937  0.00  0.00    +0.018 C 
ATOM     33  C   UNL     1       0.100   1.637   2.179  0.00  0.00    +0.010 C 
ATOM     34  N   UNL     1      -1.999   0.359   0.691  0.00  0.00    -0.285 N 
ATOM     35  C   UNL     1      -2.750  -0.043   1.735  0.00  0.00    +0.310 C 
ATOM     36  O   UNL     1      -3.001  -1.207   1.979  0.00  0.00    -0.252 OA
ATOM     37  H   UNL     1      -1.578  -0.208   0.026  0.00  0.00    +0.151 HD
ENDBRANCH  23  24
ENDBRANCH  21  23
ENDBRANCH  20  21
ENDBRANCH   1  20
TORSDOF 8
