REMARK  Name = ZINC12325225
REMARK  7 active torsions:
REMARK  status: ('A' for Active; 'I' for Inactive)
REMARK    1  A    between atoms: C_1  and  C_2
REMARK    2  A    between atoms: C_4  and  C_25
REMARK    3  A    between atoms: C_7  and  C_17
REMARK    4  A    between atoms: N_10  and  C_16
REMARK    5  A    between atoms: C_17  and  N_47
REMARK    6  A    between atoms: C_18  and  C_19
REMARK    7  A    between atoms: C_18  and  N_47
REMARK                            x       y       z     vdW  Elec       q    Type
REMARK                         _______ _______ _______ _____ _____    ______ ____
ROOT
ATOM      1  C   UNL     1      -1.335   2.105   0.020  0.00  0.00    +0.044 C 
ATOM      2  C   UNL     1      -0.017   1.376   0.010  0.00  0.00    -0.048 A 
ATOM      3  C   UNL     1       1.168   2.096   0.002  0.00  0.00    +0.007 A 
ATOM      4  C   UNL     1       2.380   1.442  -0.013  0.00  0.00    -0.041 A 
ATOM      5  C   UNL     1       2.415   0.044  -0.021  0.00  0.00    +0.002 A 
ATOM      6  C   UNL     1       3.699  -0.667  -0.034  0.00  0.00    +0.015 A 
ATOM      7  C   UNL     1       3.707  -2.016  -0.043  0.00  0.00    -0.019 A 
ATOM      8  C   UNL     1       2.441  -2.753  -0.037  0.00  0.00    +0.164 A 
ATOM      9  N   UNL     1       2.188  -4.040  -0.042  0.00  0.00    -0.149 NA
ATOM     10  N   UNL     1       0.797  -4.207  -0.030  0.00  0.00    -0.215 N 
ATOM     11  C   UNL     1       0.239  -2.981  -0.018  0.00  0.00    +0.351 A 
ATOM     12  O   UNL     1      -0.954  -2.735  -0.004  0.00  0.00    -0.244 OA
ATOM     13  N   UNL     1       1.237  -2.073  -0.021  0.00  0.00    -0.243 N 
ATOM     14  C   UNL     1       1.214  -0.682  -0.013  0.00  0.00    +0.061 A 
ATOM     15  C   UNL     1       0.002  -0.004   0.002  0.00  0.00    +0.030 A 
ATOM     16  C   UNL     1       0.079  -5.485  -0.031  0.00  0.00    +0.178 C 
ATOM     17  C   UNL     1       3.664   2.231  -0.021  0.00  0.00    +0.044 C 
ENDROOT
BRANCH   7  18
ATOM     18  C   UNL     1       5.015  -2.763  -0.060  0.00  0.00    -0.043 C 
BRANCH  18  19
ATOM     19  N   UNL     1       5.303  -3.204  -1.439  0.00  0.00    +0.384 N 
ATOM     20  H   UNL     1       5.362  -2.382  -2.051  0.00  0.00    -0.085 HD
ATOM     21  H   UNL     1       4.546  -3.818  -1.763  0.00  0.00    -0.085 HD
BRANCH  19  22
ATOM     22  C   UNL     1       6.580  -3.939  -1.486  0.00  0.00    -0.046 C 
BRANCH  22  23
ATOM     23  C   UNL     1       6.847  -4.376  -2.903  0.00  0.00    -0.064 A 
ATOM     24  C   UNL     1       6.391  -5.604  -3.345  0.00  0.00    +0.002 A 
ATOM     25  C   UNL     1       6.632  -6.003  -4.647  0.00  0.00    +0.000 A 
ATOM     26  C   UNL     1       7.337  -5.177  -5.503  0.00  0.00    +0.000 A 
ATOM     27  C   UNL     1       7.797  -3.952  -5.059  0.00  0.00    +0.000 A 
ATOM     28  C   UNL     1       7.552  -3.551  -3.759  0.00  0.00    +0.002 A 
ENDBRANCH  22  23
ENDBRANCH  19  22
ENDBRANCH  18  19
ENDBRANCH   7  18
TORSDOF 4
