REMARK  Name = ZINC35399240
REMARK  4 active torsions:
REMARK  status: ('A' for Active; 'I' for Inactive)
REMARK    1  A    between atoms: C_1  and  C_2
REMARK    2  A    between atoms: C_5  and  S_9
REMARK    3  A    between atoms: C_7  and  C_8
REMARK    4  A    between atoms: S_9  and  N_12
REMARK                            x       y       z     vdW  Elec       q    Type
REMARK                         _______ _______ _______ _____ _____    ______ ____
ROOT
ATOM      1  N   UNL     1       1.651  -4.999  -0.034  0.00  0.00    -0.176 NA
ATOM      2  C   UNL     1       2.363  -5.199  -1.304  0.00  0.00    +0.112 C 
ATOM      3  C   UNL     1       2.981  -6.601  -1.308  0.00  0.00    +0.049 C 
ATOM      4  C   UNL     1       3.848  -6.777  -0.061  0.00  0.00    +0.075 C 
ATOM      5  C   UNL     1       2.990  -6.627   1.195  0.00  0.00    +0.049 C 
ATOM      6  C   UNL     1       2.376  -5.218   1.225  0.00  0.00    +0.112 C 
ATOM      7  C   UNL     1       4.494  -8.139  -0.076  0.00  0.00    +0.047 A 
ATOM      8  C   UNL     1       4.011  -9.317   0.333  0.00  0.00    +0.025 A 
ATOM      9  C   UNL     1       5.002 -10.290   0.081  0.00  0.00    +0.020 A 
ATOM     10  C   UNL     1       6.063  -9.659  -0.471  0.00  0.00    +0.092 A 
ATOM     11  N   UNL     1       5.769  -8.339  -0.558  0.00  0.00    -0.316 N 
ATOM     12  C   UNL     1       6.552  -7.269  -1.018  0.00  0.00    +0.067 A 
ATOM     13  C   UNL     1       7.744  -7.475  -1.684  0.00  0.00    +0.028 A 
ATOM     14  C   UNL     1       8.473  -6.390  -2.140  0.00  0.00    +0.002 A 
ATOM     15  C   UNL     1       8.008  -5.104  -1.930  0.00  0.00    +0.002 A 
ATOM     16  C   UNL     1       6.820  -4.891  -1.256  0.00  0.00    +0.025 A 
ATOM     17  C   UNL     1       6.088  -5.970  -0.786  0.00  0.00    +0.052 A 
ATOM     18  N   UNL     1       4.913  -5.764  -0.053  0.00  0.00    -0.331 N 
ATOM     19  H   UNL     1       4.801  -4.950   0.462  0.00  0.00    +0.147 HD
ENDROOT
BRANCH   1  20
ATOM     20  S   UNL     1       0.063  -4.530  -0.023  0.00  0.00    +0.061 S 
ATOM     21  O   UNL     1      -0.476  -4.950   1.223  0.00  0.00    -0.153 OA
ATOM     22  O   UNL     1      -0.490  -4.937  -1.267  0.00  0.00    -0.153 OA
BRANCH  20  27
ATOM     23  C   UNL     1      -0.018   1.503   0.010  0.00  0.00    +0.044 C 
ATOM     24  C   UNL     1       0.002  -0.004   0.002  0.00  0.00    -0.047 A 
ATOM     25  C   UNL     1       0.006  -0.689  -1.199  0.00  0.00    +0.005 A 
ATOM     26  C   UNL     1       0.025  -2.071  -1.207  0.00  0.00    +0.029 A 
ATOM     27  C   UNL     1       0.040  -2.768  -0.013  0.00  0.00    +0.106 A 
ATOM     28  C   UNL     1       0.037  -2.084   1.188  0.00  0.00    +0.032 A 
ATOM     29  C   UNL     1       0.023  -0.702   1.195  0.00  0.00    -0.046 A 
ATOM     30  C   UNL     1       0.025   0.045   2.504  0.00  0.00    +0.044 C 
ENDBRANCH  20  27
ENDBRANCH   1  20
TORSDOF 2
