REMARK  Name = ZINC09064940
REMARK  9 active torsions:
REMARK  status: ('A' for Active; 'I' for Inactive)
REMARK    1  A    between atoms: C_1  and  C_2
REMARK    2  A    between atoms: C_2  and  C_3
REMARK    3  A    between atoms: C_2  and  C_4
REMARK    4  A    between atoms: C_7  and  C_10
REMARK    5  A    between atoms: C_11  and  C_12
REMARK    6  A    between atoms: N_14  and  C_15
REMARK    7  A    between atoms: C_15  and  N_17
REMARK    8  A    between atoms: N_17  and  C_18
REMARK    9  A    between atoms: C_21  and  N_25
REMARK                            x       y       z     vdW  Elec       q    Type
REMARK                         _______ _______ _______ _____ _____    ______ ____
ROOT
ATOM      1  C   UNL     1      -7.004  -3.705  -0.799  0.00  0.00    +0.242 C 
ATOM      2  O   UNL     1      -7.658  -3.620   0.224  0.00  0.00    -0.270 OA
ATOM      3  N   UNL     1      -7.542  -4.271  -1.897  0.00  0.00    -0.264 N 
ATOM      4  H   UNL     1      -7.021  -4.340  -2.712  0.00  0.00    +0.157 HD
ENDROOT
BRANCH   1   6
ATOM      5  C   UNL     1      -5.096  -2.626   0.263  0.00  0.00    +0.013 C 
ATOM      6  C   UNL     1      -5.634  -3.193  -0.836  0.00  0.00    +0.068 C 
BRANCH   5  10
ATOM      7  C   UNL     1      -1.123  -1.142   0.155  0.00  0.00    -0.045 A 
ATOM      8  C   UNL     1      -1.864  -1.043   1.320  0.00  0.00    +0.004 A 
ATOM      9  C   UNL     1      -3.156  -1.522   1.363  0.00  0.00    +0.008 A 
ATOM     10  C   UNL     1      -3.718  -2.111   0.226  0.00  0.00    -0.025 A 
ATOM     11  C   UNL     1      -2.963  -2.208  -0.948  0.00  0.00    +0.008 A 
ATOM     12  C   UNL     1      -1.674  -1.718  -0.977  0.00  0.00    +0.004 A 
BRANCH   7  14
ATOM     13  C   UNL     1       0.282   0.881   0.433  0.00  0.00    +0.012 C 
ATOM     14  C   UNL     1       0.288  -0.616   0.117  0.00  0.00    +0.013 C 
ATOM     15  C   UNL     1       1.136  -1.353   1.155  0.00  0.00    +0.012 C 
ENDBRANCH   7  14
ENDBRANCH   5  10
ENDBRANCH   1   6
BRANCH   3  16
ATOM     16  C   UNL     1      -8.804  -4.743  -1.862  0.00  0.00    +0.141 C 
ATOM     17  S   UNL     1      -9.724  -4.623  -0.423  0.00  0.00    -0.018 S 
BRANCH  16  18
ATOM     18  N   UNL     1      -9.342  -5.310  -2.961  0.00  0.00    -0.296 N 
ATOM     19  H   UNL     1      -8.845  -5.322  -3.793  0.00  0.00    +0.154 HD
BRANCH  18  20
ATOM     20  C   UNL     1     -10.618  -5.880  -2.900  0.00  0.00    +0.047 A 
ATOM     21  C   UNL     1     -11.665  -5.184  -2.309  0.00  0.00    +0.026 A 
ATOM     22  C   UNL     1     -12.923  -5.750  -2.251  0.00  0.00    +0.034 A 
ATOM     23  C   UNL     1     -13.143  -7.009  -2.779  0.00  0.00    +0.127 A 
ATOM     24  C   UNL     1     -12.104  -7.705  -3.368  0.00  0.00    +0.049 A 
ATOM     25  C   UNL     1     -10.843  -7.143  -3.435  0.00  0.00    +0.041 A 
ATOM     26 BR   UNL     1      -9.424  -8.092  -4.248  0.00  0.00    -0.048 Br
BRANCH  23  27
ATOM     27  N   UNL     1     -14.493  -7.612  -2.714  0.00  0.00    +0.056 N 
ATOM     28  O   UNL     1     -15.402  -7.004  -2.199  0.00  0.00    -0.126 OA
ATOM     29  O   UNL     1     -14.686  -8.713  -3.176  0.00  0.00    -0.126 OA
ENDBRANCH  23  27
ENDBRANCH  18  20
ENDBRANCH  16  18
ENDBRANCH   3  16
TORSDOF 7
