REMARK  Name = ZINC58930012
REMARK  6 active torsions:
REMARK  status: ('A' for Active; 'I' for Inactive)
REMARK    1  A    between atoms: C_1  and  C_2
REMARK    2  A    between atoms: C_7  and  N_8
REMARK    3  A    between atoms: C_9  and  N_17
REMARK    4  A    between atoms: C_12  and  C_16
REMARK    5  A    between atoms: C_20  and  C_25
REMARK    6  A    between atoms: C_22  and  C_24
REMARK                            x       y       z     vdW  Elec       q    Type
REMARK                         _______ _______ _______ _____ _____    ______ ____
ROOT
ATOM      1  N   UNL     1       0.025  -0.015   2.417  0.00  0.00    -0.233 N 
ATOM      2  C   UNL     1      -1.244   0.324   3.068  0.00  0.00    +0.260 C 
ATOM      3  N   UNL     1      -1.075   1.569   3.826  0.00  0.00    -0.314 N 
ATOM      4  C   UNL     1       0.069   1.741   4.564  0.00  0.00    +0.008 C 
ATOM      5  C   UNL     1       1.208   1.146   4.147  0.00  0.00    +0.086 C 
ATOM      6  C   UNL     1       1.193   0.333   2.990  0.00  0.00    +0.248 C 
ATOM      7  O   UNL     1       2.242  -0.052   2.507  0.00  0.00    -0.270 OA
ATOM      8  C   UNL     1       0.056   2.579   5.817  0.00  0.00    +0.060 C 
ATOM      9  H   UNL     1      -1.758   2.258   3.805  0.00  0.00    +0.149 HD
ENDROOT
BRANCH   2  10
ATOM     10  N   UNL     1      -1.632  -0.757   3.978  0.00  0.00    -0.280 N 
ATOM     11  C   UNL     1      -2.925  -0.819   4.468  0.00  0.00    +0.218 A 
ATOM     12  N   UNL     1      -3.801   0.104   4.100  0.00  0.00    -0.220 NA
ATOM     13  C   UNL     1      -5.044   0.074   4.550  0.00  0.00    +0.044 A 
ATOM     14  C   UNL     1      -5.426  -0.939   5.416  0.00  0.00    +0.046 A 
ATOM     15  C   UNL     1      -4.484  -1.888   5.780  0.00  0.00    +0.044 A 
ATOM     16  N   UNL     1      -3.258  -1.803   5.290  0.00  0.00    -0.220 NA
ATOM     17  C   UNL     1      -4.854  -3.007   6.720  0.00  0.00    +0.066 C 
ATOM     18  C   UNL     1      -6.034   1.129   4.127  0.00  0.00    +0.066 C 
ATOM     19  H   UNL     1      -0.982  -1.429   4.237  0.00  0.00    +0.152 HD
ENDBRANCH   2  10
BRANCH   1  26
ATOM     20  C   UNL     1      -0.018   1.503   0.010  0.00  0.00    +0.045 C 
ATOM     21  C   UNL     1       0.002  -0.004   0.002  0.00  0.00    -0.029 A 
ATOM     22  C   UNL     1       0.006  -0.689  -1.198  0.00  0.00    +0.005 A 
ATOM     23  C   UNL     1       0.025  -2.071  -1.206  0.00  0.00    +0.000 A 
ATOM     24  C   UNL     1       0.040  -2.773  -0.014  0.00  0.00    +0.002 A 
ATOM     25  C   UNL     1       0.036  -2.095   1.188  0.00  0.00    +0.024 A 
ATOM     26  C   UNL     1       0.023  -0.706   1.200  0.00  0.00    +0.043 A 
ENDBRANCH   1  26
TORSDOF 2
