REMARK  Name = ZINC33051504
REMARK  9 active torsions:
REMARK  status: ('A' for Active; 'I' for Inactive)
REMARK    1  A    between atoms: C_1  and  C_2
REMARK    2  A    between atoms: C_4  and  C_41
REMARK    3  A    between atoms: C_6  and  N_8
REMARK    4  A    between atoms: C_14  and  C_40
REMARK    5  A    between atoms: N_16  and  C_34
REMARK    6  A    between atoms: C_23  and  C_25
REMARK    7  A    between atoms: C_28  and  C_31
REMARK    8  A    between atoms: C_31  and  C_32
REMARK    9  A    between atoms: C_31  and  C_33
REMARK                            x       y       z     vdW  Elec       q    Type
REMARK                         _______ _______ _______ _____ _____    ______ ____
ROOT
ATOM      1  N   UNL     1      -1.157  10.737  -1.329  0.00  0.00    -0.269 N 
ATOM      2  C   UNL     1      -1.204   9.829  -2.324  0.00  0.00    +0.308 C 
ATOM      3  O   UNL     1      -1.056  10.183  -3.477  0.00  0.00    -0.252 OA
ATOM      4  N   UNL     1      -1.413   8.528  -2.040  0.00  0.00    -0.268 N 
ATOM      5  C   UNL     1      -1.598   8.049  -0.650  0.00  0.00    +0.151 C 
ATOM      6  C   UNL     1      -0.907   6.737  -0.424  0.00  0.00    +0.035 A 
ATOM      7  C   UNL     1       0.230   6.461   0.330  0.00  0.00    +0.067 A 
ATOM      8  N   UNL     1       0.454   5.169   0.284  0.00  0.00    -0.169 NA
ATOM      9  N   UNL     1      -0.546   4.572  -0.501  0.00  0.00    -0.215 N 
ATOM     10  C   UNL     1      -1.347   5.556  -0.950  0.00  0.00    +0.146 A 
ATOM     11  N   UNL     1      -2.435   5.531  -1.830  0.00  0.00    -0.303 N 
ATOM     12  C   UNL     1      -3.516   4.719  -1.874  0.00  0.00    +0.093 A 
ATOM     13  C   UNL     1      -4.338   5.175  -2.847  0.00  0.00    +0.020 A 
ATOM     14  C   UNL     1      -3.717   6.298  -3.436  0.00  0.00    +0.025 A 
ATOM     15  C   UNL     1      -2.539   6.477  -2.819  0.00  0.00    +0.050 A 
ATOM     16  C   UNL     1      -1.472   7.495  -3.100  0.00  0.00    +0.155 C 
ATOM     17  C   UNL     1       1.062   7.475   1.072  0.00  0.00    +0.068 C 
ATOM     18  H   UNL     1      -1.214  10.407  -0.281  0.00  0.00    +0.156 HD
ENDROOT
BRANCH   1  24
ATOM     19  C   UNL     1      -2.282  15.411  -0.301  0.00  0.00    +0.044 C 
ATOM     20  C   UNL     1      -1.572  14.386  -1.147  0.00  0.00    -0.048 A 
ATOM     21  C   UNL     1      -0.802  14.790  -2.222  0.00  0.00    +0.006 A 
ATOM     22  C   UNL     1      -0.150  13.852  -3.001  0.00  0.00    -0.048 A 
ATOM     23  C   UNL     1      -0.265  12.508  -2.707  0.00  0.00    +0.026 A 
ATOM     24  C   UNL     1      -1.038  12.098  -1.629  0.00  0.00    +0.035 A 
ATOM     25  C   UNL     1      -1.696  13.042  -0.852  0.00  0.00    +0.026 A 
ATOM     26  C   UNL     1       0.689  14.298  -4.171  0.00  0.00    +0.044 C 
ENDBRANCH   1  24
BRANCH  16  27
ATOM     27  C   UNL     1      -0.138   6.799  -3.184  0.00  0.00    -0.021 A 
ATOM     28  C   UNL     1       0.985   7.389  -2.636  0.00  0.00    +0.006 A 
ATOM     29  C   UNL     1       2.208   6.749  -2.709  0.00  0.00    +0.004 A 
ATOM     30  C   UNL     1       2.309   5.523  -3.340  0.00  0.00    -0.045 A 
ATOM     31  C   UNL     1       1.187   4.935  -3.892  0.00  0.00    +0.004 A 
ATOM     32  C   UNL     1      -0.037   5.573  -3.815  0.00  0.00    +0.006 A 
BRANCH  30  33
ATOM     33  C   UNL     1       3.643   4.827  -3.425  0.00  0.00    +0.013 C 
ATOM     34  C   UNL     1       4.634   5.715  -4.181  0.00  0.00    +0.012 C 
ATOM     35  C   UNL     1       4.171   4.562  -2.013  0.00  0.00    +0.012 C 
ENDBRANCH  30  33
ENDBRANCH  16  27
BRANCH   9  36
ATOM     36  C   UNL     1      -0.682   3.203  -0.772  0.00  0.00    +0.068 A 
ATOM     37  C   UNL     1      -1.028   2.777  -2.047  0.00  0.00    +0.028 A 
ATOM     38  C   UNL     1      -1.161   1.428  -2.311  0.00  0.00    +0.002 A 
ATOM     39  C   UNL     1      -0.948   0.502  -1.307  0.00  0.00    +0.000 A 
ATOM     40  C   UNL     1      -0.608   0.923  -0.035  0.00  0.00    +0.002 A 
ATOM     41  C   UNL     1      -0.469   2.270   0.234  0.00  0.00    +0.028 A 
ENDBRANCH   9  36
TORSDOF 4
