REMARK  Name = ZINC00759646
REMARK  8 active torsions:
REMARK  status: ('A' for Active; 'I' for Inactive)
REMARK    1  A    between atoms: C_1  and  O_2
REMARK    2  A    between atoms: O_2  and  C_3
REMARK    3  A    between atoms: C_6  and  O_25
REMARK    4  A    between atoms: C_7  and  C_9
REMARK    5  A    between atoms: C_14  and  O_23
REMARK    6  A    between atoms: C_18  and  N_22
REMARK    7  A    between atoms: C_19  and  C_20
REMARK    8  A    between atoms: O_25  and  C_26
REMARK                            x       y       z     vdW  Elec       q    Type
REMARK                         _______ _______ _______ _____ _____    ______ ____
ROOT
ATOM      1  C   UNL     1       2.490   1.047  -0.016  0.00  0.00    +0.102 C 
ATOM      2  C   UNL     1       2.569   0.196  -1.256  0.00  0.00    +0.009 A 
ATOM      3  C   UNL     1       2.842   0.793  -2.474  0.00  0.00    +0.031 A 
ATOM      4  C   UNL     1       2.920   0.028  -3.622  0.00  0.00    +0.083 A 
ATOM      5  C   UNL     1       2.723  -1.346  -3.555  0.00  0.00    +0.139 A 
ATOM      6  C   UNL     1       2.450  -1.945  -2.337  0.00  0.00    +0.093 A 
ATOM      7  C   UNL     1       2.372  -1.174  -1.184  0.00  0.00    +0.138 A 
ATOM      8  O   UNL     1       2.103  -1.776   0.001  0.00  0.00    -0.441 OA
ATOM      9  C   UNL     1       2.398  -1.151   1.153  0.00  0.00    +0.199 C 
ATOM     10  C   UNL     1       2.593   0.185   1.210  0.00  0.00    +0.098 C 
ATOM     11 CL   UNL     1       3.262   0.782  -5.147  0.00  0.00    -0.080 Cl
ENDROOT
BRANCH   1  16
ATOM     12  C   UNL     1      -1.223   1.753   0.017  0.00  0.00    +0.121 A 
ATOM     13  C   UNL     1      -1.242   3.140   0.030  0.00  0.00    +0.049 A 
ATOM     14  C   UNL     1      -0.055   3.847   0.022  0.00  0.00    +0.049 A 
ATOM     15  C   UNL     1       1.155   3.169   0.008  0.00  0.00    +0.124 A 
ATOM     16  C   UNL     1       1.174   1.783   0.000  0.00  0.00    +0.010 A 
ATOM     17  C   UNL     1      -0.013   1.076   0.008  0.00  0.00    +0.053 A 
BRANCH  12  19
ATOM     18  C   UNL     1      -3.600   1.819   0.029  0.00  0.00    +0.277 C 
ATOM     19  O   UNL     1      -2.391   1.057   0.019  0.00  0.00    -0.495 OA
ENDBRANCH  12  19
BRANCH  15  20
ATOM     20  O   UNL     1       2.324   3.865  -0.000  0.00  0.00    -0.495 OA
ATOM     21  C   UNL     1       2.230   5.291   0.008  0.00  0.00    +0.277 C 
ENDBRANCH  15  20
ENDBRANCH   1  16
BRANCH   9  22
ATOM     22  N   UNL     1       2.505  -1.892   2.304  0.00  0.00    -0.328 N 
ATOM     23  H   UNL     1       2.368  -2.852   2.278  0.00  0.00    +0.145 HD
ATOM     24  H   UNL     1       2.718  -1.455   3.143  0.00  0.00    +0.145 HD
ENDBRANCH   9  22
BRANCH  10  25
ATOM     25  C   UNL     1       2.904   0.790   2.470  0.00  0.00    +0.101 C 
ATOM     26  N   UNL     1       3.151   1.271   3.469  0.00  0.00    -0.191 NA
ENDBRANCH  10  25
BRANCH   5  27
ATOM     27  O   UNL     1       2.799  -2.100  -4.683  0.00  0.00    -0.505 OA
ATOM     28  H   UNL     1       3.686  -2.436  -4.872  0.00  0.00    +0.292 HD
ENDBRANCH   5  27
TORSDOF 6
