REMARK  Name = ZINC25680447
REMARK  10 active torsions:
REMARK  status: ('A' for Active; 'I' for Inactive)
REMARK    1  A    between atoms: C_1  and  C_2
REMARK    2  A    between atoms: C_3  and  C_33
REMARK    3  A    between atoms: N_4  and  C_26
REMARK    4  A    between atoms: C_5  and  N_9
REMARK    5  A    between atoms: C_6  and  C_7
REMARK    6  A    between atoms: C_10  and  C_12
REMARK    7  A    between atoms: C_12  and  N_13
REMARK    8  A    between atoms: C_16  and  C_19
REMARK    9  A    between atoms: C_22  and  O_25
REMARK   10  A    between atoms: C_26  and  C_27
REMARK                            x       y       z     vdW  Elec       q    Type
REMARK                         _______ _______ _______ _____ _____    ______ ____
ROOT
ATOM      1  N   UNL     1      -2.036  -0.420   1.528  0.00  0.00    -0.272 N 
ATOM      2  C   UNL     1      -1.409  -1.099   0.546  0.00  0.00    +0.202 C 
ATOM      3  O   UNL     1      -0.416  -0.636   0.027  0.00  0.00    -0.278 OA
ATOM      4  H   UNL     1      -2.878  -0.882   2.064  0.00  0.00    +0.156 HD
ENDROOT
BRANCH   1   9
ATOM      5  C   UNL     1      -0.146   4.263   1.332  0.00  0.00    +0.047 C 
ATOM      6  C   UNL     1      -0.772   2.977   1.808  0.00  0.00    -0.011 A 
ATOM      7  C   UNL     1      -1.200   2.706   3.052  0.00  0.00    +0.022 A 
ATOM      8  N   UNL     1      -1.704   1.433   3.090  0.00  0.00    -0.329 N 
ATOM      9  C   UNL     1      -1.618   0.859   1.862  0.00  0.00    +0.123 A 
ATOM     10  C   UNL     1      -1.038   1.780   1.001  0.00  0.00    +0.095 A 
ATOM     11  C   UNL     1      -1.133   3.652   4.223  0.00  0.00    +0.064 C 
BRANCH  10  12
ATOM     12  C   UNL     1      -0.755   1.599  -0.391  0.00  0.00    +0.103 C 
ATOM     13  N   UNL     1      -0.530   1.455  -1.496  0.00  0.00    -0.191 NA
ENDBRANCH  10  12
BRANCH   8  14
ATOM     14  C   UNL     1      -2.262   0.787   4.280  0.00  0.00    +0.154 C 
BRANCH  14  15
ATOM     15  C   UNL     1      -1.178  -0.054   4.959  0.00  0.00    +0.138 C 
ATOM     16  C   UNL     1      -1.786  -0.834   6.144  0.00  0.00    +0.035 C 
ATOM     17  C   UNL     1      -0.659  -0.740   7.211  0.00  0.00    +0.031 C 
ATOM     18  C   UNL     1      -0.083   0.666   6.909  0.00  0.00    +0.160 C 
ATOM     19  O   UNL     1      -0.155   0.802   5.480  0.00  0.00    -0.375 OA
ENDBRANCH  14  15
ENDBRANCH   8  14
ENDBRANCH   1   9
BRANCH   2  20
ATOM     20  C   UNL     1      -1.944  -2.432   0.092  0.00  0.00    +0.019 C 
BRANCH  20  21
ATOM     21  N   UNL     1      -1.091  -2.963  -0.980  0.00  0.00    +0.388 N 
ATOM     22  C   UNL     1      -1.698  -4.155  -1.596  0.00  0.00    -0.073 C 
ATOM     23  C   UNL     1      -0.945  -4.470  -2.891  0.00  0.00    +0.017 C 
ATOM     24  C   UNL     1       0.535  -4.475  -2.628  0.00  0.00    -0.048 C 
ATOM     25  C   UNL     1       1.067  -3.939  -1.551  0.00  0.00    -0.041 C 
ATOM     26  C   UNL     1       0.251  -3.278  -0.477  0.00  0.00    -0.050 C 
ATOM     27  H   UNL     1      -0.998  -2.181  -1.748  0.00  0.00    -0.081 HD
BRANCH  24  28
ATOM     28  C   UNL     1       1.430  -5.108  -3.620  0.00  0.00    -0.022 A 
ATOM     29  C   UNL     1       1.541  -4.571  -4.904  0.00  0.00    +0.012 A 
ATOM     30  C   UNL     1       2.380  -5.161  -5.825  0.00  0.00    +0.046 A 
ATOM     31  C   UNL     1       3.105  -6.294  -5.480  0.00  0.00    +0.117 A 
ATOM     32  C   UNL     1       2.994  -6.834  -4.205  0.00  0.00    +0.046 A 
ATOM     33  C   UNL     1       2.161  -6.246  -3.277  0.00  0.00    +0.012 A 
BRANCH  31  34
ATOM     34  O   UNL     1       3.927  -6.876  -6.392  0.00  0.00    -0.507 OA
ATOM     35  H   UNL     1       4.502  -7.773  -6.121  0.00  0.00    +0.292 HD
ENDBRANCH  31  34
ENDBRANCH  24  28
ENDBRANCH  20  21
ENDBRANCH   2  20
TORSDOF 8
