REMARK  Name = ZINC33085491
REMARK  10 active torsions:
REMARK  status: ('A' for Active; 'I' for Inactive)
REMARK    1  A    between atoms: C_1  and  C_2
REMARK    2  A    between atoms: C_5  and  C_8
REMARK    3  A    between atoms: C_10  and  C_27
REMARK    4  A    between atoms: C_11  and  C_26
REMARK    5  A    between atoms: C_16  and  S_18
REMARK    6  A    between atoms: S_18  and  C_19
REMARK    7  A    between atoms: C_19  and  C_20
REMARK    8  A    between atoms: N_29  and  C_30
REMARK    9  A    between atoms: C_33  and  C_37
REMARK   10  A    between atoms: C_35  and  C_36
REMARK                            x       y       z     vdW  Elec       q    Type
REMARK                         _______ _______ _______ _____ _____    ______ ____
ROOT
ATOM      1  C   UNL     1      -3.933   3.828   7.122  0.00  0.00    +0.177 C 
ATOM      2  C   UNL     1      -2.443   3.625   7.058  0.00  0.00    +0.060 C 
ATOM      3  C   UNL     1      -1.627   3.860   8.097  0.00  0.00    +0.018 C 
ATOM      4  N   UNL     1      -2.092   4.328   9.301  0.00  0.00    -0.287 N 
ATOM      5  C   UNL     1      -3.399   4.794   9.345  0.00  0.00    +0.219 A 
ATOM      6  N   UNL     1      -4.272   4.573   8.331  0.00  0.00    -0.220 N 
ATOM      7  N   UNL     1      -5.472   5.180   8.697  0.00  0.00    -0.141 NA
ATOM      8  C   UNL     1      -5.278   5.719   9.882  0.00  0.00    +0.211 A 
ATOM      9  N   UNL     1      -4.016   5.480  10.269  0.00  0.00    -0.187 NA
ATOM     10  C   UNL     1      -0.150   3.607   7.935  0.00  0.00    +0.061 C 
ATOM     11  H   UNL     1      -1.436   4.324  10.184  0.00  0.00    +0.155 HD
ENDROOT
BRANCH   1  16
ATOM     12  C   UNL     1      -6.572  -1.312   7.223  0.00  0.00    +0.044 C 
ATOM     13  C   UNL     1      -5.884   0.028   7.197  0.00  0.00    -0.050 A 
ATOM     14  C   UNL     1      -6.144   0.918   6.172  0.00  0.00    +0.004 A 
ATOM     15  C   UNL     1      -5.513   2.148   6.148  0.00  0.00    +0.006 A 
ATOM     16  C   UNL     1      -4.622   2.487   7.149  0.00  0.00    -0.018 A 
ATOM     17  C   UNL     1      -4.357   1.595   8.171  0.00  0.00    +0.006 A 
ATOM     18  C   UNL     1      -4.993   0.367   8.198  0.00  0.00    +0.004 A 
ENDBRANCH   1  16
BRANCH   2  19
ATOM     19  C   UNL     1      -1.877   3.159   5.848  0.00  0.00    +0.248 C 
ATOM     20  O   UNL     1      -1.596   3.948   4.964  0.00  0.00    -0.270 OA
ATOM     21  N   UNL     1      -1.647   1.843   5.674  0.00  0.00    -0.281 N 
ATOM     22  H   UNL     1      -1.984   1.121   6.433  0.00  0.00    +0.155 HD
BRANCH  21  23
ATOM     23  C   UNL     1      -0.981   1.394   4.529  0.00  0.00    +0.037 A 
ATOM     24  C   UNL     1      -0.122   2.245   3.846  0.00  0.00    +0.024 A 
ATOM     25  C   UNL     1       0.534   1.799   2.715  0.00  0.00    +0.005 A 
ATOM     26  C   UNL     1       0.336   0.507   2.264  0.00  0.00    -0.050 A 
ATOM     27  C   UNL     1      -0.523  -0.340   2.938  0.00  0.00    +0.008 A 
ATOM     28  C   UNL     1      -1.178   0.098   4.073  0.00  0.00    -0.029 A 
ATOM     29  C   UNL     1      -2.109  -0.829   4.812  0.00  0.00    +0.045 C 
ATOM     30  C   UNL     1       1.053   0.024   1.029  0.00  0.00    +0.044 C 
ENDBRANCH  21  23
ENDBRANCH   2  19
BRANCH   8  31
ATOM     31  S   UNL     1      -6.480   6.613  10.809  0.00  0.00    -0.080 S 
BRANCH  31  32
ATOM     32  C   UNL     1      -5.604   7.085  12.325  0.00  0.00    +0.112 C 
BRANCH  32  33
ATOM     33  C   UNL     1      -6.532   7.866  13.220  0.00  0.00    -0.037 A 
ATOM     34  C   UNL     1      -6.599   9.242  13.112  0.00  0.00    +0.004 A 
ATOM     35  C   UNL     1      -7.454   9.958  13.930  0.00  0.00    +0.000 A 
ATOM     36  C   UNL     1      -8.233   9.299  14.861  0.00  0.00    +0.000 A 
ATOM     37  C   UNL     1      -8.162   7.923  14.972  0.00  0.00    +0.000 A 
ATOM     38  C   UNL     1      -7.311   7.206  14.151  0.00  0.00    +0.004 A 
ENDBRANCH  32  33
ENDBRANCH  31  32
ENDBRANCH   8  31
TORSDOF 6
