REMARK  Name = ZINC03367388
REMARK  11 active torsions:
REMARK  status: ('A' for Active; 'I' for Inactive)
REMARK    1  A    between atoms: C_4  and  C_7
REMARK    2  A    between atoms: C_8  and  S_9
REMARK    3  A    between atoms: S_9  and  N_12
REMARK    4  A    between atoms: N_12  and  C_13
REMARK    5  A    between atoms: C_13  and  C_14
REMARK    6  A    between atoms: C_14  and  O_16
REMARK    7  A    between atoms: O_16  and  C_17
REMARK    8  A    between atoms: C_17  and  C_18
REMARK    9  A    between atoms: N_20  and  C_21
REMARK   10  A    between atoms: C_26  and  S_27
REMARK   11  A    between atoms: S_27  and  C_28
REMARK                            x       y       z     vdW  Elec       q    Type
REMARK                         _______ _______ _______ _____ _____    ______ ____
ROOT
ATOM      1  C   UNL     1       3.897  -1.262  -5.131  0.00  0.00    +0.328 C 
ENDROOT
BRANCH   1   2
ATOM      2  C   UNL     1       5.358  -1.018  -5.411  0.00  0.00    +0.255 C 
ATOM      3  O   UNL     1       5.863   0.044  -5.115  0.00  0.00    -0.272 OA
ATOM      4  N   UNL     1       6.103  -1.981  -5.990  0.00  0.00    -0.282 N 
ATOM      5  H   UNL     1       5.719  -2.856  -6.159  0.00  0.00    +0.155 HD
BRANCH   4   6
ATOM      6  C   UNL     1       7.431  -1.717  -6.349  0.00  0.00    +0.047 A 
ATOM      7  C   UNL     1       8.174  -0.790  -5.634  0.00  0.00    +0.024 A 
ATOM      8  C   UNL     1       9.485  -0.532  -5.989  0.00  0.00    +0.002 A 
ATOM      9  C   UNL     1      10.059  -1.196  -7.058  0.00  0.00    +0.001 A 
ATOM     10  C   UNL     1       9.327  -2.121  -7.777  0.00  0.00    +0.017 A 
ATOM     11  C   UNL     1       8.012  -2.391  -7.424  0.00  0.00    +0.034 A 
BRANCH  11  12
ATOM     12  S   UNL     1       7.078  -3.576  -8.334  0.00  0.00    -0.088 S 
BRANCH  12  13
ATOM     13  C   UNL     1       8.209  -4.169  -9.548  0.00  0.00    +0.013 A 
ATOM     14  C   UNL     1       8.215  -3.615 -10.823  0.00  0.00    +0.016 A 
ATOM     15  C   UNL     1       9.106  -4.077 -11.771  0.00  0.00    +0.021 A 
ATOM     16  C   UNL     1       9.984  -5.100 -11.456  0.00  0.00    +0.041 A 
ATOM     17  C   UNL     1       9.976  -5.657 -10.189  0.00  0.00    +0.021 A 
ATOM     18  C   UNL     1       9.092  -5.195  -9.235  0.00  0.00    +0.016 A 
ATOM     19 CL   UNL     1      11.098  -5.684 -12.653  0.00  0.00    -0.084 Cl
ENDBRANCH  12  13
ENDBRANCH  11  12
ENDBRANCH   4   6
ENDBRANCH   1   2
BRANCH   1  20
ATOM     20  O   UNL     1       3.320  -0.084  -4.508  0.00  0.00    -0.454 OA
BRANCH  20  21
ATOM     21  C   UNL     1       2.017  -0.138  -4.192  0.00  0.00    +0.323 C 
ATOM     22  O   UNL     1       1.379  -1.137  -4.428  0.00  0.00    -0.249 OA
BRANCH  21  23
ATOM     23  C   UNL     1       1.349   1.046  -3.543  0.00  0.00    +0.226 C 
BRANCH  23  24
ATOM     24  N   UNL     1      -0.063   0.739  -3.301  0.00  0.00    -0.180 NA
ATOM     25  H   UNL     1      -0.476  -0.021  -3.741  0.00  0.00    +0.149 HD
BRANCH  24  26
ATOM     26  S   UNL     1      -0.953   1.689  -2.278  0.00  0.00    +0.052 S 
ATOM     27  O   UNL     1      -0.187   1.835  -1.090  0.00  0.00    -0.154 OA
ATOM     28  O   UNL     1      -2.271   1.157  -2.274  0.00  0.00    -0.154 OA
BRANCH  26  30
ATOM     29  C   UNL     1      -2.231   3.759  -3.408  0.00  0.00    +0.028 C 
ATOM     30  C   UNL     1      -1.058   3.288  -3.010  0.00  0.00    +0.153 C 
BRANCH  29  34
ATOM     31  C   UNL     1      -2.483   7.615  -5.172  0.00  0.00    +0.000 A 
ATOM     32  C   UNL     1      -3.627   6.853  -5.015  0.00  0.00    +0.001 A 
ATOM     33  C   UNL     1      -3.552   5.600  -4.443  0.00  0.00    +0.008 A 
ATOM     34  C   UNL     1      -2.319   5.101  -4.022  0.00  0.00    -0.024 A 
ATOM     35  C   UNL     1      -1.169   5.877  -4.179  0.00  0.00    +0.008 A 
ATOM     36  C   UNL     1      -1.257   7.126  -4.758  0.00  0.00    +0.001 A 
ENDBRANCH  29  34
ENDBRANCH  26  30
ENDBRANCH  24  26
ENDBRANCH  23  24
ENDBRANCH  21  23
ENDBRANCH  20  21
ENDBRANCH   1  20
TORSDOF 11
