REMARK  Name = ZINC38688827
REMARK  9 active torsions:
REMARK  status: ('A' for Active; 'I' for Inactive)
REMARK    1  A    between atoms: N_9  and  C_12
REMARK    2  A    between atoms: C_12  and  C_14
REMARK    3  A    between atoms: C_12  and  C_25
REMARK    4  A    between atoms: C_14  and  C_15
REMARK    5  A    between atoms: C_18  and  O_24
REMARK    6  A    between atoms: C_19  and  N_21
REMARK    7  A    between atoms: N_27  and  C_28
REMARK    8  A    between atoms: C_34  and  C_36
REMARK    9  A    between atoms: C_36  and  C_37
REMARK                            x       y       z     vdW  Elec       q    Type
REMARK                         _______ _______ _______ _____ _____    ______ ____
ROOT
ATOM      1  C   UNL     1       3.709  -3.428  -0.053  0.00  0.00    +0.175 C 
ENDROOT
BRANCH   1  10
ATOM      2  C   UNL     1      -0.017   1.382   0.010  0.00  0.00    +0.001 A 
ATOM      3  C   UNL     1       1.165   2.099   0.002  0.00  0.00    +0.001 A 
ATOM      4  C   UNL     1       2.385   1.442  -0.013  0.00  0.00    +0.014 A 
ATOM      5  C   UNL     1       2.420   0.056  -0.021  0.00  0.00    +0.049 A 
ATOM      6  C   UNL     1       1.215  -0.675  -0.013  0.00  0.00    +0.049 A 
ATOM      7  C   UNL     1       0.002  -0.004   0.002  0.00  0.00    +0.014 A 
ATOM      8  C   UNL     1       1.606  -2.100  -0.025  0.00  0.00    +0.255 C 
ATOM      9  O   UNL     1       0.843  -3.045  -0.023  0.00  0.00    -0.270 OA
ATOM     10  N   UNL     1       2.949  -2.175  -0.039  0.00  0.00    -0.222 N 
ATOM     11  C   UNL     1       3.503  -0.949  -0.038  0.00  0.00    +0.255 C 
ATOM     12  O   UNL     1       4.693  -0.709  -0.049  0.00  0.00    -0.270 OA
ENDBRANCH   1  10
BRANCH   1  13
ATOM     13  C   UNL     1       4.564  -3.483  -1.293  0.00  0.00    +0.235 C 
ATOM     14  O   UNL     1       4.832  -2.462  -1.891  0.00  0.00    -0.274 OA
ATOM     15  N   UNL     1       5.032  -4.666  -1.737  0.00  0.00    -0.311 N 
ATOM     16  H   UNL     1       4.819  -5.482  -1.259  0.00  0.00    +0.149 HD
BRANCH  15  17
ATOM     17  C   UNL     1       5.864  -4.719  -2.942  0.00  0.00    +0.076 C 
ATOM     18  C   UNL     1       7.323  -4.449  -2.567  0.00  0.00    +0.022 C 
ATOM     19  C   UNL     1       7.798  -5.510  -1.572  0.00  0.00    +0.002 C 
ATOM     20  C   UNL     1       7.684  -6.895  -2.210  0.00  0.00    +0.000 C 
ATOM     21  C   UNL     1       6.225  -7.165  -2.585  0.00  0.00    +0.006 C 
ATOM     22  C   UNL     1       5.749  -6.105  -3.580  0.00  0.00    +0.017 C 
BRANCH  22  23
ATOM     23  C   UNL     1       4.291  -6.375  -3.955  0.00  0.00    +0.079 C 
BRANCH  23  24
ATOM     24  C   UNL     1       4.196  -7.685  -4.693  0.00  0.00    +0.105 A 
ATOM     25  C   UNL     1       3.995  -8.891  -4.132  0.00  0.00    +0.044 A 
ATOM     26  C   UNL     1       3.974  -9.834  -5.185  0.00  0.00    +0.041 A 
ATOM     27  C   UNL     1       4.165  -9.148  -6.327  0.00  0.00    +0.195 A 
ATOM     28  O   UNL     1       4.292  -7.846  -6.023  0.00  0.00    -0.468 OA
ENDBRANCH  23  24
ENDBRANCH  22  23
ENDBRANCH  15  17
ENDBRANCH   1  13
BRANCH   1  29
ATOM     29  C   UNL     1       4.603  -3.497   1.187  0.00  0.00    +0.067 C 
BRANCH  29  30
ATOM     30  C   UNL     1       3.743  -3.566   2.422  0.00  0.00    -0.043 A 
ATOM     31  C   UNL     1       3.344  -2.401   3.052  0.00  0.00    +0.007 A 
ATOM     32  C   UNL     1       2.556  -2.462   4.184  0.00  0.00    +0.048 A 
ATOM     33  C   UNL     1       2.164  -3.693   4.691  0.00  0.00    +0.147 A 
ATOM     34  C   UNL     1       2.566  -4.860   4.057  0.00  0.00    +0.168 A 
ATOM     35  C   UNL     1       3.350  -4.793   2.922  0.00  0.00    +0.040 A 
BRANCH  34  36
ATOM     36  N   UNL     1       2.150  -6.175   4.595  0.00  0.00    +0.060 N 
ATOM     37  O   UNL     1       2.500  -7.191   4.043  0.00  0.00    -0.126 OA
ATOM     38  O   UNL     1       1.461  -6.232   5.586  0.00  0.00    -0.126 OA
ENDBRANCH  34  36
BRANCH  33  39
ATOM     39  O   UNL     1       1.389  -3.755   5.805  0.00  0.00    -0.504 OA
ATOM     40  H   UNL     1       0.439  -3.749   5.625  0.00  0.00    +0.292 HD
ENDBRANCH  33  39
ENDBRANCH  29  30
ENDBRANCH   1  29
TORSDOF 9
