REMARK  Name = ZINC11753753
REMARK  7 active torsions:
REMARK  status: ('A' for Active; 'I' for Inactive)
REMARK    1  A    between atoms: C_1  and  C_2
REMARK    2  A    between atoms: C_2  and  C_4
REMARK    3  A    between atoms: C_2  and  N_12
REMARK    4  A    between atoms: C_4  and  C_5
REMARK    5  A    between atoms: C_15  and  N_18
REMARK    6  A    between atoms: C_19  and  N_23
REMARK    7  A    between atoms: C_24  and  C_26
REMARK                            x       y       z     vdW  Elec       q    Type
REMARK                         _______ _______ _______ _____ _____    ______ ____
ROOT
ATOM      1  N   UNL     1       0.782  -0.814   1.014  0.00  0.00    +0.382 N 
ATOM      2  C   UNL     1       0.649  -2.275   0.962  0.00  0.00    -0.076 C 
ATOM      3  C   UNL     1       1.295  -2.894   2.203  0.00  0.00    +0.008 C 
ATOM      4  C   UNL     1       2.779  -2.516   2.241  0.00  0.00    +0.106 C 
ATOM      5  C   UNL     1       2.908  -0.991   2.220  0.00  0.00    +0.008 C 
ATOM      6  C   UNL     1       2.201  -0.442   0.978  0.00  0.00    -0.076 C 
ATOM      7  H   UNL     1       0.366  -0.471   1.867  0.00  0.00    -0.081 HD
ENDROOT
BRANCH   4   8
ATOM      8  N   UNL     1       3.387  -3.042   3.466  0.00  0.00    -0.248 N 
ATOM      9  C   UNL     1       4.419  -3.914   3.531  0.00  0.00    +0.123 A 
ATOM     10  C   UNL     1       4.678  -4.146   4.847  0.00  0.00    +0.065 A 
ATOM     11  C   UNL     1       3.776  -3.390   5.601  0.00  0.00    +0.136 A 
ATOM     12  N   UNL     1       3.006  -2.726   4.777  0.00  0.00    -0.178 NA
BRANCH   9  13
ATOM     13  N   UNL     1       5.094  -4.475   2.447  0.00  0.00    -0.270 N 
ATOM     14  C   UNL     1       6.110  -5.335   2.658  0.00  0.00    +0.221 C 
ATOM     15  O   UNL     1       6.437  -5.622   3.790  0.00  0.00    -0.275 OA
ATOM     16  H   UNL     1       4.832  -4.246   1.542  0.00  0.00    +0.156 HD
BRANCH  14  17
ATOM     17  C   UNL     1       6.839  -5.941   1.487  0.00  0.00    +0.075 C 
ATOM     18  C   UNL     1       5.872  -6.804   0.651  0.00  0.00    +0.013 C 
ATOM     19  C   UNL     1       6.734  -8.008   0.195  0.00  0.00    +0.001 C 
ATOM     20  C   UNL     1       7.617  -8.286   1.437  0.00  0.00    +0.001 C 
ATOM     21  C   UNL     1       7.949  -6.883   1.987  0.00  0.00    +0.013 C 
ENDBRANCH  14  17
ENDBRANCH   9  13
ENDBRANCH   4   8
BRANCH   1  23
ATOM     22  C   UNL     1       0.286   1.298  -0.123  0.00  0.00    -0.013 C 
ATOM     23  C   UNL     1       0.092  -0.220  -0.139  0.00  0.00    -0.067 C 
BRANCH  23  24
ATOM     24  C   UNL     1      -1.401  -0.544  -0.063  0.00  0.00    +0.019 C 
BRANCH  24  25
ATOM     25  C   UNL     1      -2.091  -0.026  -1.299  0.00  0.00    -0.049 A 
ATOM     26  C   UNL     1      -2.706   1.212  -1.278  0.00  0.00    +0.005 A 
ATOM     27  C   UNL     1      -3.339   1.688  -2.411  0.00  0.00    +0.020 A 
ATOM     28  C   UNL     1      -3.357   0.925  -3.565  0.00  0.00    +0.041 A 
ATOM     29  C   UNL     1      -2.742  -0.314  -3.585  0.00  0.00    +0.020 A 
ATOM     30  C   UNL     1      -2.104  -0.786  -2.453  0.00  0.00    +0.005 A 
ATOM     31 CL   UNL     1      -4.153   1.522  -4.988  0.00  0.00    -0.084 Cl
ENDBRANCH  24  25
ENDBRANCH  23  24
ENDBRANCH   1  23
TORSDOF 6
