REMARK  Name = ZINC65259877
REMARK  6 active torsions:
REMARK  status: ('A' for Active; 'I' for Inactive)
REMARK    1  A    between atoms: C_1  and  O_2
REMARK    2  A    between atoms: O_2  and  C_3
REMARK    3  A    between atoms: C_3  and  C_4
REMARK    4  A    between atoms: C_4  and  N_5
REMARK    5  A    between atoms: C_21  and  C_23
REMARK    6  A    between atoms: C_23  and  C_24
REMARK                            x       y       z     vdW  Elec       q    Type
REMARK                         _______ _______ _______ _____ _____    ______ ____
ROOT
ATOM      1  N   UNL     1       1.401  -2.532  -0.162  0.00  0.00    -0.372 N 
ATOM      2  C   UNL     1       1.501  -3.789  -0.450  0.00  0.00    +0.098 C 
ATOM      3  N   UNL     1       0.892  -4.762   0.321  0.00  0.00    -0.301 N 
ATOM      4  C   UNL     1       1.589  -5.966   0.521  0.00  0.00    +0.053 A 
ATOM      5  C   UNL     1       1.152  -6.866   1.480  0.00  0.00    +0.025 A 
ATOM      6  C   UNL     1       1.832  -8.055   1.673  0.00  0.00    +0.002 A 
ATOM      7  C   UNL     1       2.947  -8.349   0.910  0.00  0.00    +0.002 A 
ATOM      8  C   UNL     1       3.393  -7.454  -0.046  0.00  0.00    +0.025 A 
ATOM      9  C   UNL     1       2.719  -6.258  -0.241  0.00  0.00    +0.049 A 
ATOM     10  N   UNL     1       3.186  -5.343  -1.196  0.00  0.00    -0.329 N 
ATOM     11  C   UNL     1       2.285  -4.270  -1.653  0.00  0.00    +0.102 C 
ATOM     12  C   UNL     1       3.102  -3.116  -2.230  0.00  0.00    +0.036 C 
ATOM     13  C   UNL     1       3.922  -3.614  -3.423  0.00  0.00    +0.021 C 
ATOM     14  C   UNL     1       2.972  -4.134  -4.506  0.00  0.00    +0.108 C 
ATOM     15  N   UNL     1       2.092  -5.153  -3.917  0.00  0.00    -0.299 N 
ATOM     16  C   UNL     1       1.325  -4.810  -2.711  0.00  0.00    +0.141 C 
ATOM     17  C   UNL     1       1.991  -6.377  -4.471  0.00  0.00    +0.220 C 
ATOM     18  O   UNL     1       1.261  -7.209  -3.975  0.00  0.00    -0.275 OA
ATOM     19  H   UNL     1       1.835  -1.870  -0.723  0.00  0.00    +0.161 HD
ATOM     20  H   UNL     1       4.086  -5.417  -1.551  0.00  0.00    +0.147 HD
ATOM     21  H   UNL     1       0.015  -4.619   0.710  0.00  0.00    +0.153 HD
ENDROOT
BRANCH   1  22
ATOM     22  C   UNL     1       0.633  -2.108   1.011  0.00  0.00    +0.141 C 
BRANCH  22  23
ATOM     23  C   UNL     1       0.673  -0.582   1.123  0.00  0.00    +0.180 C 
BRANCH  23  25
ATOM     24  C   UNL     1      -0.017   1.425   0.010  0.00  0.00    +0.194 C 
ATOM     25  O   UNL     1       0.002  -0.004   0.002  0.00  0.00    -0.381 OA
ENDBRANCH  23  25
ENDBRANCH  22  23
ENDBRANCH   1  22
BRANCH  17  26
ATOM     26  C   UNL     1       2.785  -6.713  -5.707  0.00  0.00    +0.138 C 
BRANCH  26  27
ATOM     27  C   UNL     1       2.494  -8.132  -6.121  0.00  0.00    -0.001 A 
ATOM     28  C   UNL     1       1.538  -8.598  -6.962  0.00  0.00    +0.011 A 
ATOM     29  C   UNL     1       1.456  -9.957  -7.197  0.00  0.00    +0.008 A 
ATOM     30  C   UNL     1       2.335 -10.785  -6.581  0.00  0.00    +0.045 A 
ATOM     31  S   UNL     1       3.324  -9.637  -5.637  0.00  0.00    -0.101 S 
ENDBRANCH  26  27
ENDBRANCH  17  26
TORSDOF 5
