REMARK  Name = ZINC13816990
REMARK  10 active torsions:
REMARK  status: ('A' for Active; 'I' for Inactive)
REMARK    1  A    between atoms: C_1  and  C_2
REMARK    2  A    between atoms: C_7  and  N_8
REMARK    3  A    between atoms: C_9  and  C_11
REMARK    4  A    between atoms: C_12  and  C_36
REMARK    5  A    between atoms: N_18  and  C_23
REMARK    6  A    between atoms: N_21  and  C_22
REMARK    7  A    between atoms: C_24  and  C_26
REMARK    8  A    between atoms: C_29  and  C_32
REMARK    9  A    between atoms: C_32  and  O_34
REMARK   10  A    between atoms: O_34  and  C_35
REMARK                            x       y       z     vdW  Elec       q    Type
REMARK                         _______ _______ _______ _____ _____    ______ ____
ROOT
ATOM      1  C   UNL     1       0.113   0.173   4.708  0.00  0.00    +0.043 C 
ATOM      2  C   UNL     1       0.202  -0.438   5.899  0.00  0.00    +0.015 C 
ATOM      3  N   UNL     1       0.226   0.285   7.061  0.00  0.00    -0.304 N 
ATOM      4  C   UNL     1      -0.200   1.591   7.074  0.00  0.00    +0.116 A 
ATOM      5  C   UNL     1      -0.308   2.294   5.912  0.00  0.00    +0.067 A 
ATOM      6  C   UNL     1      -0.754   3.627   5.959  0.00  0.00    +0.262 A 
ATOM      7  O   UNL     1      -0.862   4.275   4.932  0.00  0.00    -0.267 OA
ATOM      8  N   UNL     1      -1.061   4.183   7.147  0.00  0.00    -0.264 N 
ATOM      9  C   UNL     1      -0.945   3.474   8.285  0.00  0.00    +0.333 A 
ATOM     10  O   UNL     1      -1.225   3.995   9.347  0.00  0.00    -0.246 OA
ATOM     11  N   UNL     1      -0.522   2.197   8.265  0.00  0.00    -0.284 N 
ATOM     12  C   UNL     1      -0.404   1.448   9.519  0.00  0.00    +0.155 C 
ATOM     13  C   UNL     1      -1.526   5.571   7.201  0.00  0.00    +0.157 C 
ATOM     14  C   UNL     1       0.052   1.669   4.591  0.00  0.00    +0.094 C 
ATOM     15  C   UNL     1       0.277  -1.942   5.959  0.00  0.00    +0.061 C 
ATOM     16  H   UNL     1       0.545  -0.127   7.880  0.00  0.00    +0.153 HD
ENDROOT
BRANCH  14  17
ATOM     17  C   UNL     1       1.394   2.186   4.141  0.00  0.00    -0.035 A 
ATOM     18  C   UNL     1       2.518   1.946   4.910  0.00  0.00    +0.005 A 
ATOM     19  C   UNL     1       3.749   2.417   4.504  0.00  0.00    +0.015 A 
ATOM     20  C   UNL     1       3.859   3.137   3.313  0.00  0.00    +0.059 A 
ATOM     21  C   UNL     1       2.721   3.376   2.541  0.00  0.00    +0.015 A 
ATOM     22  C   UNL     1       1.496   2.894   2.957  0.00  0.00    +0.005 A 
BRANCH  20  23
ATOM     23  C   UNL     1       5.175   3.645   2.872  0.00  0.00    +0.339 C 
ATOM     24  O   UNL     1       6.163   3.436   3.546  0.00  0.00    -0.245 OA
BRANCH  23  25
ATOM     25  O   UNL     1       5.277   4.339   1.722  0.00  0.00    -0.464 OA
ATOM     26  C   UNL     1       6.580   4.800   1.357  0.00  0.00    +0.280 C 
ENDBRANCH  23  25
ENDBRANCH  20  23
ENDBRANCH  14  17
BRANCH   1  28
ATOM     27  N   UNL     1       1.196  -1.249   3.115  0.00  0.00    -0.281 N 
ATOM     28  C   UNL     1       0.083  -0.612   3.530  0.00  0.00    +0.247 C 
ATOM     29  O   UNL     1      -0.950  -0.713   2.892  0.00  0.00    -0.270 OA
ATOM     30  H   UNL     1       2.002  -1.215   3.653  0.00  0.00    +0.155 HD
BRANCH  27  37
ATOM     31  C   UNL     1       3.576  -1.273   1.555  0.00  0.00    +0.045 C 
ATOM     32  C   UNL     1       2.328  -1.996   1.117  0.00  0.00    -0.029 A 
ATOM     33  C   UNL     1       2.319  -2.701  -0.070  0.00  0.00    +0.005 A 
ATOM     34  C   UNL     1       1.174  -3.365  -0.473  0.00  0.00    +0.000 A 
ATOM     35  C   UNL     1       0.035  -3.323   0.311  0.00  0.00    +0.002 A 
ATOM     36  C   UNL     1       0.038  -2.619   1.499  0.00  0.00    +0.023 A 
ATOM     37  C   UNL     1       1.188  -1.957   1.909  0.00  0.00    +0.037 A 
ENDBRANCH  27  37
ENDBRANCH   1  28
TORSDOF 5
