REMARK  Name = ZINC65200164
REMARK  6 active torsions:
REMARK  status: ('A' for Active; 'I' for Inactive)
REMARK    1  A    between atoms: C_1  and  C_2
REMARK    2  A    between atoms: C_7  and  C_12
REMARK    3  A    between atoms: N_14  and  N_15
REMARK    4  A    between atoms: N_18  and  C_19
REMARK    5  A    between atoms: C_19  and  C_20
REMARK    6  A    between atoms: C_20  and  C_21
REMARK                            x       y       z     vdW  Elec       q    Type
REMARK                         _______ _______ _______ _____ _____    ______ ____
ROOT
ATOM      1  C   UNL     1       0.089  -5.558   2.350  0.00  0.00    +0.276 C 
ATOM      2  O   UNL     1       0.101  -6.611   1.742  0.00  0.00    -0.267 OA
ATOM      3  N   UNL     1       0.095  -5.558   3.698  0.00  0.00    -0.228 N 
ATOM      4  H   UNL     1       0.085  -4.718   4.183  0.00  0.00    +0.173 HD
ENDROOT
BRANCH   1  11
ATOM      5  C   UNL     1      -0.018   1.503   0.010  0.00  0.00    +0.044 C 
ATOM      6  C   UNL     1       0.002  -0.004   0.002  0.00  0.00    -0.048 A 
ATOM      7  C   UNL     1       0.006  -0.685  -1.209  0.00  0.00    +0.004 A 
ATOM      8  C   UNL     1       0.024  -2.049  -1.239  0.00  0.00    +0.010 A 
ATOM      9  C   UNL     1       0.040  -2.772  -0.039  0.00  0.00    +0.000 A 
ATOM     10  C   UNL     1       0.060  -4.156   0.262  0.00  0.00    +0.041 A 
ATOM     11  C   UNL     1       0.068  -4.284   1.615  0.00  0.00    +0.104 A 
ATOM     12  N   UNL     1       0.053  -3.028   2.189  0.00  0.00    -0.351 N 
ATOM     13  H   UNL     1       0.056  -2.842   3.142  0.00  0.00    +0.166 HD
ATOM     14  C   UNL     1       0.036  -2.084   1.190  0.00  0.00    +0.047 A 
ATOM     15  C   UNL     1       0.023  -0.692   1.194  0.00  0.00    +0.029 A 
ENDBRANCH   1  11
BRANCH   3  16
ATOM     16  N   UNL     1       0.114  -6.771   4.398  0.00  0.00    -0.218 N 
ATOM     17  C   UNL     1       0.120  -6.771   5.746  0.00  0.00    +0.316 C 
ATOM     18  O   UNL     1       0.137  -7.824   6.354  0.00  0.00    -0.251 OA
ATOM     19  N   UNL     1       0.107  -5.604   6.420  0.00  0.00    -0.298 N 
ATOM     20  H   UNL     1       0.124  -7.611   3.913  0.00  0.00    +0.174 HD
ATOM     21  H   UNL     1       0.093  -4.764   5.935  0.00  0.00    +0.150 HD
BRANCH  19  22
ATOM     22  C   UNL     1       0.113  -5.604   7.885  0.00  0.00    +0.111 C 
BRANCH  22  23
ATOM     23  C   UNL     1       0.096  -4.162   8.395  0.00  0.00    +0.061 C 
BRANCH  23  24
ATOM     24  C   UNL     1       0.102  -4.162   9.902  0.00  0.00    -0.009 A 
ATOM     25  C   UNL     1       1.159  -4.141  10.751  0.00  0.00    +0.011 A 
ATOM     26  C   UNL     1       0.924  -4.145  12.113  0.00  0.00    +0.008 A 
ATOM     27  C   UNL     1      -0.355  -4.169  12.560  0.00  0.00    +0.045 A 
ATOM     28  S   UNL     1      -1.280  -4.180  11.032  0.00  0.00    -0.102 S 
ENDBRANCH  23  24
ENDBRANCH  22  23
ENDBRANCH  19  22
ENDBRANCH   3  16
TORSDOF 5
