REMARK  Name = ZINC15673687
REMARK  10 active torsions:
REMARK  status: ('A' for Active; 'I' for Inactive)
REMARK    1  A    between atoms: C_1  and  O_2
REMARK    2  A    between atoms: O_2  and  C_3
REMARK    3  A    between atoms: C_8  and  O_9
REMARK    4  A    between atoms: O_9  and  C_10
REMARK    5  A    between atoms: C_15  and  C_17
REMARK    6  A    between atoms: C_17  and  C_18
REMARK    7  A    between atoms: C_23  and  C_25
REMARK    8  A    between atoms: C_25  and  C_26
REMARK    9  A    between atoms: C_28  and  C_31
REMARK   10  A    between atoms: C_31  and  C_32
REMARK                            x       y       z     vdW  Elec       q    Type
REMARK                         _______ _______ _______ _____ _____    ______ ____
ROOT
ATOM      1  C   UNL     1       6.285   1.693  -5.673  0.00  0.00    -0.002 C 
ATOM      2  C   UNL     1       7.286   0.666  -5.137  0.00  0.00    -0.015 C 
ATOM      3  C   UNL     1       8.675   0.973  -5.700  0.00  0.00    -0.082 C 
ATOM      4  C   UNL     1       8.157   3.336  -5.846  0.00  0.00    -0.079 C 
ATOM      5  C   UNL     1       6.752   3.099  -5.287  0.00  0.00    -0.019 C 
ATOM      6  N   UNL     1       9.087   2.331  -5.296  0.00  0.00    +0.379 N 
ATOM      7  H   UNL     1      10.033   2.517  -5.649  0.00  0.00    -0.086 HD
ATOM      8  H   UNL     1       9.085   2.394  -4.271  0.00  0.00    -0.086 HD
ENDROOT
BRANCH   1   9
ATOM      9  C   UNL     1       4.905   1.428  -5.066  0.00  0.00    +0.099 C 
BRANCH   9  20
ATOM     10  C   UNL     1       0.663  -1.996  -1.132  0.00  0.00    +0.162 A 
ATOM     11  C   UNL     1       1.285  -2.598  -2.211  0.00  0.00    +0.053 A 
ATOM     12  C   UNL     1       1.853  -1.829  -3.219  0.00  0.00    -0.038 A 
ATOM     13  C   UNL     1       1.786  -0.455  -3.148  0.00  0.00    -0.023 A 
ATOM     14  C   UNL     1       1.163   0.154  -2.067  0.00  0.00    +0.054 A 
ATOM     15  C   UNL     1       0.606  -0.608  -1.056  0.00  0.00    +0.162 A 
ATOM     16  C   UNL     1       2.353   0.437  -4.225  0.00  0.00    +0.143 C 
ATOM     17  N   UNL     1       3.192  -0.354  -5.131  0.00  0.00    -0.297 N 
ATOM     18  C   UNL     1       2.667  -1.656  -5.575  0.00  0.00    +0.113 C 
ATOM     19  C   UNL     1       2.538  -2.555  -4.347  0.00  0.00    +0.054 C 
ATOM     20  C   UNL     1       4.396   0.091  -5.540  0.00  0.00    +0.216 C 
ATOM     21  O   UNL     1       5.070  -0.583  -6.290  0.00  0.00    -0.276 OA
BRANCH  10  23
ATOM     22  C   UNL     1       0.209  -4.175  -0.296  0.00  0.00    +0.277 C 
ATOM     23  O   UNL     1       0.111  -2.757  -0.150  0.00  0.00    -0.491 OA
ENDBRANCH  10  23
BRANCH  15  24
ATOM     24  O   UNL     1       0.002  -0.004   0.002  0.00  0.00    -0.491 OA
ATOM     25  C   UNL     1      -0.017   1.425   0.010  0.00  0.00    +0.277 C 
ENDBRANCH  15  24
ENDBRANCH   9  20
ENDBRANCH   1   9
BRANCH   5  26
ATOM     26  C   UNL     1       6.780   3.228  -3.763  0.00  0.00    +0.061 C 
BRANCH  26  27
ATOM     27  C   UNL     1       7.122   4.646  -3.385  0.00  0.00    +0.084 A 
ATOM     28  C   UNL     1       6.370   5.504  -2.549  0.00  0.00    +0.071 A 
ATOM     29  C   UNL     1       7.091   6.650  -2.523  0.00  0.00    +0.138 A 
ATOM     30  O   UNL     1       8.165   6.441  -3.298  0.00  0.00    -0.359 OA
ATOM     31  N   UNL     1       8.164   5.326  -3.766  0.00  0.00    -0.083 NA
BRANCH  29  32
ATOM     32  C   UNL     1       6.751   7.913  -1.774  0.00  0.00    +0.080 C 
BRANCH  32  33
ATOM     33  C   UNL     1       7.369   7.859  -0.376  0.00  0.00    -0.004 C 
ATOM     34  C   UNL     1       6.721   6.728   0.425  0.00  0.00    +0.004 C 
ATOM     35  C   UNL     1       7.339   6.674   1.823  0.00  0.00    +0.000 C 
ATOM     36  C   UNL     1       7.101   8.006   2.538  0.00  0.00    +0.000 C 
ATOM     37  C   UNL     1       7.748   9.137   1.737  0.00  0.00    +0.000 C 
ATOM     38  C   UNL     1       7.130   9.191   0.339  0.00  0.00    +0.004 C 
ENDBRANCH  32  33
ENDBRANCH  29  32
ENDBRANCH  26  27
ENDBRANCH   5  26
TORSDOF 8
