REMARK  Name = ZINC16631012
REMARK  9 active torsions:
REMARK  status: ('A' for Active; 'I' for Inactive)
REMARK    1  A    between atoms: C_4  and  C_7
REMARK    2  A    between atoms: C_7  and  N_8
REMARK    3  A    between atoms: C_9  and  C_30
REMARK    4  A    between atoms: C_12  and  S_13
REMARK    5  A    between atoms: S_13  and  C_14
REMARK    6  A    between atoms: C_14  and  C_15
REMARK    7  A    between atoms: C_15  and  C_17
REMARK    8  A    between atoms: C_18  and  N_29
REMARK    9  A    between atoms: N_19  and  C_26
REMARK                            x       y       z     vdW  Elec       q    Type
REMARK                         _______ _______ _______ _____ _____    ______ ____
ROOT
ATOM      1  N   UNL     1      -5.205   1.150   0.297  0.00  0.00    -0.298 N 
ATOM      2  C   UNL     1      -6.021   2.251   0.178  0.00  0.00    +0.165 A 
ATOM      3  N   UNL     1      -5.267   3.248  -0.221  0.00  0.00    -0.128 NA
ATOM      4  N   UNL     1      -4.051   2.854  -0.352  0.00  0.00    -0.122 NA
ATOM      5  C   UNL     1      -3.956   1.578  -0.054  0.00  0.00    +0.193 A 
ENDROOT
BRANCH   2   6
ATOM      6  C   UNL     1      -7.474   2.300   0.448  0.00  0.00    +0.019 A 
ATOM      7  C   UNL     1      -8.283   1.207   0.135  0.00  0.00    +0.014 A 
ATOM      8  C   UNL     1      -9.636   1.257   0.393  0.00  0.00    +0.039 A 
ATOM      9  C   UNL     1     -10.196   2.394   0.954  0.00  0.00    +0.123 A 
ATOM     10  C   UNL     1      -9.398   3.485   1.262  0.00  0.00    +0.039 A 
ATOM     11  C   UNL     1      -8.043   3.444   1.012  0.00  0.00    +0.014 A 
ATOM     12  F   UNL     1     -11.523   2.440   1.200  0.00  0.00    -0.205 F 
ENDBRANCH   2   6
BRANCH   1  13
ATOM     13  C   UNL     1      -5.593  -0.200   0.714  0.00  0.00    +0.161 C 
BRANCH  13  17
ATOM     14  C   UNL     1      -5.582  -0.433   4.979  0.00  0.00    +0.000 A 
ATOM     15  C   UNL     1      -6.732  -0.057   4.311  0.00  0.00    +0.000 A 
ATOM     16  C   UNL     1      -6.736   0.018   2.931  0.00  0.00    +0.005 A 
ATOM     17  C   UNL     1      -5.589  -0.281   2.219  0.00  0.00    -0.028 A 
ATOM     18  C   UNL     1      -4.440  -0.662   2.887  0.00  0.00    +0.005 A 
ATOM     19  C   UNL     1      -4.435  -0.732   4.268  0.00  0.00    +0.000 A 
ENDBRANCH  13  17
ENDBRANCH   1  13
BRANCH   5  20
ATOM     20  S   UNL     1      -2.489   0.603  -0.092  0.00  0.00    -0.078 S 
BRANCH  20  21
ATOM     21  C   UNL     1      -1.297   1.849  -0.639  0.00  0.00    +0.157 C 
BRANCH  21  22
ATOM     22  C   UNL     1       0.070   1.224  -0.747  0.00  0.00    +0.182 C 
ATOM     23  O   UNL     1       0.224   0.049  -0.479  0.00  0.00    -0.291 OA
BRANCH  22  24
ATOM     24  C   UNL     1       1.171   2.002  -1.164  0.00  0.00    +0.120 A 
ATOM     25  C   UNL     1       2.475   1.477  -1.156  0.00  0.00    +0.116 A 
ATOM     26  N   UNL     1       3.508   2.267  -1.573  0.00  0.00    -0.278 N 
ATOM     27  C   UNL     1       3.301   3.530  -1.978  0.00  0.00    +0.331 A 
ATOM     28  O   UNL     1       4.254   4.194  -2.335  0.00  0.00    -0.246 OA
ATOM     29  N   UNL     1       2.079   4.087  -2.002  0.00  0.00    -0.274 N 
ATOM     30  H   UNL     1       1.974   5.032  -2.311  0.00  0.00    +0.173 HD
ATOM     31  C   UNL     1       0.993   3.388  -1.614  0.00  0.00    +0.266 A 
ATOM     32  O   UNL     1      -0.113   3.896  -1.637  0.00  0.00    -0.267 OA
BRANCH  26  33
ATOM     33  C   UNL     1       4.870   1.727  -1.575  0.00  0.00    +0.094 C 
ATOM     34  C   UNL     1       5.703   1.914  -2.844  0.00  0.00    +0.027 C 
ATOM     35  C   UNL     1       5.155   0.531  -2.485  0.00  0.00    +0.027 C 
ENDBRANCH  26  33
BRANCH  25  36
ATOM     36  N   UNL     1       2.704   0.200  -0.745  0.00  0.00    -0.344 N 
ATOM     37  H   UNL     1       1.958  -0.387  -0.547  0.00  0.00    +0.144 HD
ATOM     38  H   UNL     1       3.614  -0.122  -0.648  0.00  0.00    +0.144 HD
ENDBRANCH  25  36
ENDBRANCH  22  24
ENDBRANCH  21  22
ENDBRANCH  20  21
ENDBRANCH   5  20
TORSDOF 9
