REMARK  Name = ZINC36122914
REMARK  13 active torsions:
REMARK  status: ('A' for Active; 'I' for Inactive)
REMARK    1  A    between atoms: C_1  and  C_2
REMARK    2  A    between atoms: C_2  and  C_3
REMARK    3  A    between atoms: C_3  and  C_5
REMARK    4  A    between atoms: C_3  and  C_6
REMARK    5  A    between atoms: C_6  and  N_7
REMARK    6  A    between atoms: N_7  and  C_8
REMARK    7  A    between atoms: C_8  and  C_9
REMARK    8  A    between atoms: C_19  and  C_21
REMARK    9  A    between atoms: C_21  and  O_22
REMARK   10  A    between atoms: O_22  and  C_23
REMARK   11  A    between atoms: C_26  and  C_29
REMARK   12  A    between atoms: N_32  and  C_33
REMARK   13  A    between atoms: C_36  and  C_39
REMARK                            x       y       z     vdW  Elec       q    Type
REMARK                         _______ _______ _______ _____ _____    ______ ____
ROOT
ATOM      1  C   UNL     1      -2.859  -4.388  -1.987  0.00  0.00    +0.234 C 
ATOM      2  O   UNL     1      -2.131  -5.041  -1.270  0.00  0.00    -0.274 OA
ATOM      3  N   UNL     1      -3.259  -4.887  -3.174  0.00  0.00    -0.289 N 
ATOM      4  C   UNL     1      -4.136  -4.102  -4.055  0.00  0.00    +0.114 C 
ATOM      5  C   UNL     1      -3.361  -3.774  -5.340  0.00  0.00    +0.061 C 
ATOM      6  C   UNL     1      -2.623  -4.996  -5.779  0.00  0.00    -0.004 A 
ATOM      7  C   UNL     1      -2.348  -6.113  -5.053  0.00  0.00    -0.014 A 
ATOM      8  C   UNL     1      -1.630  -7.119  -5.699  0.00  0.00    +0.013 A 
ATOM      9  C   UNL     1      -1.249  -6.958  -6.986  0.00  0.00    +0.046 A 
ATOM     10  S   UNL     1      -1.900  -5.337  -7.363  0.00  0.00    -0.101 S 
ATOM     11  C   UNL     1      -2.819  -6.220  -3.608  0.00  0.00    +0.144 C 
ENDROOT
BRANCH   1  12
ATOM     12  C   UNL     1      -3.316  -3.020  -1.552  0.00  0.00    +0.205 C 
BRANCH  12  13
ATOM     13  N   UNL     1      -2.749  -2.711  -0.237  0.00  0.00    -0.276 N 
ATOM     14  C   UNL     1      -3.422  -3.044   0.882  0.00  0.00    +0.307 C 
ATOM     15  O   UNL     1      -4.500  -3.602   0.800  0.00  0.00    -0.252 OA
ATOM     16  N   UNL     1      -2.901  -2.760   2.092  0.00  0.00    -0.269 N 
ATOM     17  H   UNL     1      -2.008  -2.386   2.159  0.00  0.00    +0.156 HD
BRANCH  16  18
ATOM     18  C   UNL     1      -3.647  -3.003   3.250  0.00  0.00    +0.035 A 
ATOM     19  C   UNL     1      -3.007  -3.381   4.424  0.00  0.00    +0.023 A 
ATOM     20  C   UNL     1      -3.747  -3.620   5.565  0.00  0.00    +0.005 A 
ATOM     21  C   UNL     1      -5.122  -3.484   5.541  0.00  0.00    -0.050 A 
ATOM     22  C   UNL     1      -5.762  -3.108   4.374  0.00  0.00    +0.005 A 
ATOM     23  C   UNL     1      -5.028  -2.862   3.231  0.00  0.00    +0.023 A 
ATOM     24  C   UNL     1      -5.926  -3.745   6.789  0.00  0.00    +0.044 C 
ENDBRANCH  16  18
BRANCH  13  25
ATOM     25  C   UNL     1      -1.451  -2.039  -0.139  0.00  0.00    +0.113 C 
BRANCH  25  26
ATOM     26  C   UNL     1      -1.661  -0.524  -0.120  0.00  0.00    +0.003 C 
ATOM     27  C   UNL     1      -2.418  -0.129   1.149  0.00  0.00    +0.009 C 
BRANCH  26  29
ATOM     28  C   UNL     1      -0.512   1.691  -0.251  0.00  0.00    +0.004 C 
ATOM     29  C   UNL     1      -0.302   0.179  -0.143  0.00  0.00    +0.001 C 
ENDBRANCH  26  29
ENDBRANCH  25  26
ENDBRANCH  13  25
ENDBRANCH  12  13
ENDBRANCH   1  12
BRANCH  11  30
ATOM     30  C   UNL     1      -3.987  -7.205  -3.520  0.00  0.00    +0.256 C 
BRANCH  30  31
ATOM     31  O   UNL     1      -5.002  -6.824  -4.450  0.00  0.00    -0.490 OA
BRANCH  31  32
ATOM     32  C   UNL     1      -6.117  -7.600  -4.499  0.00  0.00    +0.121 A 
ATOM     33  C   UNL     1      -6.233  -8.703  -3.665  0.00  0.00    +0.046 A 
ATOM     34  C   UNL     1      -7.366  -9.490  -3.716  0.00  0.00    +0.007 A 
ATOM     35  C   UNL     1      -8.385  -9.181  -4.599  0.00  0.00    -0.050 A 
ATOM     36  C   UNL     1      -8.272  -8.083  -5.431  0.00  0.00    +0.007 A 
ATOM     37  C   UNL     1      -7.143  -7.289  -5.380  0.00  0.00    +0.046 A 
ATOM     38  C   UNL     1      -9.621 -10.042  -4.653  0.00  0.00    +0.044 C 
ENDBRANCH  31  32
ENDBRANCH  30  31
ENDBRANCH  11  30
TORSDOF 9
