REMARK  Name = ZINC21705446
REMARK  9 active torsions:
REMARK  status: ('A' for Active; 'I' for Inactive)
REMARK    1  A    between atoms: C_1  and  C_2
REMARK    2  A    between atoms: C_2  and  N_3
REMARK    3  A    between atoms: N_3  and  C_4
REMARK    4  A    between atoms: C_14  and  C_16
REMARK    5  A    between atoms: C_16  and  N_17
REMARK    6  A    between atoms: C_20  and  C_24
REMARK    7  A    between atoms: C_20  and  C_25
REMARK    8  A    between atoms: C_28  and  O_31
REMARK    9  A    between atoms: O_31  and  C_32
REMARK                            x       y       z     vdW  Elec       q    Type
REMARK                         _______ _______ _______ _____ _____    ______ ____
ROOT
ATOM      1  N   UNL     1       0.689  -5.500  -1.845  0.00  0.00    -0.215 N 
ATOM      2  C   UNL     1       1.231  -4.790  -0.836  0.00  0.00    +0.251 C 
ATOM      3  O   UNL     1       2.409  -4.600  -0.625  0.00  0.00    -0.272 OA
ATOM      4  C   UNL     1       0.060  -4.277  -0.021  0.00  0.00    +0.135 C 
ATOM      5  N   UNL     1      -1.116  -4.807  -0.733  0.00  0.00    -0.281 N 
ATOM      6  C   UNL     1      -0.648  -5.507  -1.782  0.00  0.00    +0.310 C 
ATOM      7  O   UNL     1      -1.359  -6.081  -2.583  0.00  0.00    -0.252 OA
ATOM      8  C   UNL     1       0.115  -4.821   1.408  0.00  0.00    +0.047 C 
ATOM      9  H   UNL     1      -2.128  -4.591  -0.360  0.00  0.00    +0.152 HD
ENDROOT
BRANCH   4  10
ATOM     10  C   UNL     1       0.040  -2.770  -0.013  0.00  0.00    -0.015 A 
ATOM     11  C   UNL     1      -1.168  -2.096   0.002  0.00  0.00    +0.010 A 
ATOM     12  C   UNL     1      -1.189  -0.715   0.010  0.00  0.00    +0.046 A 
ATOM     13  C   UNL     1       0.002  -0.004   0.002  0.00  0.00    +0.120 A 
ATOM     14  C   UNL     1       1.212  -0.682  -0.019  0.00  0.00    +0.046 A 
ATOM     15  C   UNL     1       1.228  -2.064  -0.021  0.00  0.00    +0.010 A 
BRANCH  13  16
ATOM     16  O   UNL     1      -0.016   1.355   0.009  0.00  0.00    -0.495 OA
ATOM     17  C   UNL     1       1.248   2.021   0.001  0.00  0.00    +0.277 C 
ENDBRANCH  13  16
ENDBRANCH   4  10
BRANCH   1  18
ATOM     18  C   UNL     1       1.467  -6.180  -2.884  0.00  0.00    +0.214 C 
BRANCH  18  20
ATOM     19  N   UNL     1       2.385  -5.652  -5.119  0.00  0.00    -0.270 N 
ATOM     20  C   UNL     1       1.689  -5.240  -4.041  0.00  0.00    +0.238 C 
ATOM     21  O   UNL     1       1.241  -4.114  -4.002  0.00  0.00    -0.274 OA
BRANCH  19  22
ATOM     22  C   UNL     1       2.591  -4.781  -6.191  0.00  0.00    +0.044 A 
ATOM     23  C   UNL     1       3.701  -3.965  -6.221  0.00  0.00    +0.024 A 
ATOM     24  C   UNL     1       3.916  -3.095  -7.285  0.00  0.00    +0.002 A 
ATOM     25  C   UNL     1       3.038  -3.024  -8.324  0.00  0.00    +0.008 A 
ATOM     26  C   UNL     1       1.894  -3.839  -8.332  0.00  0.00    -0.016 A 
ATOM     27  C   UNL     1       1.667  -4.734  -7.257  0.00  0.00    +0.004 A 
ATOM     28  C   UNL     1       0.526  -5.552  -7.270  0.00  0.00    +0.010 A 
ATOM     29  C   UNL     1      -0.343  -5.479  -8.315  0.00  0.00    +0.001 A 
ATOM     30  C   UNL     1      -0.119  -4.603  -9.375  0.00  0.00    +0.001 A 
ATOM     31  C   UNL     1       0.971  -3.788  -9.391  0.00  0.00    +0.008 A 
ENDBRANCH  19  22
BRANCH  19  33
ATOM     32  C   UNL     1       1.892  -7.950  -5.795  0.00  0.00    +0.025 C 
ATOM     33  C   UNL     1       2.925  -7.013  -5.167  0.00  0.00    +0.110 C 
ENDBRANCH  19  33
ENDBRANCH  18  20
ENDBRANCH   1  18
TORSDOF 6
