REMARK  Name = ZINC44135419
REMARK  7 active torsions:
REMARK  status: ('A' for Active; 'I' for Inactive)
REMARK    1  A    between atoms: C_1  and  C_2
REMARK    2  A    between atoms: C_2  and  C_3
REMARK    3  A    between atoms: C_2  and  C_4
REMARK    4  A    between atoms: C_2  and  O_5
REMARK    5  A    between atoms: O_5  and  C_6
REMARK    6  A    between atoms: C_13  and  C_15
REMARK    7  A    between atoms: C_20  and  N_21
REMARK                            x       y       z     vdW  Elec       q    Type
REMARK                         _______ _______ _______ _____ _____    ______ ____
ROOT
ATOM      1  C   UNL     1       2.244  -0.616  -1.087  0.00  0.00    +0.404 C 
ATOM      2  O   UNL     1       2.751   0.122  -0.265  0.00  0.00    -0.226 OA
ATOM      3  N   UNL     1       2.825  -0.783  -2.292  0.00  0.00    -0.260 N 
ATOM      4  C   UNL     1       2.289  -1.757  -3.252  0.00  0.00    +0.112 C 
ATOM      5  C   UNL     1       3.420  -2.695  -3.687  0.00  0.00    +0.019 C 
ATOM      6  C   UNL     1       4.589  -1.864  -4.220  0.00  0.00    +0.004 C 
ATOM      7  C   UNL     1       5.117  -0.952  -3.111  0.00  0.00    +0.027 C 
ATOM      8  C   UNL     1       4.002   0.009  -2.672  0.00  0.00    +0.111 C 
ENDROOT
BRANCH   8   9
ATOM      9  C   UNL     1       4.468   0.820  -1.490  0.00  0.00    -0.006 A 
ATOM     10  C   UNL     1       5.461   0.332  -0.664  0.00  0.00    +0.007 A 
ATOM     11  C   UNL     1       5.889   1.075   0.420  0.00  0.00    +0.000 A 
ATOM     12  C   UNL     1       5.324   2.310   0.682  0.00  0.00    +0.002 A 
ATOM     13  C   UNL     1       4.331   2.805  -0.140  0.00  0.00    +0.023 A 
ATOM     14  C   UNL     1       3.903   2.063  -1.234  0.00  0.00    +0.030 A 
BRANCH  14  15
ATOM     15  N   UNL     1       2.902   2.562  -2.070  0.00  0.00    -0.358 N 
ATOM     16  H   UNL     1       2.601   2.042  -2.831  0.00  0.00    +0.142 HD
ATOM     17  H   UNL     1       2.508   3.430  -1.890  0.00  0.00    +0.142 HD
ENDBRANCH  14  15
ENDBRANCH   8   9
BRANCH   1  18
ATOM     18  O   UNL     1       1.102  -1.266  -0.794  0.00  0.00    -0.445 OA
BRANCH  18  20
ATOM     19  C   UNL     1       0.223   0.445   0.668  0.00  0.00    +0.055 C 
ATOM     20  C   UNL     1       0.542  -1.042   0.501  0.00  0.00    +0.107 C 
ATOM     21  C   UNL     1       1.546  -1.472   1.573  0.00  0.00    +0.055 C 
ATOM     22  C   UNL     1      -0.743  -1.859   0.650  0.00  0.00    +0.055 C 
ENDBRANCH  18  20
ENDBRANCH   1  18
TORSDOF 4
