REMARK  Name = ZINC66076817
REMARK  5 active torsions:
REMARK  status: ('A' for Active; 'I' for Inactive)
REMARK    1  A    between atoms: C_1  and  C_2
REMARK    2  A    between atoms: C_7  and  C_8
REMARK    3  A    between atoms: C_10  and  C_26
REMARK    4  A    between atoms: N_12  and  C_13
REMARK    5  A    between atoms: C_13  and  N_14
REMARK                            x       y       z     vdW  Elec       q    Type
REMARK                         _______ _______ _______ _____ _____    ______ ____
ROOT
ATOM      1  C   UNL     1       0.028   0.019   2.494  0.00  0.00    +0.160 A 
ATOM      2  N   UNL     1       0.097   1.326   2.646  0.00  0.00    -0.211 NA
ATOM      3  C   UNL     1       0.070   1.629   3.941  0.00  0.00    +0.149 A 
ATOM      4  N   UNL     1      -0.016   0.526   4.639  0.00  0.00    -0.154 NA
ATOM      5  N   UNL     1      -0.051  -0.538   3.724  0.00  0.00    -0.230 N 
ATOM      6  C   UNL     1       0.130   3.022   4.513  0.00  0.00    +0.090 C 
ENDROOT
BRANCH   1  13
ATOM      7  C   UNL     1      -1.733   0.871   0.363  0.00  0.00    +0.044 C 
ATOM      8  C   UNL     1      -0.814  -0.308   0.172  0.00  0.00    -0.040 A 
ATOM      9  C   UNL     1      -0.803  -0.988  -1.029  0.00  0.00    +0.004 A 
ATOM     10  C   UNL     1       0.040  -2.070  -1.206  0.00  0.00    +0.000 A 
ATOM     11  C   UNL     1       0.877  -2.477  -0.183  0.00  0.00    +0.001 A 
ATOM     12  C   UNL     1       0.875  -1.806   1.022  0.00  0.00    +0.012 A 
ATOM     13  C   UNL     1       0.031  -0.710   1.205  0.00  0.00    +0.022 A 
ENDBRANCH   1  13
BRANCH   5  14
ATOM     14  C   UNL     1      -0.151  -1.965   4.038  0.00  0.00    +0.232 C 
BRANCH  14  15
ATOM     15  N   UNL     1       1.189  -2.502   4.307  0.00  0.00    -0.276 NA
ATOM     16  C   UNL     1       1.751  -1.925   5.538  0.00  0.00    +0.114 C 
ATOM     17  C   UNL     1       3.164  -2.472   5.759  0.00  0.00    +0.175 C 
ATOM     18  O   UNL     1       3.123  -3.902   5.796  0.00  0.00    -0.374 OA
ATOM     19  C   UNL     1       2.587  -4.486   4.607  0.00  0.00    +0.135 C 
ATOM     20  C   UNL     1       1.161  -3.968   4.393  0.00  0.00    +0.087 C 
ATOM     21  C   UNL     1       0.599  -4.560   3.100  0.00  0.00    +0.021 C 
ATOM     22  C   UNL     1       0.570  -6.086   3.215  0.00  0.00    +0.002 C 
ATOM     23  C   UNL     1       1.987  -6.612   3.449  0.00  0.00    +0.003 C 
ATOM     24  C   UNL     1       2.554  -6.009   4.736  0.00  0.00    +0.033 C 
ENDBRANCH  14  15
ENDBRANCH   5  14
TORSDOF 3
