REMARK  Name = ZINC00828288
REMARK  6 active torsions:
REMARK  status: ('A' for Active; 'I' for Inactive)
REMARK    1  A    between atoms: C_8  and  C_21
REMARK    2  A    between atoms: N_9  and  S_10
REMARK    3  A    between atoms: S_10  and  C_13
REMARK    4  A    between atoms: C_21  and  N_22
REMARK    5  A    between atoms: N_22  and  S_23
REMARK    6  A    between atoms: S_23  and  C_26
REMARK                            x       y       z     vdW  Elec       q    Type
REMARK                         _______ _______ _______ _____ _____    ______ ____
ROOT
ATOM      1  C   UNL     1      -3.232   2.373   4.908  0.00  0.00    +0.002 A 
ATOM      2  C   UNL     1      -2.465   3.529   4.939  0.00  0.00    +0.002 A 
ATOM      3  C   UNL     1      -1.504   3.756   3.978  0.00  0.00    +0.030 A 
ATOM      4  C   UNL     1      -1.304   2.821   2.971  0.00  0.00    +0.092 A 
ATOM      5  C   UNL     1      -2.080   1.651   2.940  0.00  0.00    +0.091 A 
ATOM      6  C   UNL     1      -3.048   1.441   3.926  0.00  0.00    +0.030 A 
ATOM      7  N   UNL     1      -1.671   0.933   1.862  0.00  0.00    -0.229 NA
ATOM      8  C   UNL     1      -0.718   1.572   1.248  0.00  0.00    +0.147 A 
ATOM      9  N   UNL     1      -0.448   2.740   1.891  0.00  0.00    -0.194 N 
ENDROOT
BRANCH   9  10
ATOM     10  S   UNL     1       0.694   3.858   1.457  0.00  0.00    +0.086 S 
ATOM     11  O   UNL     1       1.022   4.582   2.635  0.00  0.00    -0.148 OA
ATOM     12  O   UNL     1       1.671   3.165   0.692  0.00  0.00    -0.148 OA
BRANCH  10  13
ATOM     13  C   UNL     1      -0.084   5.000   0.364  0.00  0.00    +0.113 A 
ATOM     14  C   UNL     1      -0.702   6.129   0.869  0.00  0.00    +0.030 A 
ATOM     15  C   UNL     1      -1.312   7.025   0.013  0.00  0.00    +0.023 A 
ATOM     16  C   UNL     1      -1.306   6.793  -1.351  0.00  0.00    +0.059 A 
ATOM     17  C   UNL     1      -0.687   5.663  -1.857  0.00  0.00    +0.061 A 
ATOM     18  C   UNL     1      -0.072   4.769  -0.999  0.00  0.00    +0.050 A 
ATOM     19 CL   UNL     1      -0.678   5.370  -3.568  0.00  0.00    -0.082 Cl
ATOM     20 CL   UNL     1      -2.073   7.919  -2.427  0.00  0.00    -0.082 Cl
ENDBRANCH  10  13
ENDBRANCH   9  10
BRANCH   8  21
ATOM     21  C   UNL     1      -0.013   1.086   0.008  0.00  0.00    +0.181 C 
BRANCH  21  22
ATOM     22  N   UNL     1      -0.721   1.571  -1.179  0.00  0.00    -0.183 NA
ATOM     23  H   UNL     1      -1.621   1.925  -1.096  0.00  0.00    +0.148 HD
BRANCH  22  24
ATOM     24  S   UNL     1       0.013   1.515  -2.662  0.00  0.00    +0.059 S 
ATOM     25  O   UNL     1      -0.926   2.024  -3.599  0.00  0.00    -0.153 OA
ATOM     26  O   UNL     1       1.306   2.080  -2.496  0.00  0.00    -0.153 OA
BRANCH  24  27
ATOM     27  C   UNL     1       0.253  -0.184  -3.061  0.00  0.00    +0.107 A 
ATOM     28  C   UNL     1       1.423  -0.822  -2.692  0.00  0.00    +0.030 A 
ATOM     29  C   UNL     1       1.609  -2.157  -3.000  0.00  0.00    +0.023 A 
ATOM     30  C   UNL     1       0.630  -2.852  -3.687  0.00  0.00    +0.059 A 
ATOM     31  C   UNL     1      -0.539  -2.211  -4.061  0.00  0.00    +0.061 A 
ATOM     32  C   UNL     1      -0.726  -0.877  -3.748  0.00  0.00    +0.050 A 
ATOM     33 CL   UNL     1      -1.768  -3.082  -4.923  0.00  0.00    -0.082 Cl
ATOM     34 CL   UNL     1       0.867  -4.526  -4.079  0.00  0.00    -0.082 Cl
ENDBRANCH  24  27
ENDBRANCH  22  24
ENDBRANCH  21  22
ENDBRANCH   8  21
TORSDOF 6
