REMARK  Name = ZINC09251229
REMARK  8 active torsions:
REMARK  status: ('A' for Active; 'I' for Inactive)
REMARK    1  A    between atoms: C_1  and  C_2
REMARK    2  A    between atoms: C_2  and  C_3
REMARK    3  A    between atoms: C_3  and  C_4
REMARK    4  A    between atoms: C_3  and  C_6
REMARK    5  A    between atoms: C_4  and  C_5
REMARK    6  A    between atoms: N_8  and  C_9
REMARK    7  A    between atoms: C_17  and  C_18
REMARK    8  A    between atoms: N_23  and  C_26
REMARK                            x       y       z     vdW  Elec       q    Type
REMARK                         _______ _______ _______ _____ _____    ______ ____
ROOT
ATOM      1  C   UNL     1       1.045   9.689  -3.691  0.00  0.00    +0.092 A 
ATOM      2  C   UNL     1      -0.386   9.899  -3.939  0.00  0.00    +0.042 A 
ATOM      3  C   UNL     1      -1.145  10.982  -4.385  0.00  0.00    +0.013 A 
ATOM      4  C   UNL     1      -2.499  10.854  -4.514  0.00  0.00    +0.001 A 
ATOM      5  C   UNL     1      -3.124   9.653  -4.204  0.00  0.00    +0.004 A 
ATOM      6  C   UNL     1      -2.392   8.573  -3.762  0.00  0.00    +0.047 A 
ATOM      7  C   UNL     1      -1.012   8.681  -3.623  0.00  0.00    +0.138 A 
ATOM      8  O   UNL     1      -0.057   7.816  -3.229  0.00  0.00    -0.448 OA
ATOM      9  C   UNL     1       1.164   8.397  -3.257  0.00  0.00    +0.212 A 
ENDROOT
BRANCH   9  10
ATOM     10  C   UNL     1       2.418   7.743  -2.887  0.00  0.00    +0.284 C 
ATOM     11  O   UNL     1       3.111   7.227  -3.745  0.00  0.00    -0.267 OA
ATOM     12  N   UNL     1       2.806   7.711  -1.597  0.00  0.00    -0.292 N 
ATOM     13  C   UNL     1       4.006   6.965  -1.188  0.00  0.00    +0.127 C 
ATOM     14  C   UNL     1       3.633   6.045  -0.021  0.00  0.00    +0.125 C 
ATOM     15  N   UNL     1       3.003   6.839   1.042  0.00  0.00    -0.314 N 
ATOM     16  C   UNL     1       1.746   7.444   0.582  0.00  0.00    +0.125 C 
ATOM     17  C   UNL     1       2.042   8.421  -0.561  0.00  0.00    +0.127 C 
BRANCH  15  18
ATOM     18  C   UNL     1       2.798   6.072   2.183  0.00  0.00    +0.099 A 
ATOM     19  C   UNL     1       2.210   6.647   3.305  0.00  0.00    +0.042 A 
ATOM     20  C   UNL     1       2.008   5.870   4.431  0.00  0.00    +0.005 A 
ATOM     21  C   UNL     1       2.411   4.541   4.401  0.00  0.00    +0.018 A 
ATOM     22  C   UNL     1       2.989   4.036   3.254  0.00  0.00    +0.084 A 
ATOM     23  N   UNL     1       3.198   4.768   2.127  0.00  0.00    -0.350 N 
ATOM     24  H   UNL     1       3.630   4.366   1.287  0.00  0.00    +0.166 HD
ENDBRANCH  15  18
ENDBRANCH   9  10
BRANCH   1  27
ATOM     25  C   UNL     1       1.938  11.607  -4.761  0.00  0.00    +0.220 C 
ATOM     26  O   UNL     1       0.949  11.663  -5.462  0.00  0.00    -0.275 OA
ATOM     27  N   UNL     1       2.070  10.612  -3.861  0.00  0.00    -0.282 N 
ATOM     28  H   UNL     1       2.880  10.541  -3.333  0.00  0.00    +0.155 HD
BRANCH  25  29
ATOM     29  C   UNL     1       3.018  12.648  -4.898  0.00  0.00    +0.075 C 
BRANCH  29  31
ATOM     30  C   UNL     1       3.868  14.526  -6.310  0.00  0.00    +0.004 C 
ATOM     31  C   UNL     1       2.710  13.549  -6.096  0.00  0.00    +0.009 C 
ENDBRANCH  29  31
BRANCH  29  32
ATOM     32  C   UNL     1       3.076  13.493  -3.625  0.00  0.00    +0.009 C 
ATOM     33  C   UNL     1       3.452  12.604  -2.438  0.00  0.00    +0.004 C 
ENDBRANCH  29  32
ENDBRANCH  25  29
ENDBRANCH   1  27
TORSDOF 6
