REMARK  Name = ZINC11427933
REMARK  9 active torsions:
REMARK  status: ('A' for Active; 'I' for Inactive)
REMARK    1  A    between atoms: C_1  and  N_2
REMARK    2  A    between atoms: N_2  and  C_3
REMARK    3  A    between atoms: C_3  and  C_4
REMARK    4  A    between atoms: N_6  and  C_7
REMARK    5  A    between atoms: C_12  and  C_13
REMARK    6  A    between atoms: C_17  and  C_19
REMARK    7  A    between atoms: C_19  and  S_20
REMARK    8  A    between atoms: S_20  and  C_21
REMARK    9  A    between atoms: N_25  and  C_26
REMARK                            x       y       z     vdW  Elec       q    Type
REMARK                         _______ _______ _______ _____ _____    ______ ____
ROOT
ATOM      1  C   UNL     1       4.406   3.159  -0.013  0.00  0.00    +0.132 C 
ATOM      2  N   UNL     1       3.260   4.072  -0.006  0.00  0.00    -0.295 N 
ATOM      3  C   UNL     1       2.006   3.579  -0.004  0.00  0.00    +0.226 C 
ATOM      4  O   UNL     1       1.057   4.334   0.001  0.00  0.00    -0.275 OA
ENDROOT
BRANCH   2   5
ATOM      5  C   UNL     1       3.478   5.521  -0.001  0.00  0.00    +0.203 C 
BRANCH   5   6
ATOM      6  C   UNL     1       3.556   6.012   1.422  0.00  0.00    +0.235 C 
ATOM      7  O   UNL     1       3.442   5.229   2.341  0.00  0.00    -0.274 OA
ATOM      8  N   UNL     1       3.753   7.321   1.673  0.00  0.00    -0.284 N 
ATOM      9  H   UNL     1       3.910   7.937   0.940  0.00  0.00    +0.155 HD
BRANCH   8  10
ATOM     10  C   UNL     1       3.732   7.792   2.990  0.00  0.00    +0.045 A 
ATOM     11  C   UNL     1       4.220   6.999   4.021  0.00  0.00    +0.024 A 
ATOM     12  C   UNL     1       4.202   7.468   5.319  0.00  0.00    +0.002 A 
ATOM     13  C   UNL     1       3.690   8.723   5.596  0.00  0.00    +0.001 A 
ATOM     14  C   UNL     1       3.199   9.513   4.573  0.00  0.00    +0.014 A 
ATOM     15  C   UNL     1       3.218   9.051   3.271  0.00  0.00    +0.076 A 
BRANCH  15  16
ATOM     16  C   UNL     1       2.682   9.913   2.157  0.00  0.00    +0.419 C 
ATOM     17  F   UNL     1       2.223  11.125   2.684  0.00  0.00    -0.166 F 
ATOM     18  F   UNL     1       3.699  10.162   1.230  0.00  0.00    -0.166 F 
ATOM     19  F   UNL     1       1.625   9.250   1.523  0.00  0.00    -0.166 F 
ENDBRANCH  15  16
ENDBRANCH   8  10
ENDBRANCH   5   6
ENDBRANCH   2   5
BRANCH   3  20
ATOM     20  C   UNL     1       1.783   2.088  -0.010  0.00  0.00    +0.173 C 
BRANCH  20  21
ATOM     21  S   UNL     1       0.005   1.745  -0.006  0.00  0.00    -0.076 S 
BRANCH  21  22
ATOM     22  C   UNL     1       0.035  -0.017  -0.013  0.00  0.00    +0.196 A 
ATOM     23  N   UNL     1       1.103  -0.781  -0.019  0.00  0.00    -0.122 NA
ATOM     24  N   UNL     1       0.756  -2.018  -0.023  0.00  0.00    -0.137 NA
ATOM     25  C   UNL     1      -0.543  -2.120  -0.021  0.00  0.00    +0.230 A 
ATOM     26  N   UNL     1      -1.052  -0.849  -0.008  0.00  0.00    -0.277 N 
BRANCH  26  27
ATOM     27  C   UNL     1      -2.404  -0.477   0.004  0.00  0.00    +0.050 A 
ATOM     28  C   UNL     1      -2.864   0.444   0.935  0.00  0.00    +0.026 A 
ATOM     29  C   UNL     1      -4.195   0.813   0.941  0.00  0.00    +0.002 A 
ATOM     30  C   UNL     1      -5.071   0.257   0.028  0.00  0.00    +0.000 A 
ATOM     31  C   UNL     1      -4.617  -0.665  -0.898  0.00  0.00    +0.002 A 
ATOM     32  C   UNL     1      -3.286  -1.034  -0.912  0.00  0.00    +0.026 A 
ENDBRANCH  26  27
ENDBRANCH  21  22
ENDBRANCH  20  21
ENDBRANCH   3  20
TORSDOF 8
