REMARK  Name = ZINC12151576
REMARK  8 active torsions:
REMARK  status: ('A' for Active; 'I' for Inactive)
REMARK    1  A    between atoms: C_4  and  S_7
REMARK    2  A    between atoms: S_7  and  N_10
REMARK    3  A    between atoms: N_10  and  C_11
REMARK    4  A    between atoms: C_14  and  N_17
REMARK    5  A    between atoms: C_20  and  N_63
REMARK    6  A    between atoms: C_23  and  C_24
REMARK    7  A    between atoms: C_23  and  N_63
REMARK    8  A    between atoms: C_24  and  C_25
REMARK                            x       y       z     vdW  Elec       q    Type
REMARK                         _______ _______ _______ _____ _____    ______ ____
ROOT
ATOM      1  N   UNL     1      -7.319   0.933  -4.531  0.00  0.00    -0.330 N 
ATOM      2  C   UNL     1      -6.755  -0.396  -4.261  0.00  0.00    +0.103 C 
ATOM      3  C   UNL     1      -6.173  -0.426  -2.846  0.00  0.00    +0.003 C 
ATOM      4  C   UNL     1      -5.084   0.645  -2.725  0.00  0.00    -0.069 C 
ATOM      5  C   UNL     1      -5.686   2.013  -3.058  0.00  0.00    +0.003 C 
ATOM      6  C   UNL     1      -6.283   1.972  -4.467  0.00  0.00    +0.103 C 
ENDROOT
BRANCH   1  10
ATOM      7  C   UNL     1      -9.279   1.005  -8.211  0.00  0.00    +0.048 A 
ATOM      8  C   UNL     1      -9.230   2.150  -7.428  0.00  0.00    +0.026 A 
ATOM      9  C   UNL     1      -8.581   2.127  -6.209  0.00  0.00    +0.025 A 
ATOM     10  C   UNL     1      -7.977   0.957  -5.767  0.00  0.00    +0.030 A 
ATOM     11  C   UNL     1      -8.022  -0.187  -6.552  0.00  0.00    +0.025 A 
ATOM     12  C   UNL     1      -8.675  -0.165  -7.768  0.00  0.00    +0.026 A 
BRANCH   7  13
ATOM     13  N   UNL     1      -9.937   1.029  -9.446  0.00  0.00    -0.216 N 
ATOM     14  H   UNL     1     -10.815   1.433  -9.520  0.00  0.00    +0.174 HD
BRANCH  13  15
ATOM     15  S   UNL     1      -9.215   0.366 -10.782  0.00  0.00    +0.072 S 
ATOM     16  O   UNL     1      -8.830  -0.954 -10.423  0.00  0.00    -0.150 OA
ATOM     17  O   UNL     1     -10.072   0.637 -11.883  0.00  0.00    -0.150 OA
BRANCH  15  21
ATOM     18  C   UNL     1      -5.391   2.674 -11.520  0.00  0.00    +0.000 A 
ATOM     19  C   UNL     1      -5.360   1.498 -10.793  0.00  0.00    +0.002 A 
ATOM     20  C   UNL     1      -6.528   0.793 -10.568  0.00  0.00    +0.029 A 
ATOM     21  C   UNL     1      -7.727   1.264 -11.069  0.00  0.00    +0.108 A 
ATOM     22  C   UNL     1      -7.757   2.437 -11.800  0.00  0.00    +0.029 A 
ATOM     23  C   UNL     1      -6.590   3.145 -12.020  0.00  0.00    +0.002 A 
ENDBRANCH  15  21
ENDBRANCH  13  15
ENDBRANCH   7  13
ENDBRANCH   1  10
BRANCH   4  24
ATOM     24  N   UNL     1      -4.567   0.657  -1.343  0.00  0.00    +0.381 N 
ATOM     25  H   UNL     1      -4.565  -0.301  -0.974  0.00  0.00    -0.086 HD
ATOM     26  H   UNL     1      -5.172   1.247  -0.760  0.00  0.00    -0.086 HD
BRANCH  24  27
ATOM     27  C   UNL     1      -3.193   1.192  -1.316  0.00  0.00    -0.077 C 
BRANCH  27  28
ATOM     28  C   UNL     1      -2.684   1.192   0.127  0.00  0.00    +0.018 C 
BRANCH  28  29
ATOM     29  C   UNL     1      -1.280   1.738   0.165  0.00  0.00    -0.024 A 
ATOM     30  C   UNL     1      -0.144   1.022   0.140  0.00  0.00    +0.087 A 
ATOM     31  N   UNL     1       0.936   1.860   0.183  0.00  0.00    -0.360 N 
ATOM     32  H   UNL     1       1.864   1.575   0.172  0.00  0.00    +0.165 HD
ATOM     33  C   UNL     1       0.512   3.169   0.243  0.00  0.00    +0.047 A 
ATOM     34  C   UNL     1      -0.895   3.149   0.238  0.00  0.00    +0.003 A 
ATOM     35  C   UNL     1      -1.608   4.348   0.292  0.00  0.00    +0.010 A 
ATOM     36  C   UNL     1      -0.935   5.536   0.350  0.00  0.00    +0.001 A 
ATOM     37  C   UNL     1       0.452   5.561   0.356  0.00  0.00    +0.002 A 
ATOM     38  C   UNL     1       1.176   4.389   0.303  0.00  0.00    +0.026 A 
ENDBRANCH  28  29
ENDBRANCH  27  28
ENDBRANCH  24  27
ENDBRANCH   4  24
TORSDOF 8
