REMARK  Name = ZINC08793530
REMARK  10 active torsions:
REMARK  status: ('A' for Active; 'I' for Inactive)
REMARK    1  A    between atoms: C_1  and  C_2
REMARK    2  A    between atoms: C_5  and  N_9
REMARK    3  A    between atoms: C_6  and  C_8
REMARK    4  A    between atoms: C_10  and  C_12
REMARK    5  A    between atoms: C_12  and  S_13
REMARK    6  A    between atoms: S_13  and  C_14
REMARK    7  A    between atoms: C_17  and  C_25
REMARK    8  A    between atoms: N_18  and  C_19
REMARK    9  A    between atoms: C_25  and  N_26
REMARK   10  A    between atoms: C_27  and  C_29
REMARK                            x       y       z     vdW  Elec       q    Type
REMARK                         _______ _______ _______ _____ _____    ______ ____
ROOT
ATOM      1  C   UNL     1      -0.356  -8.692  -2.728  0.00  0.00    +0.192 A 
ATOM      2  N   UNL     1      -0.349  -9.370  -1.604  0.00  0.00    -0.122 NA
ATOM      3  N   UNL     1      -0.437 -10.628  -1.853  0.00  0.00    -0.132 NA
ATOM      4  C   UNL     1      -0.506 -10.826  -3.139  0.00  0.00    +0.152 A 
ATOM      5  N   UNL     1      -0.462  -9.600  -3.742  0.00  0.00    -0.302 N 
ENDROOT
BRANCH   5   6
ATOM      6  C   UNL     1      -0.515  -9.319  -5.179  0.00  0.00    +0.091 C 
ATOM      7  C   UNL     1       0.762  -8.592  -5.604  0.00  0.00    +0.025 C 
ATOM      8  C   UNL     1       0.707  -8.299  -7.105  0.00  0.00    +0.002 C 
ATOM      9  C   UNL     1      -0.506  -7.416  -7.407  0.00  0.00    +0.000 C 
ATOM     10  C   UNL     1      -1.784  -8.143  -6.982  0.00  0.00    +0.002 C 
ATOM     11  C   UNL     1      -1.728  -8.436  -5.481  0.00  0.00    +0.025 C 
ENDBRANCH   5   6
BRANCH   1  12
ATOM     12  S   UNL     1      -0.255  -6.941  -2.895  0.00  0.00    -0.077 S 
BRANCH  12  13
ATOM     13  C   UNL     1      -0.134  -6.343  -1.187  0.00  0.00    +0.173 C 
BRANCH  13  15
ATOM     14  N   UNL     1       0.059  -4.170  -0.021  0.00  0.00    -0.285 N 
ATOM     15  C   UNL     1      -0.040  -4.839  -1.187  0.00  0.00    +0.227 C 
ATOM     16  O   UNL     1      -0.054  -4.230  -2.236  0.00  0.00    -0.275 OA
ATOM     17  H   UNL     1       0.135  -4.658   0.814  0.00  0.00    +0.155 HD
BRANCH  14  22
ATOM     18  C   UNL     1       0.025   1.503   0.005  0.00  0.00    +0.044 C 
ATOM     19  C   UNL     1       0.034  -0.004  -0.002  0.00  0.00    -0.050 A 
ATOM     20  C   UNL     1       0.632  -0.685  -1.046  0.00  0.00    +0.005 A 
ATOM     21  C   UNL     1       0.641  -2.066  -1.055  0.00  0.00    +0.024 A 
ATOM     22  C   UNL     1       0.051  -2.771  -0.014  0.00  0.00    +0.036 A 
ATOM     23  C   UNL     1      -0.548  -2.083   1.033  0.00  0.00    -0.029 A 
ATOM     24  C   UNL     1      -0.550  -0.702   1.039  0.00  0.00    +0.008 A 
ATOM     25  C   UNL     1      -1.190  -2.843   2.165  0.00  0.00    +0.045 C 
ENDBRANCH  14  22
ENDBRANCH  13  15
ENDBRANCH  12  13
ENDBRANCH   1  12
BRANCH   4  26
ATOM     26  C   UNL     1      -0.618 -12.159  -3.832  0.00  0.00    +0.180 C 
BRANCH  26  27
ATOM     27  N   UNL     1      -2.032 -12.506  -3.997  0.00  0.00    -0.308 N 
ATOM     28  C   UNL     1      -2.377 -13.663  -4.596  0.00  0.00    +0.220 C 
ATOM     29  O   UNL     1      -1.516 -14.417  -4.999  0.00  0.00    -0.275 OA
ATOM     30  H   UNL     1      -2.720 -11.903  -3.675  0.00  0.00    +0.149 HD
BRANCH  28  31
ATOM     31  C   UNL     1      -3.831 -14.020  -4.766  0.00  0.00    +0.048 C 
ATOM     32  C   UNL     1      -4.500 -14.101  -3.392  0.00  0.00    +0.019 C 
ATOM     33  C   UNL     1      -5.976 -14.464  -3.564  0.00  0.00    -0.009 C 
ATOM     34  C   UNL     1      -6.090 -15.817  -4.269  0.00  0.00    +0.007 C 
ATOM     35  C   UNL     1      -5.422 -15.736  -5.642  0.00  0.00    -0.009 C 
ATOM     36  C   UNL     1      -3.945 -15.373  -5.470  0.00  0.00    +0.019 C 
ATOM     37  C   UNL     1      -6.115 -14.662  -6.484  0.00  0.00    +0.007 C 
ATOM     38  C   UNL     1      -6.001 -13.309  -5.780  0.00  0.00    -0.009 C 
ATOM     39  C   UNL     1      -6.670 -13.391  -4.406  0.00  0.00    +0.007 C 
ATOM     40  C   UNL     1      -4.524 -12.947  -5.608  0.00  0.00    +0.019 C 
ENDBRANCH  28  31
ENDBRANCH  26  27
ENDBRANCH   4  26
TORSDOF 8
