REMARK  Name = ZINC06166419
REMARK  10 active torsions:
REMARK  status: ('A' for Active; 'I' for Inactive)
REMARK    1  A    between atoms: C_1  and  C_2
REMARK    2  A    between atoms: C_2  and  O_3
REMARK    3  A    between atoms: O_3  and  C_4
REMARK    4  A    between atoms: C_6  and  C_11
REMARK    5  A    between atoms: C_9  and  O_10
REMARK    6  A    between atoms: N_12  and  N_13
REMARK    7  A    between atoms: C_14  and  C_16
REMARK    8  A    between atoms: C_16  and  C_18
REMARK    9  A    between atoms: C_16  and  N_19
REMARK   10  A    between atoms: C_30  and  C_34
REMARK                            x       y       z     vdW  Elec       q    Type
REMARK                         _______ _______ _______ _____ _____    ______ ____
ROOT
ATOM      1  N   UNL     1      -2.513  -6.633  -2.529  0.00  0.00    -0.205 N 
ATOM      2  C   UNL     1      -1.647  -5.610  -2.670  0.00  0.00    +0.255 C 
ATOM      3  O   UNL     1      -1.559  -5.032  -3.733  0.00  0.00    -0.272 OA
ATOM      4  H   UNL     1      -2.583  -7.095  -1.679  0.00  0.00    +0.177 HD
ENDROOT
BRANCH   1   6
ATOM      5  C   UNL     1      -4.146  -8.013  -3.473  0.00  0.00    +0.138 C 
ATOM      6  N   UNL     1      -3.312  -7.028  -3.609  0.00  0.00    -0.188 NA
BRANCH   5   9
ATOM      7  C   UNL     1      -6.672  -9.877  -5.534  0.00  0.00    +0.162 A 
ATOM      8  C   UNL     1      -5.886  -9.490  -4.465  0.00  0.00    +0.059 A 
ATOM      9  C   UNL     1      -4.987  -8.430  -4.610  0.00  0.00    -0.002 A 
ATOM     10  C   UNL     1      -4.892  -7.762  -5.833  0.00  0.00    +0.013 A 
ATOM     11  C   UNL     1      -5.675  -8.157  -6.897  0.00  0.00    +0.050 A 
ATOM     12  C   UNL     1      -6.567  -9.210  -6.753  0.00  0.00    +0.158 A 
BRANCH  12  13
ATOM     13  O   UNL     1      -7.340  -9.592  -7.803  0.00  0.00    -0.503 OA
ATOM     14  H   UNL     1      -8.192  -9.136  -7.851  0.00  0.00    +0.292 HD
ENDBRANCH  12  13
BRANCH   7  15
ATOM     15  O   UNL     1      -7.548 -10.908  -5.396  0.00  0.00    -0.489 OA
BRANCH  15  17
ATOM     16  C   UNL     1      -8.636 -12.674  -4.156  0.00  0.00    +0.048 C 
ATOM     17  C   UNL     1      -7.602 -11.546  -4.119  0.00  0.00    +0.226 C 
ENDBRANCH  15  17
ENDBRANCH   7  15
ENDBRANCH   5   9
ENDBRANCH   1   6
BRANCH   2  18
ATOM     18  C   UNL     1      -0.787  -5.184  -1.508  0.00  0.00    +0.176 C 
ATOM     19  C   UNL     1       0.093  -6.356  -1.069  0.00  0.00    +0.041 C 
BRANCH  18  20
ATOM     20  N   UNL     1       0.061  -4.061  -1.914  0.00  0.00    -0.287 N 
ATOM     21  C   UNL     1       0.930  -4.245  -2.938  0.00  0.00    +0.204 A 
ATOM     22  N   UNL     1       1.732  -3.299  -3.375  0.00  0.00    -0.230 NA
ATOM     23  C   UNL     1       1.671  -2.118  -2.769  0.00  0.00    +0.116 A 
ATOM     24  C   UNL     1       0.801  -1.828  -1.695  0.00  0.00    +0.076 A 
ATOM     25  C   UNL     1      -0.058  -2.888  -1.248  0.00  0.00    +0.263 A 
ATOM     26  O   UNL     1      -0.846  -2.741  -0.330  0.00  0.00    -0.267 OA
ATOM     27  C   UNL     1       0.873  -0.481  -1.157  0.00  0.00    -0.023 A 
ATOM     28  C   UNL     1       1.763   0.357  -1.738  0.00  0.00    -0.004 A 
ATOM     29  S   UNL     1       2.538  -0.601  -3.016  0.00  0.00    -0.073 S 
ATOM     30  C   UNL     1       2.034   1.785  -1.377  0.00  0.00    +0.046 C 
ATOM     31  C   UNL     1       1.414   2.064  -0.000  0.00  0.00    -0.009 C 
ATOM     32  C   UNL     1      -0.019   1.524   0.010  0.00  0.00    +0.008 C 
ATOM     33  C   UNL     1       0.002  -0.004   0.002  0.00  0.00    +0.037 C 
ATOM     34  C   UNL     1       1.397   3.572   0.259  0.00  0.00    +0.008 C 
ENDBRANCH  18  20
ENDBRANCH   2  18
TORSDOF 7
