REMARK  Name = ZINC34830139
REMARK  9 active torsions:
REMARK  status: ('A' for Active; 'I' for Inactive)
REMARK    1  A    between atoms: C_1  and  C_2
REMARK    2  A    between atoms: C_2  and  C_4
REMARK    3  A    between atoms: C_2  and  N_24
REMARK    4  A    between atoms: C_12  and  C_14
REMARK    5  A    between atoms: C_16  and  O_22
REMARK    6  A    between atoms: C_18  and  O_20
REMARK    7  A    between atoms: O_20  and  C_21
REMARK    8  A    between atoms: O_22  and  C_23
REMARK    9  A    between atoms: C_32  and  C_34
REMARK                            x       y       z     vdW  Elec       q    Type
REMARK                         _______ _______ _______ _____ _____    ______ ____
ROOT
ATOM      1  C   UNL     1       0.982  -0.303   1.506  0.00  0.00    +0.202 C 
ATOM      2  O   UNL     1       1.922  -1.068   1.453  0.00  0.00    -0.277 OA
ATOM      3  N   UNL     1       0.355  -0.087   2.679  0.00  0.00    -0.300 N 
ATOM      4  C   UNL     1      -0.722   0.908   2.780  0.00  0.00    +0.126 C 
ATOM      5  C   UNL     1      -1.972   0.223   3.344  0.00  0.00    +0.127 C 
ATOM      6  N   UNL     1      -1.592  -0.533   4.545  0.00  0.00    -0.295 N 
ATOM      7  C   UNL     1      -0.515  -1.529   4.445  0.00  0.00    +0.127 C 
ATOM      8  C   UNL     1       0.732  -0.847   3.880  0.00  0.00    +0.126 C 
ATOM      9  C   UNL     1      -2.219  -0.317   5.718  0.00  0.00    +0.247 C 
ATOM     10  O   UNL     1      -1.836  -0.881   6.725  0.00  0.00    -0.270 OA
ENDROOT
BRANCH   9  11
ATOM     11  C   UNL     1      -3.373   0.605   5.781  0.00  0.00    +0.044 A 
ATOM     12  C   UNL     1      -4.338   0.588   4.774  0.00  0.00    +0.059 A 
ATOM     13  C   UNL     1      -5.418   1.454   4.837  0.00  0.00    +0.124 A 
ATOM     14  C   UNL     1      -5.539   2.337   5.899  0.00  0.00    +0.091 A 
ATOM     15  C   UNL     1      -4.582   2.358   6.903  0.00  0.00    +0.124 A 
ATOM     16  C   UNL     1      -3.502   1.492   6.851  0.00  0.00    +0.059 A 
BRANCH  15  17
ATOM     17  O   UNL     1      -4.706   3.226   7.941  0.00  0.00    -0.495 OA
ATOM     18  C   UNL     1      -5.846   4.087   7.935  0.00  0.00    +0.277 C 
ENDBRANCH  15  17
BRANCH  13  19
ATOM     19  O   UNL     1      -6.359   1.437   3.857  0.00  0.00    -0.495 OA
ATOM     20  C   UNL     1      -7.445   2.357   3.985  0.00  0.00    +0.277 C 
ENDBRANCH  13  19
ENDBRANCH   9  11
BRANCH   1  22
ATOM     21  C   UNL     1       1.165   1.790   0.188  0.00  0.00    -0.004 C 
ATOM     22  C   UNL     1       0.516   0.406   0.261  0.00  0.00    +0.018 C 
BRANCH  22  23
ATOM     23  N   UNL     1       0.899  -0.377  -0.921  0.00  0.00    +0.395 N 
ATOM     24  C   UNL     1       2.363  -0.480  -0.979  0.00  0.00    -0.071 C 
ATOM     25  C   UNL     1       2.771  -1.002  -2.368  0.00  0.00    +0.024 C 
ATOM     26  C   UNL     1       1.905  -2.179  -2.679  0.00  0.00    -0.010 A 
ATOM     27  C   UNL     1       0.772  -2.547  -2.016  0.00  0.00    -0.047 A 
ATOM     28  C   UNL     1       0.125  -3.689  -2.479  0.00  0.00    +0.010 A 
ATOM     29  C   UNL     1       0.625  -4.369  -3.537  0.00  0.00    +0.045 A 
ATOM     30  S   UNL     1       2.074  -3.404  -3.944  0.00  0.00    -0.101 S 
ATOM     31  C   UNL     1       0.286  -1.708  -0.838  0.00  0.00    -0.005 C 
ATOM     32  H   UNL     1       0.566   0.090  -1.751  0.00  0.00    -0.079 HD
BRANCH  31  33
ATOM     33  C   UNL     1      -1.215  -1.578  -0.895  0.00  0.00    -0.057 A 
ATOM     34  C   UNL     1      -1.797  -0.670  -1.760  0.00  0.00    +0.002 A 
ATOM     35  C   UNL     1      -3.173  -0.551  -1.813  0.00  0.00    +0.000 A 
ATOM     36  C   UNL     1      -3.967  -1.339  -1.001  0.00  0.00    +0.000 A 
ATOM     37  C   UNL     1      -3.385  -2.248  -0.137  0.00  0.00    +0.000 A 
ATOM     38  C   UNL     1      -2.009  -2.370  -0.087  0.00  0.00    +0.002 A 
ENDBRANCH  31  33
ENDBRANCH  22  23
ENDBRANCH   1  22
TORSDOF 6
