REMARK  Name = ZINC13507536
REMARK  11 active torsions:
REMARK  status: ('A' for Active; 'I' for Inactive)
REMARK    1  A    between atoms: C_1  and  C_2
REMARK    2  A    between atoms: C_5  and  C_37
REMARK    3  A    between atoms: C_6  and  N_8
REMARK    4  A    between atoms: N_8  and  C_9
REMARK    5  A    between atoms: C_9  and  C_11
REMARK    6  A    between atoms: C_9  and  C_17
REMARK    7  A    between atoms: C_14  and  C_16
REMARK    8  A    between atoms: N_19  and  C_20
REMARK    9  A    between atoms: C_26  and  C_28
REMARK   10  A    between atoms: C_28  and  N_29
REMARK   11  A    between atoms: C_30  and  C_32
REMARK                            x       y       z     vdW  Elec       q    Type
REMARK                         _______ _______ _______ _____ _____    ______ ____
ROOT
ATOM      1  N   UNL     1      -3.366   3.808   0.565  0.00  0.00    -0.251 N 
ATOM      2  C   UNL     1      -4.510   4.213  -0.021  0.00  0.00    +0.238 C 
ATOM      3  O   UNL     1      -5.392   4.709   0.648  0.00  0.00    -0.273 OA
ENDROOT
BRANCH   1   9
ATOM      4  C   UNL     1      -1.286  -0.185  -1.408  0.00  0.00    +0.044 C 
ATOM      5  C   UNL     1      -1.316   1.304  -1.179  0.00  0.00    -0.049 A 
ATOM      6  C   UNL     1      -0.336   2.107  -1.733  0.00  0.00    +0.004 A 
ATOM      7  C   UNL     1      -0.359   3.474  -1.525  0.00  0.00    +0.005 A 
ATOM      8  C   UNL     1      -1.360   4.041  -0.760  0.00  0.00    -0.029 A 
ATOM      9  C   UNL     1      -2.349   3.237  -0.207  0.00  0.00    +0.041 A 
ATOM     10  C   UNL     1      -2.322   1.865  -0.417  0.00  0.00    +0.027 A 
ATOM     11  C   UNL     1      -1.382   5.530  -0.529  0.00  0.00    +0.045 C 
ENDBRANCH   1   9
BRANCH   1  12
ATOM     12  C   UNL     1      -3.188   3.966   2.011  0.00  0.00    +0.233 C 
BRANCH  12  13
ATOM     13  C   UNL     1      -1.897   4.695   2.281  0.00  0.00    +0.135 A 
ATOM     14  C   UNL     1      -1.758   5.790   3.049  0.00  0.00    +0.047 A 
ATOM     15  C   UNL     1      -0.387   6.134   3.028  0.00  0.00    +0.045 A 
ATOM     16  C   UNL     1       0.228   5.233   2.242  0.00  0.00    +0.102 A 
ATOM     17  O   UNL     1      -0.691   4.364   1.792  0.00  0.00    -0.462 OA
ATOM     18  C   UNL     1       1.700   5.205   1.919  0.00  0.00    +0.086 C 
ENDBRANCH  12  13
BRANCH  12  19
ATOM     19  C   UNL     1      -3.145   2.608   2.663  0.00  0.00    +0.242 C 
ATOM     20  O   UNL     1      -2.771   1.643   2.030  0.00  0.00    -0.273 OA
ATOM     21  N   UNL     1      -3.522   2.466   3.949  0.00  0.00    -0.311 N 
ATOM     22  H   UNL     1      -3.822   3.237   4.455  0.00  0.00    +0.149 HD
BRANCH  21  23
ATOM     23  C   UNL     1      -3.480   1.146   4.582  0.00  0.00    +0.073 C 
ATOM     24  C   UNL     1      -4.774   0.390   4.272  0.00  0.00    +0.022 C 
ATOM     25  C   UNL     1      -4.730  -0.989   4.934  0.00  0.00    +0.002 C 
ATOM     26  C   UNL     1      -4.586  -0.824   6.449  0.00  0.00    +0.000 C 
ATOM     27  C   UNL     1      -3.293  -0.068   6.759  0.00  0.00    +0.002 C 
ATOM     28  C   UNL     1      -3.337   1.311   6.097  0.00  0.00    +0.022 C 
ENDBRANCH  21  23
ENDBRANCH  12  19
ENDBRANCH   1  12
BRANCH   2  29
ATOM     29  C   UNL     1      -4.693   4.051  -1.508  0.00  0.00    +0.201 C 
BRANCH  29  30
ATOM     30  N   UNL     1      -6.009   4.564  -1.897  0.00  0.00    -0.300 N 
ATOM     31  C   UNL     1      -6.394   4.522  -3.188  0.00  0.00    +0.280 C 
ATOM     32  O   UNL     1      -5.648   4.058  -4.031  0.00  0.00    -0.267 OA
ATOM     33  H   UNL     1      -6.604   4.933  -1.226  0.00  0.00    +0.150 HD
BRANCH  31  34
ATOM     34  C   UNL     1      -7.712   5.035  -3.578  0.00  0.00    +0.189 A 
ATOM     35  C   UNL     1      -8.224   5.053  -4.843  0.00  0.00    +0.054 A 
ATOM     36  C   UNL     1      -9.502   5.626  -4.753  0.00  0.00    +0.042 A 
ATOM     37  C   UNL     1      -9.711   5.929  -3.453  0.00  0.00    +0.196 A 
ATOM     38  O   UNL     1      -8.632   5.567  -2.747  0.00  0.00    -0.458 OA
ENDBRANCH  31  34
ENDBRANCH  29  30
ENDBRANCH   2  29
TORSDOF 8
