REMARK  Name = ZINC08764807
REMARK  11 active torsions:
REMARK  status: ('A' for Active; 'I' for Inactive)
REMARK    1  A    between atoms: C_1  and  O_2
REMARK    2  A    between atoms: O_2  and  C_3
REMARK    3  A    between atoms: C_5  and  C_11
REMARK    4  A    between atoms: C_7  and  O_9
REMARK    5  A    between atoms: O_9  and  C_10
REMARK    6  A    between atoms: N_13  and  C_14
REMARK    7  A    between atoms: C_14  and  C_16
REMARK    8  A    between atoms: C_14  and  C_20
REMARK    9  A    between atoms: C_16  and  C_17
REMARK   10  A    between atoms: C_17  and  S_18
REMARK   11  A    between atoms: S_18  and  C_19
REMARK                            x       y       z     vdW  Elec       q    Type
REMARK                         _______ _______ _______ _____ _____    ______ ____
ROOT
ATOM      1  C   UNL     1      -1.840   0.043   3.353  0.00  0.00    +0.160 C 
ENDROOT
BRANCH   1   2
ATOM      2  C   UNL     1      -2.631   0.601   2.199  0.00  0.00    +0.236 C 
ATOM      3  O   UNL     1      -3.648   0.048   1.837  0.00  0.00    -0.274 OA
ATOM      4  N   UNL     1      -2.209   1.714   1.568  0.00  0.00    -0.300 N 
ATOM      5  C   UNL     1      -1.042   2.459   2.063  0.00  0.00    +0.107 C 
ATOM      6  C   UNL     1      -0.042   2.627   0.915  0.00  0.00    +0.013 C 
ATOM      7  C   UNL     1      -0.744   3.275  -0.278  0.00  0.00    -0.020 C 
ATOM      8  C   UNL     1      -1.885   2.378  -0.758  0.00  0.00    +0.013 C 
ATOM      9  C   UNL     1      -2.906   2.207   0.372  0.00  0.00    +0.107 C 
ATOM     10  C   UNL     1       0.243   3.482  -1.398  0.00  0.00    +0.051 A 
ATOM     11  C   UNL     1       0.309   4.621  -2.126  0.00  0.00    +0.035 A 
ATOM     12  N   UNL     1       1.304   4.458  -3.036  0.00  0.00    -0.348 N 
ATOM     13  H   UNL     1       1.600   5.124  -3.720  0.00  0.00    +0.166 HD
ATOM     14  C   UNL     1       1.819   3.221  -2.841  0.00  0.00    +0.196 A 
ATOM     15  N   UNL     1       1.175   2.647  -1.857  0.00  0.00    -0.242 NA
ATOM     16  C   UNL     1      -0.596   5.805  -1.901  0.00  0.00    +0.036 C 
ATOM     17  C   UNL     1      -1.780   5.338  -1.043  0.00  0.00    -0.075 C 
ATOM     18  N   UNL     1      -1.282   4.591   0.132  0.00  0.00    +0.387 N 
ATOM     19  H   UNL     1      -0.538   5.134   0.586  0.00  0.00    -0.085 HD
ATOM     20  H   UNL     1      -2.055   4.449   0.793  0.00  0.00    -0.085 HD
ENDBRANCH   1   2
BRANCH   1  23
ATOM     21  C   UNL     1      -2.418  -1.026   5.465  0.00  0.00    +0.245 C 
ATOM     22  O   UNL     1      -1.448  -0.493   5.967  0.00  0.00    -0.270 OA
ATOM     23  N   UNL     1      -2.702  -0.822   4.163  0.00  0.00    -0.300 N 
ATOM     24  H   UNL     1      -3.476  -1.247   3.763  0.00  0.00    +0.150 HD
BRANCH  21  27
ATOM     25  C   UNL     1      -3.814  -2.930   8.393  0.00  0.00    +0.124 A 
ATOM     26  C   UNL     1      -2.997  -2.112   7.630  0.00  0.00    +0.059 A 
ATOM     27  C   UNL     1      -3.288  -1.899   6.283  0.00  0.00    +0.044 A 
ATOM     28  C   UNL     1      -4.406  -2.506   5.710  0.00  0.00    +0.059 A 
ATOM     29  C   UNL     1      -5.215  -3.328   6.479  0.00  0.00    +0.124 A 
ATOM     30  C   UNL     1      -4.921  -3.537   7.818  0.00  0.00    +0.091 A 
BRANCH  25  32
ATOM     31  C   UNL     1      -4.415  -3.993  10.432  0.00  0.00    +0.277 C 
ATOM     32  O   UNL     1      -3.531  -3.139   9.706  0.00  0.00    -0.495 OA
ENDBRANCH  25  32
BRANCH  29  33
ATOM     33  O   UNL     1      -6.300  -3.925   5.920  0.00  0.00    -0.495 OA
ATOM     34  C   UNL     1      -7.094  -4.754   6.772  0.00  0.00    +0.277 C 
ENDBRANCH  29  33
ENDBRANCH  21  27
ENDBRANCH   1  23
BRANCH   1  35
ATOM     35  C   UNL     1      -0.661  -0.771   2.817  0.00  0.00    +0.042 C 
BRANCH  35  36
ATOM     36  C   UNL     1       0.222  -1.219   3.984  0.00  0.00    +0.071 C 
BRANCH  36  37
ATOM     37  S   UNL     1       1.620  -2.184   3.348  0.00  0.00    -0.164 S 
ATOM     38  C   UNL     1       2.556  -2.633   4.836  0.00  0.00    +0.084 C 
ENDBRANCH  36  37
ENDBRANCH  35  36
ENDBRANCH   1  35
TORSDOF 8
