REMARK  Name = ZINC41020715
REMARK  9 active torsions:
REMARK  status: ('A' for Active; 'I' for Inactive)
REMARK    1  A    between atoms: C_1  and  C_2
REMARK    2  A    between atoms: C_2  and  S_3
REMARK    3  A    between atoms: S_3  and  C_4
REMARK    4  A    between atoms: C_9  and  C_26
REMARK    5  A    between atoms: C_11  and  C_15
REMARK    6  A    between atoms: C_12  and  C_14
REMARK    7  A    between atoms: N_17  and  C_18
REMARK    8  A    between atoms: C_22  and  C_25
REMARK    9  A    between atoms: C_23  and  C_24
REMARK                            x       y       z     vdW  Elec       q    Type
REMARK                         _______ _______ _______ _____ _____    ______ ____
ROOT
ATOM      1  C   UNL     1       0.555  -2.357  -1.417  0.00  0.00    +0.210 A 
ATOM      2  N   UNL     1       0.047  -3.060  -0.395  0.00  0.00    -0.187 NA
ATOM      3  C   UNL     1       0.232  -4.334  -0.607  0.00  0.00    +0.219 A 
ATOM      4  N   UNL     1       0.879  -4.475  -1.790  0.00  0.00    -0.218 N 
ATOM      5  N   UNL     1       1.069  -3.190  -2.296  0.00  0.00    -0.141 NA
ATOM      6  C   UNL     1       1.265  -5.766  -2.351  0.00  0.00    +0.195 C 
ATOM      7  C   UNL     1       0.583  -6.869  -1.587  0.00  0.00    +0.062 C 
ATOM      8  C   UNL     1      -0.047  -6.670  -0.420  0.00  0.00    +0.018 C 
ATOM      9  N   UNL     1      -0.128  -5.430   0.166  0.00  0.00    -0.287 N 
ATOM     10  C   UNL     1      -0.688  -7.845   0.272  0.00  0.00    +0.061 C 
ATOM     11  H   UNL     1      -0.425  -5.324   1.083  0.00  0.00    +0.155 HD
ENDROOT
BRANCH   6  12
ATOM     12  C   UNL     1       2.759  -5.933  -2.248  0.00  0.00    +0.070 A 
ATOM     13  C   UNL     1       3.430  -5.420  -1.153  0.00  0.00    +0.026 A 
ATOM     14  C   UNL     1       4.804  -5.579  -1.068  0.00  0.00    +0.003 A 
ATOM     15  C   UNL     1       5.456  -6.250  -2.092  0.00  0.00    +0.020 A 
ATOM     16  C   UNL     1       4.719  -6.735  -3.155  0.00  0.00    +0.111 A 
ATOM     17  N   UNL     1       3.411  -6.571  -3.200  0.00  0.00    -0.257 NA
ENDBRANCH   6  12
BRANCH   7  18
ATOM     18  C   UNL     1       0.608  -8.178  -2.124  0.00  0.00    +0.248 C 
ATOM     19  O   UNL     1      -0.167  -8.486  -3.012  0.00  0.00    -0.270 OA
ATOM     20  N   UNL     1       1.489  -9.083  -1.654  0.00  0.00    -0.281 N 
ATOM     21  H   UNL     1       2.062  -8.858  -0.905  0.00  0.00    +0.155 HD
BRANCH  20  22
ATOM     22  C   UNL     1       1.576 -10.347  -2.247  0.00  0.00    +0.037 A 
ATOM     23  C   UNL     1       0.436 -10.960  -2.750  0.00  0.00    +0.023 A 
ATOM     24  C   UNL     1       0.525 -12.208  -3.334  0.00  0.00    +0.002 A 
ATOM     25  C   UNL     1       1.749 -12.847  -3.419  0.00  0.00    +0.004 A 
ATOM     26  C   UNL     1       2.886 -12.240  -2.919  0.00  0.00    -0.046 A 
ATOM     27  C   UNL     1       2.804 -10.989  -2.338  0.00  0.00    -0.026 A 
ATOM     28  C   UNL     1       4.045 -10.325  -1.799  0.00  0.00    +0.046 C 
ATOM     29  C   UNL     1       4.217 -12.940  -3.013  0.00  0.00    +0.044 C 
ENDBRANCH  20  22
ENDBRANCH   7  18
BRANCH   1  30
ATOM     30  S   UNL     1       0.533  -0.601  -1.563  0.00  0.00    -0.085 S 
BRANCH  30  32
ATOM     31  C   UNL     1      -0.389   1.482  -0.049  0.00  0.00    +0.016 C 
ATOM     32  C   UNL     1      -0.301  -0.045  -0.051  0.00  0.00    +0.074 C 
ENDBRANCH  30  32
ENDBRANCH   1  30
TORSDOF 5
