REMARK  Name = ZINC64128513
REMARK  4 active torsions:
REMARK  status: ('A' for Active; 'I' for Inactive)
REMARK    1  A    between atoms: C_7  and  C_11
REMARK    2  A    between atoms: N_16  and  C_19
REMARK    3  A    between atoms: C_19  and  N_20
REMARK    4  A    between atoms: C_29  and  C_32
REMARK                            x       y       z     vdW  Elec       q    Type
REMARK                         _______ _______ _______ _____ _____    ______ ____
ROOT
ATOM      1  C   UNL     1      -4.401   3.066   0.061  0.00  0.00    +0.267 C 
ATOM      2  O   UNL     1      -3.670   4.034   0.144  0.00  0.00    -0.268 OA
ATOM      3  N   UNL     1      -5.735   3.234  -0.027  0.00  0.00    -0.294 N 
ATOM      4  C   UNL     1      -6.644   2.078  -0.021  0.00  0.00    +0.123 C 
ATOM      5  C   UNL     1      -7.592   2.198  -1.220  0.00  0.00    +0.105 C 
ATOM      6  N   UNL     1      -8.254   3.509  -1.187  0.00  0.00    -0.283 NA
ATOM      7  C   UNL     1      -7.281   4.601  -1.326  0.00  0.00    +0.105 C 
ATOM      8  C   UNL     1      -6.321   4.580  -0.126  0.00  0.00    +0.123 C 
ENDROOT
BRANCH   1  15
ATOM      9  C   UNL     1      -0.019   1.382  -0.034  0.00  0.00    +0.001 A 
ATOM     10  C   UNL     1      -0.000  -0.007  -0.023  0.00  0.00    +0.002 A 
ATOM     11  C   UNL     1      -1.174  -0.726   0.013  0.00  0.00    +0.028 A 
ATOM     12  C   UNL     1      -2.392  -0.055   0.038  0.00  0.00    +0.066 A 
ATOM     13  C   UNL     1      -2.402   1.353   0.026  0.00  0.00    +0.032 A 
ATOM     14  C   UNL     1      -1.205   2.061  -0.004  0.00  0.00    +0.012 A 
ATOM     15  C   UNL     1      -3.828   1.708   0.058  0.00  0.00    +0.155 A 
ATOM     16  N   UNL     1      -4.492   0.572   0.084  0.00  0.00    -0.168 NA
ATOM     17  H   UNL     1      -4.004  -1.367   0.088  0.00  0.00    +0.189 HD
ATOM     18  N   UNL     1      -3.706  -0.444   0.073  0.00  0.00    -0.276 N 
ENDBRANCH   1  15
BRANCH   6  19
ATOM     19  C   UNL     1      -9.295   3.598  -2.219  0.00  0.00    +0.213 C 
BRANCH  19  20
ATOM     20  N   UNL     1     -10.298   4.588  -1.816  0.00  0.00    -0.218 N 
ATOM     21  C   UNL     1     -11.495   4.164  -1.359  0.00  0.00    +0.262 C 
ATOM     22  O   UNL     1     -11.685   2.991  -1.104  0.00  0.00    -0.269 OA
ATOM     23  C   UNL     1     -12.569   5.165  -1.177  0.00  0.00    +0.043 A 
ATOM     24  C   UNL     1     -13.748   4.863  -0.506  0.00  0.00    +0.013 A 
ATOM     25  C   UNL     1     -14.712   5.842  -0.354  0.00  0.00    +0.001 A 
ATOM     26  C   UNL     1     -14.502   7.111  -0.864  0.00  0.00    +0.000 A 
ATOM     27  C   UNL     1     -13.330   7.413  -1.538  0.00  0.00    +0.006 A 
ATOM     28  C   UNL     1     -12.366   6.445  -1.701  0.00  0.00    -0.012 A 
ATOM     29  C   UNL     1     -11.092   6.723  -2.455  0.00  0.00    +0.140 C 
ATOM     30  N   UNL     1      -9.998   5.911  -1.907  0.00  0.00    -0.224 NA
ATOM     31  H   UNL     1      -9.685   6.272  -1.019  0.00  0.00    +0.146 HD
BRANCH  29  32
ATOM     32  C   UNL     1     -10.741   8.182  -2.323  0.00  0.00    +0.013 A 
ATOM     33  C   UNL     1     -10.948   9.193  -3.202  0.00  0.00    +0.013 A 
ATOM     34  C   UNL     1     -10.538  10.469  -2.864  0.00  0.00    +0.008 A 
ATOM     35  C   UNL     1      -9.941  10.672  -1.664  0.00  0.00    +0.045 A 
ATOM     36  S   UNL     1      -9.950   9.029  -0.965  0.00  0.00    -0.100 S 
ENDBRANCH  29  32
ENDBRANCH  19  20
ENDBRANCH   6  19
TORSDOF 4
