REMARK  Name = ZINC39430626
REMARK  7 active torsions:
REMARK  status: ('A' for Active; 'I' for Inactive)
REMARK    1  A    between atoms: C_1  and  C_2
REMARK    2  A    between atoms: C_4  and  C_8
REMARK    3  A    between atoms: N_10  and  C_11
REMARK    4  A    between atoms: N_10  and  C_18
REMARK    5  A    between atoms: C_11  and  C_12
REMARK    6  A    between atoms: C_18  and  C_19
REMARK    7  A    between atoms: N_24  and  C_26
REMARK                            x       y       z     vdW  Elec       q    Type
REMARK                         _______ _______ _______ _____ _____    ______ ____
ROOT
ATOM      1  C   UNL     1      -0.933  -2.866  -1.075  0.00  0.00    +0.246 C 
ATOM      2  O   UNL     1      -0.140  -2.822  -1.992  0.00  0.00    -0.273 OA
ATOM      3  N   UNL     1      -2.122  -3.477  -1.241  0.00  0.00    -0.295 N 
ENDROOT
BRANCH   1   7
ATOM      4  C   UNL     1       1.876   0.549   0.522  0.00  0.00    +0.067 C 
ATOM      5  C   UNL     1       1.046  -0.709   0.498  0.00  0.00    +0.059 C 
ATOM      6  C   UNL     1      -0.217  -0.775   0.071  0.00  0.00    +0.035 C 
ATOM      7  C   UNL     1      -0.587  -2.237   0.250  0.00  0.00    +0.238 C 
ATOM      8  N   UNL     1       0.644  -2.825   0.805  0.00  0.00    -0.170 NA
ATOM      9  N   UNL     1       1.481  -1.923   0.900  0.00  0.00    -0.159 NA
ENDBRANCH   1   7
BRANCH   3  10
ATOM     10  C   UNL     1      -2.414  -4.185  -2.490  0.00  0.00    +0.144 C 
BRANCH  10  11
ATOM     11  C   UNL     1      -1.978  -5.622  -2.366  0.00  0.00    -0.012 A 
ATOM     12  C   UNL     1      -0.691  -5.998  -2.721  0.00  0.00    +0.008 A 
ATOM     13  C   UNL     1      -0.334  -7.331  -2.591  0.00  0.00    +0.020 A 
ATOM     14  C   UNL     1      -1.265  -8.235  -2.115  0.00  0.00    +0.111 A 
ATOM     15  N   UNL     1      -2.480  -7.841  -1.786  0.00  0.00    -0.263 NA
ATOM     16  C   UNL     1      -2.853  -6.581  -1.892  0.00  0.00    +0.115 A 
ENDBRANCH  10  11
ENDBRANCH   3  10
BRANCH   3  17
ATOM     17  C   UNL     1      -3.124  -3.433  -0.173  0.00  0.00    +0.110 C 
BRANCH  17  18
ATOM     18  C   UNL     1      -4.116  -2.302  -0.450  0.00  0.00    -0.010 C 
ATOM     19  C   UNL     1      -3.387  -0.956  -0.393  0.00  0.00    +0.001 C 
ATOM     20  C   UNL     1      -4.402   0.172  -0.594  0.00  0.00    -0.018 C 
ATOM     21  C   UNL     1      -5.498   0.061   0.469  0.00  0.00    -0.078 C 
ATOM     22  N   UNL     1      -6.175  -1.236   0.345  0.00  0.00    +0.382 N 
ATOM     23  C   UNL     1      -5.223  -2.322   0.607  0.00  0.00    -0.073 C 
ATOM     24  H   UNL     1      -6.545  -1.333  -0.589  0.00  0.00    -0.081 HD
BRANCH  22  25
ATOM     25  C   UNL     1      -7.275  -1.307   1.315  0.00  0.00    -0.069 C 
ATOM     26  C   UNL     1      -7.982  -2.658   1.187  0.00  0.00    -0.015 C 
ATOM     27  C   UNL     1      -9.128  -2.732   2.198  0.00  0.00    -0.002 C 
ATOM     28  C   UNL     1     -10.126  -1.606   1.920  0.00  0.00    -0.000 C 
ATOM     29  C   UNL     1      -9.420  -0.255   2.047  0.00  0.00    -0.002 C 
ATOM     30  C   UNL     1      -8.273  -0.181   1.037  0.00  0.00    -0.015 C 
ENDBRANCH  22  25
ENDBRANCH  17  18
ENDBRANCH   3  17
TORSDOF 6
