REMARK  Name = ZINC67406563
REMARK  5 active torsions:
REMARK  status: ('A' for Active; 'I' for Inactive)
REMARK    1  A    between atoms: C_1  and  C_2
REMARK    2  A    between atoms: C_2  and  C_3
REMARK    3  A    between atoms: C_3  and  C_5
REMARK    4  A    between atoms: C_3  and  N_10
REMARK    5  A    between atoms: C_17  and  C_19
REMARK                            x       y       z     vdW  Elec       q    Type
REMARK                         _______ _______ _______ _____ _____    ______ ____
ROOT
ATOM      1  N   UNL     1      -2.082  -0.162   1.273  0.00  0.00    -0.292 N 
ATOM      2  C   UNL     1      -2.664   1.047   1.400  0.00  0.00    +0.303 C 
ATOM      3  O   UNL     1      -2.651   1.829   0.469  0.00  0.00    -0.253 OA
ATOM      4  N   UNL     1      -3.260   1.389   2.559  0.00  0.00    -0.278 N 
ATOM      5  C   UNL     1      -3.343   0.545   3.765  0.00  0.00    +0.110 C 
ATOM      6  C   UNL     1      -3.526   1.542   4.936  0.00  0.00    +0.021 C 
ATOM      7  C   UNL     1      -4.438   2.618   4.290  0.00  0.00    +0.029 C 
ATOM      8  C   UNL     1      -3.930   2.669   2.833  0.00  0.00    +0.111 C 
ATOM      9  H   UNL     1      -2.092  -0.785   2.016  0.00  0.00    +0.151 HD
ENDROOT
BRANCH   8  10
ATOM     10  C   UNL     1      -5.094   2.850   1.893  0.00  0.00    +0.018 A 
ATOM     11  C   UNL     1      -5.693   1.746   1.316  0.00  0.00    +0.009 A 
ATOM     12  C   UNL     1      -6.761   1.908   0.453  0.00  0.00    +0.004 A 
ATOM     13  C   UNL     1      -7.232   3.175   0.164  0.00  0.00    +0.049 A 
ATOM     14  C   UNL     1      -6.635   4.286   0.739  0.00  0.00    +0.162 A 
ATOM     15  C   UNL     1      -5.566   4.123   1.613  0.00  0.00    +0.167 A 
ATOM     16  O   UNL     1      -4.974   5.199   2.198  0.00  0.00    -0.485 OA
ATOM     17  C   UNL     1      -5.232   6.477   1.605  0.00  0.00    +0.270 C 
ATOM     18  C   UNL     1      -6.739   6.586   1.337  0.00  0.00    +0.270 C 
ATOM     19  O   UNL     1      -7.107   5.528   0.441  0.00  0.00    -0.485 OA
ENDBRANCH   8  10
BRANCH   1  20
ATOM     20  C   UNL     1      -1.433  -0.534   0.013  0.00  0.00    +0.111 C 
BRANCH  20  21
ATOM     21  C   UNL     1      -1.416  -2.035  -0.119  0.00  0.00    +0.010 A 
ATOM     22  C   UNL     1      -1.625  -2.797  -1.220  0.00  0.00    +0.013 A 
ATOM     23  C   UNL     1      -1.558  -4.173  -1.105  0.00  0.00    +0.008 A 
ATOM     24  C   UNL     1      -1.286  -4.719   0.105  0.00  0.00    +0.045 A 
ATOM     25  S   UNL     1      -1.108  -3.270   1.132  0.00  0.00    -0.100 S 
ENDBRANCH  20  21
BRANCH  20  27
ATOM     26  C   UNL     1      -0.019   1.526   0.010  0.00  0.00    +0.006 C 
ATOM     27  C   UNL     1       0.002  -0.004   0.002  0.00  0.00    +0.024 C 
ENDBRANCH  20  27
ENDBRANCH   1  20
TORSDOF 4
