REMARK  Name = ZINC67290027
REMARK  7 active torsions:
REMARK  status: ('A' for Active; 'I' for Inactive)
REMARK    1  A    between atoms: C_1  and  C_2
REMARK    2  A    between atoms: C_5  and  C_9
REMARK    3  A    between atoms: C_7  and  C_8
REMARK    4  A    between atoms: C_12  and  S_18
REMARK    5  A    between atoms: S_18  and  C_19
REMARK    6  A    between atoms: C_19  and  C_20
REMARK    7  A    between atoms: N_22  and  C_23
REMARK                            x       y       z     vdW  Elec       q    Type
REMARK                         _______ _______ _______ _____ _____    ______ ____
ROOT
ATOM      1  C   UNL     1       0.067  -4.257  -0.020  0.00  0.00    +0.094 A 
ATOM      2  C   UNL     1       0.173  -5.064  -1.155  0.00  0.00    +0.060 A 
ATOM      3  C   UNL     1       0.161  -6.380  -0.734  0.00  0.00    +0.099 A 
ATOM      4  C   UNL     1       0.236  -7.623  -1.407  0.00  0.00    +0.123 A 
ATOM      5  N   UNL     1       0.198  -8.743  -0.709  0.00  0.00    -0.245 NA
ATOM      6  C   UNL     1       0.090  -8.724   0.623  0.00  0.00    +0.132 A 
ATOM      7  C   UNL     1       0.015  -7.565   1.307  0.00  0.00    +0.132 A 
ATOM      8  N   UNL     1       0.050  -6.370   0.635  0.00  0.00    -0.235 N 
ATOM      9  N   UNL     1      -0.000  -5.036   1.048  0.00  0.00    -0.166 NA
ENDROOT
BRANCH   1  14
ATOM     10  C   UNL     1      -0.034   1.502   0.010  0.00  0.00    +0.044 C 
ATOM     11  C   UNL     1      -0.007  -0.005   0.003  0.00  0.00    -0.047 A 
ATOM     12  C   UNL     1      -0.009  -0.688  -1.201  0.00  0.00    +0.004 A 
ATOM     13  C   UNL     1       0.016  -2.068  -1.214  0.00  0.00    +0.010 A 
ATOM     14  C   UNL     1       0.042  -2.773  -0.012  0.00  0.00    +0.002 A 
ATOM     15  C   UNL     1       0.043  -2.080   1.196  0.00  0.00    +0.013 A 
ATOM     16  C   UNL     1       0.024  -0.700   1.198  0.00  0.00    -0.047 A 
ATOM     17  C   UNL     1       0.031   0.051   2.504  0.00  0.00    +0.044 C 
ENDBRANCH   1  14
BRANCH   4  18
ATOM     18  S   UNL     1       0.378  -7.675  -3.163  0.00  0.00    -0.094 S 
BRANCH  18  19
ATOM     19  C   UNL     1       0.439  -9.447  -3.546  0.00  0.00    +0.172 C 
BRANCH  19  20
ATOM     20  C   UNL     1       0.562  -9.635  -5.036  0.00  0.00    +0.227 C 
ATOM     21  O   UNL     1       0.605  -8.669  -5.768  0.00  0.00    -0.275 OA
ATOM     22  N   UNL     1       0.624 -10.877  -5.556  0.00  0.00    -0.285 N 
ATOM     23  H   UNL     1       0.658 -11.648  -4.968  0.00  0.00    +0.155 HD
BRANCH  22  24
ATOM     24  C   UNL     1       0.641 -11.055  -6.944  0.00  0.00    +0.036 A 
ATOM     25  C   UNL     1       0.001 -12.147  -7.513  0.00  0.00    +0.043 A 
ATOM     26  C   UNL     1       0.018 -12.320  -8.885  0.00  0.00    +0.044 A 
ATOM     27  C   UNL     1       0.674 -11.405  -9.690  0.00  0.00    +0.040 A 
ATOM     28  C   UNL     1       1.313 -10.316  -9.125  0.00  0.00    +0.044 A 
ATOM     29  C   UNL     1       1.294 -10.135  -7.755  0.00  0.00    +0.043 A 
ATOM     30 CL   UNL     1       2.135  -9.171 -10.139  0.00  0.00    -0.083 Cl
ATOM     31 CL   UNL     1      -0.782 -13.686  -9.597  0.00  0.00    -0.083 Cl
ENDBRANCH  22  24
ENDBRANCH  19  20
ENDBRANCH  18  19
ENDBRANCH   4  18
TORSDOF 5
