REMARK  Name = ZINC22851701
REMARK  7 active torsions:
REMARK  status: ('A' for Active; 'I' for Inactive)
REMARK    1  A    between atoms: C_4  and  S_7
REMARK    2  A    between atoms: S_7  and  N_10
REMARK    3  A    between atoms: N_10  and  C_11
REMARK    4  A    between atoms: C_11  and  C_12
REMARK    5  A    between atoms: C_12  and  C_14
REMARK    6  A    between atoms: C_12  and  N_23
REMARK    7  A    between atoms: N_26  and  C_29
REMARK                            x       y       z     vdW  Elec       q    Type
REMARK                         _______ _______ _______ _____ _____    ______ ____
ROOT
ATOM      1  C   UNL     1       1.669   7.546  -1.035  0.00  0.00    +0.102 C 
ENDROOT
BRANCH   1   2
ATOM      2  C   UNL     1       0.938   8.034   0.190  0.00  0.00    -0.025 A 
ATOM      3  C   UNL     1       1.647   8.365   1.330  0.00  0.00    +0.009 A 
ATOM      4  C   UNL     1       0.981   8.813   2.455  0.00  0.00    +0.050 A 
ATOM      5  C   UNL     1      -0.399   8.931   2.444  0.00  0.00    +0.166 A 
ATOM      6  C   UNL     1      -1.113   8.598   1.296  0.00  0.00    +0.167 A 
ATOM      7  C   UNL     1      -0.439   8.155   0.169  0.00  0.00    +0.054 A 
ATOM      8  O   UNL     1      -2.442   8.798   1.534  0.00  0.00    -0.453 OA
ATOM      9  C   UNL     1      -2.500   9.643   2.699  0.00  0.00    +0.466 C 
ATOM     10  O   UNL     1      -1.281   9.340   3.402  0.00  0.00    -0.453 OA
ENDBRANCH   1   2
BRANCH   1  11
ATOM     11  N   UNL     1       1.383   6.120  -1.240  0.00  0.00    -0.291 NA
ATOM     12  C   UNL     1       1.906   5.313  -0.129  0.00  0.00    +0.104 C 
ATOM     13  C   UNL     1       1.659   3.831  -0.419  0.00  0.00    +0.120 C 
ATOM     14  N   UNL     1       0.218   3.603  -0.599  0.00  0.00    -0.327 N 
ATOM     15  C   UNL     1      -0.305   4.410  -1.710  0.00  0.00    +0.120 C 
ATOM     16  C   UNL     1      -0.058   5.893  -1.420  0.00  0.00    +0.104 C 
BRANCH  14  17
ATOM     17  C   UNL     1      -0.054   2.245  -0.794  0.00  0.00    +0.030 A 
ATOM     18  C   UNL     1      -1.361   1.819  -0.985  0.00  0.00    +0.026 A 
ATOM     19  C   UNL     1      -1.628   0.477  -1.178  0.00  0.00    +0.040 A 
ATOM     20  C   UNL     1      -0.592  -0.442  -1.182  0.00  0.00    +0.124 A 
ATOM     21  C   UNL     1       0.713  -0.019  -0.993  0.00  0.00    +0.040 A 
ATOM     22  C   UNL     1       0.984   1.322  -0.798  0.00  0.00    +0.026 A 
ATOM     23  F   UNL     1      -0.855  -1.754  -1.371  0.00  0.00    -0.205 F 
ENDBRANCH  14  17
ENDBRANCH   1  11
BRANCH   1  24
ATOM     24  C   UNL     1       1.203   8.341  -2.257  0.00  0.00    +0.129 C 
BRANCH  24  25
ATOM     25  N   UNL     1       1.823   7.789  -3.464  0.00  0.00    -0.188 NA
ATOM     26  H   UNL     1       2.775   7.243  -3.392  0.00  0.00    +0.148 HD
BRANCH  25  27
ATOM     27  S   UNL     1       1.232   8.193  -4.957  0.00  0.00    +0.058 S 
ATOM     28  O   UNL     1       2.049   7.529  -5.911  0.00  0.00    -0.153 OA
ATOM     29  O   UNL     1      -0.176   8.008  -4.900  0.00  0.00    -0.153 OA
BRANCH  27  33
ATOM     30  C   UNL     1       1.931  12.630  -5.519  0.00  0.00    +0.000 A 
ATOM     31  C   UNL     1       2.894  11.722  -5.919  0.00  0.00    +0.002 A 
ATOM     32  C   UNL     1       2.680  10.367  -5.747  0.00  0.00    +0.028 A 
ATOM     33  C   UNL     1       1.504   9.920  -5.175  0.00  0.00    +0.105 A 
ATOM     34  C   UNL     1       0.538  10.827  -4.781  0.00  0.00    +0.028 A 
ATOM     35  C   UNL     1       0.754  12.182  -4.947  0.00  0.00    +0.002 A 
ENDBRANCH  27  33
ENDBRANCH  25  27
ENDBRANCH  24  25
ENDBRANCH   1  24
TORSDOF 7
