REMARK  Name = ZINC13642964
REMARK  7 active torsions:
REMARK  status: ('A' for Active; 'I' for Inactive)
REMARK    1  A    between atoms: C_1  and  C_2
REMARK    2  A    between atoms: C_2  and  N_3
REMARK    3  A    between atoms: C_14  and  C_16
REMARK    4  A    between atoms: C_29  and  O_32
REMARK    5  A    between atoms: O_32  and  C_33
REMARK    6  A    between atoms: C_33  and  C_34
REMARK    7  A    between atoms: C_34  and  C_36
REMARK                            x       y       z     vdW  Elec       q    Type
REMARK                         _______ _______ _______ _____ _____    ______ ____
ROOT
ATOM      1  C   UNL     1      -0.770   8.923   0.058  0.00  0.00    +0.105 C 
ATOM      2  C   UNL     1      -0.835   9.478   1.483  0.00  0.00    +0.029 C 
ATOM      3  C   UNL     1      -1.656   8.478   2.345  0.00  0.00    +0.033 C 
ATOM      4  C   UNL     1      -3.095   8.848   2.043  0.00  0.00    -0.030 C 
ATOM      5  C   UNL     1      -3.168  10.072   1.583  0.00  0.00    -0.023 C 
ATOM      6  C   UNL     1      -1.791  10.690   1.504  0.00  0.00    +0.049 C 
ATOM      7  C   UNL     1      -1.653  11.521   0.262  0.00  0.00    -0.016 A 
ATOM      8  C   UNL     1      -2.332  12.733   0.211  0.00  0.00    +0.006 A 
ATOM      9  C   UNL     1      -2.249  13.542  -0.902  0.00  0.00    +0.004 A 
ATOM     10  C   UNL     1      -1.483  13.152  -1.986  0.00  0.00    +0.047 A 
ATOM     11  C   UNL     1      -0.802  11.949  -1.946  0.00  0.00    +0.142 A 
ATOM     12  C   UNL     1      -0.885  11.127  -0.817  0.00  0.00    +0.074 A 
ATOM     13  N   UNL     1      -0.176   9.924  -0.829  0.00  0.00    -0.334 N 
ATOM     14  H   UNL     1       0.796  10.075  -0.604  0.00  0.00    +0.147 HD
ENDROOT
BRANCH   1  26
ATOM     15  N   UNL     1       2.180   4.106   0.004  0.00  0.00    -0.340 N 
ATOM     16  C   UNL     1       1.164   3.167   0.008  0.00  0.00    +0.050 A 
ATOM     17  C   UNL     1       1.175   1.775   0.000  0.00  0.00    +0.026 A 
ATOM     18  C   UNL     1      -0.013   1.076   0.008  0.00  0.00    +0.002 A 
ATOM     19  C   UNL     1      -1.226   1.747   0.017  0.00  0.00    +0.001 A 
ATOM     20  C   UNL     1      -1.257   3.124   0.030  0.00  0.00    +0.010 A 
ATOM     21  C   UNL     1      -0.064   3.844   0.023  0.00  0.00    +0.008 A 
ATOM     22  C   UNL     1       0.251   5.284   0.028  0.00  0.00    +0.008 A 
ATOM     23  C   UNL     1       1.651   5.384   0.016  0.00  0.00    +0.050 A 
ATOM     24  C   UNL     1       2.243   6.643   0.018  0.00  0.00    +0.027 A 
ATOM     25  C   UNL     1       1.457   7.776   0.032  0.00  0.00    +0.007 A 
ATOM     26  C   UNL     1       0.075   7.674   0.044  0.00  0.00    -0.026 A 
ATOM     27  C   UNL     1      -0.531   6.436   0.041  0.00  0.00    +0.016 A 
BRANCH  15  29
ATOM     28  C   UNL     1       4.096   3.692  -1.458  0.00  0.00    +0.027 C 
ATOM     29  C   UNL     1       3.611   3.792  -0.011  0.00  0.00    +0.119 C 
ENDBRANCH  15  29
ENDBRANCH   1  26
BRANCH  11  30
ATOM     30  O   UNL     1      -0.048  11.563  -3.010  0.00  0.00    -0.486 OA
BRANCH  30  31
ATOM     31  C   UNL     1      -0.006  12.449  -4.130  0.00  0.00    +0.259 C 
BRANCH  31  32
ATOM     32  C   UNL     1       0.872  11.859  -5.204  0.00  0.00    -0.043 C 
ATOM     33  C   UNL     1       1.452  10.700  -5.013  0.00  0.00    +0.011 C 
ATOM     34  C   UNL     1       1.083  12.603  -6.497  0.00  0.00    +0.042 C 
ENDBRANCH  31  32
ENDBRANCH  30  31
ENDBRANCH  11  30
TORSDOF 5
