REMARK  Name = ZINC66055304
REMARK  12 active torsions:
REMARK  status: ('A' for Active; 'I' for Inactive)
REMARK    1  A    between atoms: C_1  and  C_2
REMARK    2  A    between atoms: C_2  and  O_3
REMARK    3  A    between atoms: O_3  and  C_4
REMARK    4  A    between atoms: C_4  and  C_6
REMARK    5  A    between atoms: C_6  and  C_7
REMARK    6  A    between atoms: C_6  and  C_8
REMARK    7  A    between atoms: C_6  and  C_21
REMARK    8  A    between atoms: C_11  and  C_17
REMARK    9  A    between atoms: C_12  and  N_14
REMARK   10  A    between atoms: C_21  and  O_23
REMARK   11  A    between atoms: O_23  and  C_24
REMARK   12  A    between atoms: C_24  and  C_25
REMARK                            x       y       z     vdW  Elec       q    Type
REMARK                         _______ _______ _______ _____ _____    ______ ____
ROOT
ATOM      1  C   UNL     1      -3.611  -1.979   1.256  0.00  0.00    -0.018 A 
ATOM      2  C   UNL     1      -4.062  -2.914   2.169  0.00  0.00    +0.006 A 
ATOM      3  C   UNL     1      -4.732  -2.504   3.306  0.00  0.00    +0.015 A 
ATOM      4  C   UNL     1      -4.950  -1.157   3.531  0.00  0.00    +0.085 A 
ATOM      5  C   UNL     1      -4.498  -0.222   2.620  0.00  0.00    +0.138 A 
ATOM      6  C   UNL     1      -3.825  -0.632   1.484  0.00  0.00    +0.038 A 
ENDROOT
BRANCH   4   7
ATOM      7  C   UNL     1      -5.681  -0.710   4.771  0.00  0.00    +0.420 C 
ATOM      8  F   UNL     1      -6.037  -1.828   5.532  0.00  0.00    -0.166 F 
ATOM      9  F   UNL     1      -4.850   0.124   5.527  0.00  0.00    -0.166 F 
ATOM     10  F   UNL     1      -6.835  -0.009   4.404  0.00  0.00    -0.166 F 
ENDBRANCH   4   7
BRANCH   5  11
ATOM     11  N   UNL     1      -4.732   1.220   2.861  0.00  0.00    +0.057 N 
ATOM     12  O   UNL     1      -4.337   2.038   2.064  0.00  0.00    -0.126 OA
ATOM     13  O   UNL     1      -5.319   1.579   3.855  0.00  0.00    -0.126 OA
ENDBRANCH   5  11
BRANCH   1  14
ATOM     14  C   UNL     1      -2.881  -2.427   0.017  0.00  0.00    +0.186 C 
ATOM     15  C   UNL     1      -2.780  -3.953   0.007  0.00  0.00    +0.040 C 
BRANCH  14  16
ATOM     16  C   UNL     1      -1.496  -1.832   0.006  0.00  0.00    +0.328 C 
ATOM     17  O   UNL     1      -0.528  -2.555  -0.007  0.00  0.00    -0.249 OA
BRANCH  16  18
ATOM     18  O   UNL     1      -1.339  -0.499   0.012  0.00  0.00    -0.464 OA
BRANCH  18  20
ATOM     19  C   UNL     1      -0.019   1.526   0.010  0.00  0.00    +0.048 C 
ATOM     20  C   UNL     1       0.002  -0.004   0.002  0.00  0.00    +0.229 C 
ENDBRANCH  18  20
ENDBRANCH  16  18
ENDBRANCH  14  16
BRANCH  14  21
ATOM     21  C   UNL     1      -3.635  -1.966  -1.204  0.00  0.00    +0.328 C 
ATOM     22  O   UNL     1      -4.660  -1.338  -1.080  0.00  0.00    -0.249 OA
BRANCH  21  23
ATOM     23  O   UNL     1      -3.167  -2.252  -2.429  0.00  0.00    -0.464 OA
BRANCH  23  24
ATOM     24  C   UNL     1      -3.933  -1.784  -3.542  0.00  0.00    +0.229 C 
ATOM     25  C   UNL     1      -3.248  -2.204  -4.844  0.00  0.00    +0.048 C 
ENDBRANCH  23  24
ENDBRANCH  21  23
ENDBRANCH  14  21
ENDBRANCH   1  14
TORSDOF 9
