REMARK  Name = ZINC39313531
REMARK  6 active torsions:
REMARK  status: ('A' for Active; 'I' for Inactive)
REMARK    1  A    between atoms: C_1  and  C_2
REMARK    2  A    between atoms: C_7  and  C_11
REMARK    3  A    between atoms: C_7  and  C_12
REMARK    4  A    between atoms: C_14  and  C_15
REMARK    5  A    between atoms: C_15  and  O_17
REMARK    6  A    between atoms: O_17  and  C_18
REMARK                            x       y       z     vdW  Elec       q    Type
REMARK                         _______ _______ _______ _____ _____    ______ ____
ROOT
ATOM      1  C   UNL     1      -0.019   1.526   0.010  0.00  0.00    +0.019 C 
ATOM      2  C   UNL     1       0.002  -0.004   0.002  0.00  0.00    +0.077 C 
ATOM      3  C   UNL     1      -1.394  -0.558   0.078  0.00  0.00    +0.025 C 
ATOM      4  C   UNL     1      -1.447  -1.275   1.240  0.00  0.00    +0.049 C 
ATOM      5  C   UNL     1      -2.716  -1.985   1.667  0.00  0.00    +0.062 C 
ATOM      6  C   UNL     1      -3.909  -1.238   1.061  0.00  0.00    -0.023 C 
ATOM      7  C   UNL     1      -3.766  -1.145  -0.459  0.00  0.00    +0.086 C 
ATOM      8  C   UNL     1      -2.482  -0.422  -0.808  0.00  0.00    +0.162 C 
ATOM      9  O   UNL     1      -2.393   0.250  -1.815  0.00  0.00    -0.292 OA
ATOM     10  C   UNL     1      -3.972   0.174   1.649  0.00  0.00    +0.011 C 
ATOM     11  C   UNL     1      -5.199  -1.984   1.402  0.00  0.00    +0.011 C 
ATOM     12  N   UNL     1      -0.280  -1.241   1.880  0.00  0.00    -0.248 NA
ATOM     13  C   UNL     1       0.643  -0.542   1.271  0.00  0.00    +0.132 C 
ENDROOT
BRANCH  13  14
ATOM     14  C   UNL     1       2.032  -0.318   1.723  0.00  0.00    +0.354 C 
ATOM     15  O   UNL     1       2.786   0.358   1.054  0.00  0.00    -0.244 OA
BRANCH  14  16
ATOM     16  O   UNL     1       2.460  -0.863   2.878  0.00  0.00    -0.457 OA
BRANCH  16  17
ATOM     17  C   UNL     1       3.815  -0.605   3.255  0.00  0.00    +0.177 C 
ATOM     18  C   UNL     1       3.875   0.632   4.109  0.00  0.00    +0.044 C 
ATOM     19  C   UNL     1       5.167   1.441   3.885  0.00  0.00    +0.004 C 
ATOM     20  C   UNL     1       6.417   0.549   3.766  0.00  0.00    +0.000 C 
ATOM     21  C   UNL     1       6.420  -0.574   4.767  0.00  0.00    +0.000 C 
ATOM     22  C   UNL     1       5.815  -1.826   4.099  0.00  0.00    +0.004 C 
ATOM     23  C   UNL     1       4.361  -1.793   4.073  0.00  0.00    +0.044 C 
ENDBRANCH  16  17
ENDBRANCH  14  16
ENDBRANCH  13  14
TORSDOF 3
