REMARK  Name = ZINC23845987
REMARK  10 active torsions:
REMARK  status: ('A' for Active; 'I' for Inactive)
REMARK    1  A    between atoms: C_1  and  C_2
REMARK    2  A    between atoms: C_2  and  C_3
REMARK    3  A    between atoms: C_2  and  C_4
REMARK    4  A    between atoms: C_4  and  N_5
REMARK    5  A    between atoms: C_6  and  N_34
REMARK    6  A    between atoms: C_7  and  C_14
REMARK    7  A    between atoms: N_10  and  C_13
REMARK    8  A    between atoms: C_14  and  C_16
REMARK    9  A    between atoms: C_14  and  N_22
REMARK   10  A    between atoms: N_25  and  C_28
REMARK                            x       y       z     vdW  Elec       q    Type
REMARK                         _______ _______ _______ _____ _____    ______ ____
ROOT
ATOM      1  C   UNL     1       0.113   2.413   4.853  0.00  0.00    +0.126 C 
ENDROOT
BRANCH   1   4
ATOM      2  N   UNL     1      -3.264   2.677   3.234  0.00  0.00    -0.281 N 
ATOM      3  C   UNL     1      -2.276   2.689   4.188  0.00  0.00    +0.110 A 
ATOM      4  C   UNL     1      -0.989   2.407   3.826  0.00  0.00    +0.076 A 
ATOM      5  C   UNL     1      -0.709   2.110   2.483  0.00  0.00    +0.263 A 
ATOM      6  O   UNL     1       0.432   1.855   2.136  0.00  0.00    -0.267 OA
ATOM      7  N   UNL     1      -1.708   2.109   1.579  0.00  0.00    -0.264 N 
ATOM      8  C   UNL     1      -2.969   2.395   1.952  0.00  0.00    +0.333 A 
ATOM      9  O   UNL     1      -3.854   2.393   1.119  0.00  0.00    -0.246 OA
ATOM     10  C   UNL     1      -1.418   1.801   0.176  0.00  0.00    +0.157 C 
BRANCH   3  11
ATOM     11  N   UNL     1      -2.579   2.982   5.494  0.00  0.00    -0.344 N 
ATOM     12  H   UNL     1      -1.784   2.990   6.254  0.00  0.00    +0.144 HD
ATOM     13  H   UNL     1      -3.617   3.208   5.780  0.00  0.00    +0.144 HD
ENDBRANCH   3  11
BRANCH   2  14
ATOM     14  C   UNL     1      -4.647   2.978   3.613  0.00  0.00    +0.131 C 
BRANCH  14  16
ATOM     15  C   UNL     1      -6.370   4.782   3.759  0.00  0.00    +0.009 C 
ATOM     16  C   UNL     1      -4.895   4.483   3.485  0.00  0.00    +0.003 C 
ATOM     17  C   UNL     1      -4.025   5.231   4.497  0.00  0.00    +0.009 C 
ENDBRANCH  14  16
ENDBRANCH   2  14
ENDBRANCH   1   4
BRANCH   1  18
ATOM     18  C   UNL     1       0.620   1.008   5.055  0.00  0.00    -0.026 A 
ATOM     19  C   UNL     1       1.614   0.508   4.235  0.00  0.00    +0.005 A 
ATOM     20  C   UNL     1       2.082  -0.779   4.422  0.00  0.00    +0.000 A 
ATOM     21  C   UNL     1       1.550  -1.569   5.424  0.00  0.00    +0.000 A 
ATOM     22  C   UNL     1       0.552  -1.071   6.241  0.00  0.00    +0.000 A 
ATOM     23  C   UNL     1       0.087   0.218   6.056  0.00  0.00    +0.005 A 
ENDBRANCH   1  18
BRANCH   1  24
ATOM     24  N   UNL     1       1.213   3.268   4.387  0.00  0.00    -0.288 NA
ATOM     25  C   UNL     1       2.288   3.337   5.387  0.00  0.00    +0.104 C 
ATOM     26  C   UNL     1       3.445   4.170   4.831  0.00  0.00    +0.120 C 
ATOM     27  N   UNL     1       2.959   5.514   4.492  0.00  0.00    -0.327 N 
ATOM     28  C   UNL     1       1.884   5.446   3.492  0.00  0.00    +0.120 C 
ATOM     29  C   UNL     1       0.727   4.613   4.048  0.00  0.00    +0.104 C 
BRANCH  27  30
ATOM     30  C   UNL     1       4.005   6.327   4.048  0.00  0.00    +0.030 A 
ATOM     31  C   UNL     1       3.932   6.937   2.802  0.00  0.00    +0.023 A 
ATOM     32  C   UNL     1       4.965   7.744   2.369  0.00  0.00    +0.002 A 
ATOM     33  C   UNL     1       6.076   7.937   3.169  0.00  0.00    +0.000 A 
ATOM     34  C   UNL     1       6.154   7.328   4.408  0.00  0.00    +0.002 A 
ATOM     35  C   UNL     1       5.122   6.524   4.850  0.00  0.00    +0.023 A 
ENDBRANCH  27  30
ENDBRANCH   1  24
TORSDOF 7
