REMARK  Name = ZINC40546382
REMARK  7 active torsions:
REMARK  status: ('A' for Active; 'I' for Inactive)
REMARK    1  A    between atoms: C_1  and  C_2
REMARK    2  A    between atoms: C_5  and  C_9
REMARK    3  A    between atoms: C_6  and  N_8
REMARK    4  A    between atoms: C_14  and  C_20
REMARK    5  A    between atoms: C_20  and  C_21
REMARK    6  A    between atoms: C_20  and  C_22
REMARK    7  A    between atoms: C_20  and  C_23
REMARK                            x       y       z     vdW  Elec       q    Type
REMARK                         _______ _______ _______ _____ _____    ______ ____
ROOT
ATOM      1  C   UNL     1      -0.018   1.503   0.010  0.00  0.00    +0.086 C 
ATOM      2  C   UNL     1       0.002  -0.004   0.002  0.00  0.00    +0.106 C 
ATOM      3  C   UNL     1      -1.138  -0.653   0.004  0.00  0.00    +0.088 C 
ATOM      4  C   UNL     1      -1.183  -2.155  -0.004  0.00  0.00    +0.240 C 
ATOM      5  C   UNL     1       0.159  -2.720   0.374  0.00  0.00    +0.152 C 
ATOM      6  C   UNL     1       1.266  -1.934   0.352  0.00  0.00    +0.203 C 
ATOM      7  O   UNL     1       1.193  -0.639  -0.013  0.00  0.00    -0.446 OA
ATOM      8  N   UNL     1      -2.207  -2.632   0.932  0.00  0.00    -0.296 N 
ATOM      9  C   UNL     1      -3.128  -3.360   0.165  0.00  0.00    +0.074 A 
ATOM     10  C   UNL     1      -4.286  -4.035   0.530  0.00  0.00    +0.031 A 
ATOM     11  C   UNL     1      -5.037  -4.690  -0.428  0.00  0.00    -0.039 A 
ATOM     12  C   UNL     1      -4.636  -4.673  -1.751  0.00  0.00    +0.023 A 
ATOM     13  C   UNL     1      -3.485  -4.004  -2.121  0.00  0.00    +0.062 A 
ATOM     14  C   UNL     1      -2.723  -3.343  -1.164  0.00  0.00    +0.159 A 
ATOM     15  O   UNL     1      -1.571  -2.631  -1.294  0.00  0.00    -0.457 OA
ATOM     16 BR   UNL     1      -2.944  -3.987  -3.933  0.00  0.00    -0.046 Br
ATOM     17  H   UNL     1      -2.240  -2.476   1.889  0.00  0.00    +0.151 HD
ENDROOT
BRANCH  11  18
ATOM     18  C   UNL     1      -6.293  -5.421  -0.030  0.00  0.00    -0.013 C 
ATOM     19  C   UNL     1      -7.278  -4.437   0.602  0.00  0.00    +0.015 C 
ATOM     20  C   UNL     1      -6.928  -6.054  -1.270  0.00  0.00    +0.015 C 
ATOM     21  C   UNL     1      -5.947  -6.516   0.981  0.00  0.00    +0.015 C 
ENDBRANCH  11  18
BRANCH   6  22
ATOM     22  N   UNL     1       2.481  -2.470   0.702  0.00  0.00    -0.328 N 
ATOM     23  H   UNL     1       2.543  -3.402   0.962  0.00  0.00    +0.145 HD
ATOM     24  H   UNL     1       3.277  -1.916   0.690  0.00  0.00    +0.145 HD
ENDBRANCH   6  22
BRANCH   5  25
ATOM     25  C   UNL     1       0.269  -4.095   0.759  0.00  0.00    +0.106 C 
ATOM     26  N   UNL     1       0.357  -5.185   1.065  0.00  0.00    -0.191 NA
ENDBRANCH   5  25
TORSDOF 3
