REMARK  Name = ZINC33033301
REMARK  6 active torsions:
REMARK  status: ('A' for Active; 'I' for Inactive)
REMARK    1  A    between atoms: C_1  and  C_2
REMARK    2  A    between atoms: C_9  and  C_11
REMARK    3  A    between atoms: C_14  and  N_26
REMARK    4  A    between atoms: C_15  and  N_17
REMARK    5  A    between atoms: N_17  and  S_18
REMARK    6  A    between atoms: S_18  and  C_21
REMARK                            x       y       z     vdW  Elec       q    Type
REMARK                         _______ _______ _______ _____ _____    ______ ____
ROOT
ATOM      1  C   UNL     1       0.468  -4.234   2.070  0.00  0.00    +0.039 A 
ATOM      2  C   UNL     1       1.033  -4.857   0.954  0.00  0.00    +0.015 A 
ATOM      3  C   UNL     1       1.053  -6.232   0.869  0.00  0.00    +0.026 A 
ATOM      4  C   UNL     1       0.510  -7.003   1.890  0.00  0.00    +0.054 A 
ATOM      5  C   UNL     1      -0.057  -6.386   3.008  0.00  0.00    +0.096 A 
ATOM      6  C   UNL     1      -0.073  -5.007   3.101  0.00  0.00    +0.041 A 
ENDROOT
BRANCH   1  14
ATOM      7  C   UNL     1      -1.665   1.377   0.882  0.00  0.00    +0.009 C 
ATOM      8  C   UNL     1      -1.570  -0.150   0.906  0.00  0.00    +0.003 C 
ATOM      9  C   UNL     1      -1.950  -0.707  -0.467  0.00  0.00    +0.006 C 
ATOM     10  C   UNL     1      -1.887  -2.236  -0.435  0.00  0.00    +0.019 C 
ATOM     11  C   UNL     1      -0.456  -2.677  -0.113  0.00  0.00    +0.108 C 
ATOM     12  N   UNL     1      -0.030  -2.029   1.135  0.00  0.00    -0.297 N 
ATOM     13  C   UNL     1      -0.135  -0.568   1.244  0.00  0.00    +0.111 C 
ATOM     14  C   UNL     1       0.447  -2.761   2.161  0.00  0.00    +0.247 C 
ATOM     15  O   UNL     1       0.860  -2.208   3.162  0.00  0.00    -0.270 OA
ENDBRANCH   1  14
BRANCH   4  16
ATOM     16  N   UNL     1       0.532  -8.393   1.799  0.00  0.00    -0.332 N 
ATOM     17  C   UNL     1      -0.574  -9.127   1.164  0.00  0.00    +0.086 C 
ATOM     18  C   UNL     1       0.014 -10.096   0.134  0.00  0.00    -0.063 C 
ATOM     19  N   UNL     1       1.016 -10.952   0.783  0.00  0.00    +0.381 N 
ATOM     20  C   UNL     1       2.145 -10.136   1.248  0.00  0.00    -0.063 C 
ATOM     21  C   UNL     1       1.665  -9.168   2.329  0.00  0.00    +0.086 C 
ATOM     22  H   UNL     1       0.595 -11.421   1.571  0.00  0.00    -0.086 HD
ATOM     23  H   UNL     1       1.348 -11.639   0.123  0.00  0.00    -0.086 HD
ENDBRANCH   4  16
BRANCH   5  24
ATOM     24  N   UNL     1      -0.603  -7.164   4.036  0.00  0.00    -0.095 NA
BRANCH  24  25
ATOM     25  S   UNL     1      -1.275  -6.432   5.361  0.00  0.00    +0.098 S 
ATOM     26  O   UNL     1      -0.215  -5.779   6.045  0.00  0.00    -0.148 OA
ATOM     27  O   UNL     1      -2.427  -5.738   4.901  0.00  0.00    -0.148 OA
BRANCH  25  28
ATOM     28  C   UNL     1      -1.851  -7.711   6.427  0.00  0.00    +0.148 A 
ATOM     29  C   UNL     1      -1.196  -8.344   7.431  0.00  0.00    +0.037 A 
ATOM     30  C   UNL     1      -1.854  -9.329   8.144  0.00  0.00    +0.010 A 
ATOM     31  C   UNL     1      -3.134  -9.632   7.818  0.00  0.00    +0.047 A 
ATOM     32  S   UNL     1      -3.449  -8.504   6.471  0.00  0.00    -0.077 S 
ENDBRANCH  25  28
ENDBRANCH  24  25
ENDBRANCH   5  24
TORSDOF 5
