REMARK  Name = ZINC20916266
REMARK  10 active torsions:
REMARK  status: ('A' for Active; 'I' for Inactive)
REMARK    1  A    between atoms: C_2  and  C_3
REMARK    2  A    between atoms: C_3  and  S_4
REMARK    3  A    between atoms: S_4  and  C_5
REMARK    4  A    between atoms: C_11  and  C_13
REMARK    5  A    between atoms: C_13  and  S_14
REMARK    6  A    between atoms: S_14  and  C_15
REMARK    7  A    between atoms: N_19  and  N_20
REMARK    8  A    between atoms: N_21  and  N_22
REMARK    9  A    between atoms: C_23  and  C_24
REMARK   10  A    between atoms: C_33  and  O_34
REMARK                            x       y       z     vdW  Elec       q    Type
REMARK                         _______ _______ _______ _____ _____    ______ ____
ROOT
ATOM      1  C   UNL     1      -0.641  -6.966  -0.028  0.00  0.00    +0.210 A 
ATOM      2  N   UNL     1       0.577  -7.452  -0.048  0.00  0.00    -0.119 NA
ATOM      3  N   UNL     1       0.485  -8.850  -0.049  0.00  0.00    -0.109 NA
ATOM      4  C   UNL     1      -0.786  -9.172  -0.039  0.00  0.00    +0.254 A 
ATOM      5  N   UNL     1      -1.515  -8.016  -0.025  0.00  0.00    -0.211 N 
ATOM      6  N   UNL     1      -1.300 -10.460  -0.041  0.00  0.00    -0.204 N 
ATOM      7  H   UNL     1      -2.389 -10.618  -0.032  0.00  0.00    +0.177 HD
ENDROOT
BRANCH   5   8
ATOM      8  N   UNL     1      -2.878  -7.926  -0.011  0.00  0.00    -0.294 N 
ATOM      9  H   UNL     1      -3.489  -8.840  -0.011  0.00  0.00    +0.163 HD
ATOM     10  H   UNL     1      -3.364  -6.939  -0.001  0.00  0.00    +0.163 HD
ENDBRANCH   5   8
BRANCH   6  11
ATOM     11  N   UNL     1      -0.433 -11.561  -0.055  0.00  0.00    -0.187 NA
ATOM     12  C   UNL     1      -0.916 -12.768  -0.057  0.00  0.00    +0.142 C 
BRANCH  12  13
ATOM     13  C   UNL     1      -0.006 -13.923  -0.072  0.00  0.00    +0.044 A 
ATOM     14  C   UNL     1      -0.531 -15.287  -0.069  0.00  0.00    -0.006 A 
ATOM     15  C   UNL     1      -1.908 -15.540  -0.051  0.00  0.00    +0.009 A 
ATOM     16  C   UNL     1      -2.357 -16.827  -0.048  0.00  0.00    +0.001 A 
ATOM     17  C   UNL     1      -1.463 -17.896  -0.062  0.00  0.00    +0.001 A 
ATOM     18  C   UNL     1      -0.118 -17.686  -0.090  0.00  0.00    +0.008 A 
ATOM     19  C   UNL     1       0.380 -16.371  -0.089  0.00  0.00    -0.017 A 
ATOM     20  C   UNL     1       1.762 -16.115  -0.100  0.00  0.00    +0.012 A 
ATOM     21  C   UNL     1       2.233 -14.840  -0.097  0.00  0.00    +0.046 A 
ATOM     22  C   UNL     1       1.377 -13.741  -0.084  0.00  0.00    +0.126 A 
BRANCH  22  23
ATOM     23  O   UNL     1       1.891 -12.484  -0.082  0.00  0.00    -0.506 OA
ATOM     24  H   UNL     1       2.981 -12.336  -0.092  0.00  0.00    +0.292 HD
ENDBRANCH  22  23
ENDBRANCH  12  13
ENDBRANCH   6  11
BRANCH   1  25
ATOM     25  S   UNL     1      -1.074  -5.258  -0.015  0.00  0.00    -0.075 S 
BRANCH  25  26
ATOM     26  C   UNL     1       0.524  -4.400  -0.026  0.00  0.00    +0.173 C 
BRANCH  26  33
ATOM     27  C   UNL     1       1.100   1.973   0.002  0.00  0.00    +0.160 A 
ATOM     28  N   UNL     1      -0.015   1.257   0.009  0.00  0.00    -0.133 NA
ATOM     29  N   UNL     1       0.002  -0.004   0.002  0.00  0.00    -0.125 NA
ATOM     30  C   UNL     1       1.133  -0.690  -0.013  0.00  0.00    +0.189 A 
ATOM     31  S   UNL     1       2.314   0.656  -0.017  0.00  0.00    -0.024 S 
ATOM     32  N   UNL     1       1.345  -2.067  -0.021  0.00  0.00    -0.263 N 
ATOM     33  C   UNL     1       0.294  -2.910  -0.016  0.00  0.00    +0.229 C 
ATOM     34  O   UNL     1      -0.836  -2.471  -0.003  0.00  0.00    -0.275 OA
ATOM     35  H   UNL     1       2.370  -2.465  -0.033  0.00  0.00    +0.157 HD
BRANCH  27  36
ATOM     36  S   UNL     1       1.324   3.720   0.009  0.00  0.00    -0.093 S 
BRANCH  36  37
ATOM     37  C   UNL     1      -0.365   4.380   0.028  0.00  0.00    +0.103 C 
BRANCH  37  39
ATOM     38  C   UNL     1      -0.785   6.561  -0.985  0.00  0.00    +0.005 C 
ATOM     39  C   UNL     1      -0.317   5.886   0.035  0.00  0.00    -0.023 C 
ENDBRANCH  37  39
ENDBRANCH  36  37
ENDBRANCH  27  36
ENDBRANCH  26  33
ENDBRANCH  25  26
ENDBRANCH   1  25
TORSDOF 10
