REMARK  Name = ZINC62037984
REMARK  6 active torsions:
REMARK  status: ('A' for Active; 'I' for Inactive)
REMARK    1  A    between atoms: C_5  and  C_6
REMARK    2  A    between atoms: C_6  and  C_8
REMARK    3  A    between atoms: C_6  and  N_10
REMARK    4  A    between atoms: C_8  and  N_9
REMARK    5  A    between atoms: C_13  and  C_16
REMARK    6  A    between atoms: C_16  and  N_17
REMARK                            x       y       z     vdW  Elec       q    Type
REMARK                         _______ _______ _______ _____ _____    ______ ____
ROOT
ATOM      1  N   UNL     1      -0.870  -2.493   0.695  0.00  0.00    -0.297 NA
ATOM      2  C   UNL     1      -1.805  -3.561   0.320  0.00  0.00    +0.085 C 
ATOM      3  C   UNL     1      -1.318  -4.893   0.896  0.00  0.00    +0.017 C 
ATOM      4  C   UNL     1      -1.227  -4.781   2.420  0.00  0.00    -0.025 C 
ATOM      5  C   UNL     1      -0.284  -3.631   2.784  0.00  0.00    +0.017 C 
ATOM      6  C   UNL     1      -0.801  -2.335   2.154  0.00  0.00    +0.085 C 
ENDROOT
BRANCH   1   7
ATOM      7  C   UNL     1      -1.230  -1.226   0.045  0.00  0.00    +0.076 C 
BRANCH   7  12
ATOM      8  C   UNL     1      -0.451   1.141   0.731  0.00  0.00    +0.014 A 
ATOM      9  C   UNL     1       0.628   1.941   1.061  0.00  0.00    +0.023 A 
ATOM     10  C   UNL     1       1.870   1.397   1.074  0.00  0.00    +0.055 A 
ATOM     11  S   UNL     1       1.537  -0.294   0.611  0.00  0.00    -0.085 S 
ATOM     12  C   UNL     1      -0.234  -0.163   0.431  0.00  0.00    +0.006 A 
ATOM     13 BR   UNL     1       3.525   2.218   1.478  0.00  0.00    -0.043 Br
ENDBRANCH   7  12
BRANCH   7  14
ATOM     14  C   UNL     1      -1.218  -1.410  -1.473  0.00  0.00    -0.062 C 
BRANCH  14  15
ATOM     15  N   UNL     1       0.083  -1.948  -1.891  0.00  0.00    +0.379 N 
ATOM     16  H   UNL     1       0.804  -1.266  -1.710  0.00  0.00    -0.090 HD
ATOM     17  H   UNL     1       0.281  -2.791  -1.372  0.00  0.00    -0.090 HD
ATOM     18  H   UNL     1       0.059  -2.159  -2.877  0.00  0.00    -0.090 HD
ENDBRANCH  14  15
ENDBRANCH   7  14
ENDBRANCH   1   7
BRANCH   4  19
ATOM     19  C   UNL     1      -0.682  -6.090   2.997  0.00  0.00    -0.075 C 
BRANCH  19  20
ATOM     20  N   UNL     1      -0.707  -6.026   4.464  0.00  0.00    +0.380 N 
ATOM     21  C   UNL     1      -2.109  -6.033   4.954  0.00  0.00    -0.079 C 
ATOM     22  C   UNL     1      -1.972  -6.525   6.416  0.00  0.00    -0.020 C 
ATOM     23  C   UNL     1      -0.850  -7.584   6.321  0.00  0.00    -0.020 C 
ATOM     24  C   UNL     1      -0.073  -7.233   5.038  0.00  0.00    -0.079 C 
ATOM     25  H   UNL     1      -0.230  -5.197   4.785  0.00  0.00    -0.082 HD
ENDBRANCH  19  20
ENDBRANCH   4  19
TORSDOF 6
