REMARK  Name = ZINC00084030
REMARK  6 active torsions:
REMARK  status: ('A' for Active; 'I' for Inactive)
REMARK    1  A    between atoms: C_1  and  C_2
REMARK    2  A    between atoms: C_5  and  S_8
REMARK    3  A    between atoms: S_8  and  N_11
REMARK    4  A    between atoms: N_11  and  C_12
REMARK    5  A    between atoms: C_15  and  O_20
REMARK    6  A    between atoms: C_17  and  C_18
REMARK                            x       y       z     vdW  Elec       q    Type
REMARK                         _______ _______ _______ _____ _____    ______ ____
ROOT
ATOM      1  N   UNL     1       3.585   2.129  -0.020  0.00  0.00    -0.216 N 
ATOM      2  H   UNL     1       4.322   1.814  -0.567  0.00  0.00    +0.174 HD
ENDROOT
BRANCH   1   3
ATOM      3  C   UNL     1       2.451   1.327   0.155  0.00  0.00    +0.054 A 
ATOM      4  C   UNL     1       1.194   1.911   0.245  0.00  0.00    +0.048 A 
ATOM      5  C   UNL     1       0.076   1.119   0.418  0.00  0.00    +0.086 A 
ATOM      6  C   UNL     1       0.208  -0.260   0.504  0.00  0.00    +0.154 A 
ATOM      7  C   UNL     1       1.463  -0.844   0.414  0.00  0.00    +0.088 A 
ATOM      8  C   UNL     1       2.583  -0.052   0.240  0.00  0.00    -0.006 A 
ATOM      9  C   UNL     1       3.947  -0.686   0.143  0.00  0.00    +0.047 C 
ATOM     10 CL   UNL     1       1.628  -2.569   0.521  0.00  0.00    -0.079 Cl
ATOM     11 CL   UNL     1      -1.496   1.848   0.523  0.00  0.00    -0.080 Cl
BRANCH   6  12
ATOM     12  O   UNL     1      -0.894  -1.040   0.675  0.00  0.00    -0.504 OA
ATOM     13  H   UNL     1      -1.304  -1.328  -0.152  0.00  0.00    +0.292 HD
ENDBRANCH   6  12
ENDBRANCH   1   3
BRANCH   1  14
ATOM     14  S   UNL     1       3.667   3.616   0.705  0.00  0.00    +0.072 S 
ATOM     15  O   UNL     1       4.972   4.119   0.452  0.00  0.00    -0.150 OA
ATOM     16  O   UNL     1       2.493   4.319   0.324  0.00  0.00    -0.150 OA
BRANCH  14  21
ATOM     17  C   UNL     1       3.287   2.721   6.660  0.00  0.00    +0.044 C 
ATOM     18  C   UNL     1       3.382   2.945   5.172  0.00  0.00    -0.050 A 
ATOM     19  C   UNL     1       4.617   2.950   4.552  0.00  0.00    +0.005 A 
ATOM     20  C   UNL     1       4.705   3.155   3.187  0.00  0.00    +0.029 A 
ATOM     21  C   UNL     1       3.556   3.354   2.444  0.00  0.00    +0.109 A 
ATOM     22  C   UNL     1       2.321   3.354   3.065  0.00  0.00    +0.029 A 
ATOM     23  C   UNL     1       2.234   3.144   4.428  0.00  0.00    +0.005 A 
ENDBRANCH  14  21
ENDBRANCH   1  14
TORSDOF 4
