REMARK  Name = ZINC39422065
REMARK  11 active torsions:
REMARK  status: ('A' for Active; 'I' for Inactive)
REMARK    1  A    between atoms: C_1  and  C_2
REMARK    2  A    between atoms: C_2  and  C_32
REMARK    3  A    between atoms: C_4  and  N_10
REMARK    4  A    between atoms: C_6  and  C_8
REMARK    5  A    between atoms: C_6  and  C_9
REMARK    6  A    between atoms: N_10  and  C_11
REMARK    7  A    between atoms: N_10  and  C_18
REMARK    8  A    between atoms: C_11  and  C_12
REMARK    9  A    between atoms: C_18  and  N_20
REMARK   10  A    between atoms: N_20  and  C_21
REMARK   11  A    between atoms: C_26  and  C_27
REMARK                            x       y       z     vdW  Elec       q    Type
REMARK                         _______ _______ _______ _____ _____    ______ ____
ROOT
ATOM      1  N   UNL     1      -2.839  -2.347  -0.003  0.00  0.00    -0.305 N 
ENDROOT
BRANCH   1   5
ATOM      2  C   UNL     1       1.880  -3.703   0.014  0.00  0.00    -0.010 C 
ATOM      3  C   UNL     1       0.954  -2.464   0.010  0.00  0.00    -0.072 C 
ATOM      4  C   UNL     1      -0.479  -2.966   0.146  0.00  0.00    +0.009 C 
ATOM      5  C   UNL     1      -1.469  -1.829  -0.109  0.00  0.00    +0.073 C 
ATOM      6  C   UNL     1      -1.237  -1.305  -1.526  0.00  0.00    +0.009 C 
ATOM      7  C   UNL     1       0.190  -0.789  -1.675  0.00  0.00    -0.072 C 
ATOM      8  N   UNL     1       1.194  -1.738  -1.225  0.00  0.00    +0.386 N 
ATOM      9  C   UNL     1       0.333   0.556  -0.955  0.00  0.00    -0.010 C 
ATOM     10  C   UNL     1       0.432  -0.526  -3.179  0.00  0.00    -0.010 C 
ATOM     11  C   UNL     1       1.326  -1.621   1.234  0.00  0.00    -0.010 C 
ATOM     12  H   UNL     1       2.087  -1.243  -1.138  0.00  0.00    -0.084 HD
ATOM     13  H   UNL     1       1.347  -2.421  -1.973  0.00  0.00    -0.084 HD
ENDBRANCH   1   5
BRANCH   1  14
ATOM     14  C   UNL     1      -3.647  -1.916   0.986  0.00  0.00    +0.138 C 
ATOM     15  S   UNL     1      -5.207  -2.596   1.174  0.00  0.00    -0.018 S 
BRANCH  14  16
ATOM     16  N   UNL     1      -3.228  -0.950   1.827  0.00  0.00    -0.296 N 
ATOM     17  H   UNL     1      -2.908  -1.183   2.713  0.00  0.00    +0.154 HD
BRANCH  16  18
ATOM     18  C   UNL     1      -3.252   0.389   1.422  0.00  0.00    +0.044 A 
ATOM     19  C   UNL     1      -3.811   0.736   0.198  0.00  0.00    +0.025 A 
ATOM     20  C   UNL     1      -3.834   2.058  -0.199  0.00  0.00    +0.022 A 
ATOM     21  C   UNL     1      -3.302   3.038   0.621  0.00  0.00    +0.042 A 
ATOM     22  C   UNL     1      -2.745   2.695   1.840  0.00  0.00    +0.034 A 
ATOM     23  C   UNL     1      -2.724   1.375   2.245  0.00  0.00    +0.077 A 
ATOM     24 CL   UNL     1      -3.332   4.699   0.118  0.00  0.00    -0.084 Cl
BRANCH  23  25
ATOM     25  C   UNL     1      -2.122   1.003   3.576  0.00  0.00    +0.419 C 
ATOM     26  F   UNL     1      -1.660   2.158   4.217  0.00  0.00    -0.166 F 
ATOM     27  F   UNL     1      -3.093   0.385   4.370  0.00  0.00    -0.166 F 
ATOM     28  F   UNL     1      -1.054   0.122   3.375  0.00  0.00    -0.166 F 
ENDBRANCH  23  25
ENDBRANCH  16  18
ENDBRANCH  14  16
ENDBRANCH   1  14
BRANCH   1  29
ATOM     29  C   UNL     1      -3.327  -3.332  -0.971  0.00  0.00    +0.142 C 
BRANCH  29  30
ATOM     30  C   UNL     1      -3.129  -4.720  -0.419  0.00  0.00    -0.027 A 
ATOM     31  C   UNL     1      -2.006  -5.462  -0.752  0.00  0.00    +0.025 A 
ATOM     32  C   UNL     1      -1.858  -6.732  -0.227  0.00  0.00    +0.111 A 
ATOM     33  N   UNL     1      -2.769  -7.238   0.581  0.00  0.00    -0.263 NA
ATOM     34  C   UNL     1      -3.849  -6.561   0.919  0.00  0.00    +0.111 A 
ATOM     35  C   UNL     1      -4.062  -5.283   0.437  0.00  0.00    +0.025 A 
ENDBRANCH  29  30
ENDBRANCH   1  29
TORSDOF 7
