REMARK  Name = ZINC13015911
REMARK  15 active torsions:
REMARK  status: ('A' for Active; 'I' for Inactive)
REMARK    1  A    between atoms: C_1  and  C_2
REMARK    2  A    between atoms: C_2  and  C_3
REMARK    3  A    between atoms: C_3  and  C_5
REMARK    4  A    between atoms: C_3  and  N_6
REMARK    5  A    between atoms: C_7  and  C_9
REMARK    6  A    between atoms: C_9  and  N_10
REMARK    7  A    between atoms: C_13  and  C_26
REMARK    8  A    between atoms: C_13  and  C_28
REMARK    9  A    between atoms: N_14  and  C_17
REMARK   10  A    between atoms: C_17  and  C_18
REMARK   11  A    between atoms: N_20  and  C_21
REMARK   12  A    between atoms: C_21  and  C_23
REMARK   13  A    between atoms: C_21  and  C_24
REMARK   14  A    between atoms: C_24  and  C_25
REMARK   15  A    between atoms: C_26  and  C_27
REMARK                            x       y       z     vdW  Elec       q    Type
REMARK                         _______ _______ _______ _____ _____    ______ ____
ROOT
ATOM      1  N   UNL     1      -0.637   6.724  -1.842  0.00  0.00    -0.215 N 
ATOM      2  C   UNL     1       0.411   6.212  -1.167  0.00  0.00    +0.252 C 
ATOM      3  O   UNL     1       1.557   6.120  -1.553  0.00  0.00    -0.272 OA
ATOM      4  C   UNL     1      -0.140   5.773   0.175  0.00  0.00    +0.141 C 
ATOM      5  N   UNL     1      -1.569   6.122   0.093  0.00  0.00    -0.258 N 
ATOM      6  C   UNL     1      -1.762   6.671  -1.120  0.00  0.00    +0.313 C 
ATOM      7  O   UNL     1      -2.838   7.073  -1.516  0.00  0.00    -0.252 OA
ENDROOT
BRANCH   4   8
ATOM      8  C   UNL     1       0.033   4.288   0.360  0.00  0.00    -0.015 A 
ATOM      9  C   UNL     1       0.018   3.743   1.630  0.00  0.00    +0.007 A 
ATOM     10  C   UNL     1       0.177   2.381   1.800  0.00  0.00    +0.020 A 
ATOM     11  C   UNL     1       0.350   1.562   0.699  0.00  0.00    +0.041 A 
ATOM     12  C   UNL     1       0.371   2.108  -0.572  0.00  0.00    +0.020 A 
ATOM     13  C   UNL     1       0.207   3.470  -0.741  0.00  0.00    +0.007 A 
ATOM     14 CL   UNL     1       0.549  -0.149   0.911  0.00  0.00    -0.084 Cl
ENDBRANCH   4   8
BRANCH   4  15
ATOM     15  C   UNL     1       0.539   6.539   1.312  0.00  0.00    +0.037 C 
ATOM     16  C   UNL     1       2.015   6.142   1.383  0.00  0.00    +0.007 C 
ENDBRANCH   4  15
BRANCH   1  17
ATOM     17  C   UNL     1      -0.554   7.271  -3.198  0.00  0.00    +0.213 C 
BRANCH  17  19
ATOM     18  N   UNL     1      -0.784   6.445  -5.519  0.00  0.00    -0.311 N 
ATOM     19  C   UNL     1      -0.809   6.173  -4.199  0.00  0.00    +0.231 C 
ATOM     20  O   UNL     1      -1.038   5.045  -3.817  0.00  0.00    -0.274 OA
ATOM     21  H   UNL     1      -0.601   7.348  -5.825  0.00  0.00    +0.149 HD
BRANCH  18  22
ATOM     22  C   UNL     1      -1.032   5.378  -6.491  0.00  0.00    +0.070 C 
ATOM     23  C   UNL     1       0.273   4.629  -6.770  0.00  0.00    +0.028 C 
BRANCH  22  25
ATOM     24  C   UNL     1      -2.924   6.629  -7.540  0.00  0.00    +0.005 C 
ATOM     25  C   UNL     1      -1.558   5.987  -7.793  0.00  0.00    +0.018 C 
ENDBRANCH  22  25
ENDBRANCH  18  22
ENDBRANCH  17  19
ENDBRANCH   1  17
BRANCH   5  26
ATOM     26  C   UNL     1      -2.583   5.912   1.130  0.00  0.00    +0.206 C 
BRANCH  26  27
ATOM     27  C   UNL     1      -2.732   7.169   1.948  0.00  0.00    +0.231 C 
ATOM     28  O   UNL     1      -2.059   8.144   1.690  0.00  0.00    -0.274 OA
ATOM     29  N   UNL     1      -3.614   7.210   2.966  0.00  0.00    -0.311 N 
ATOM     30  H   UNL     1      -4.153   6.430   3.172  0.00  0.00    +0.149 HD
BRANCH  29  31
ATOM     31  C   UNL     1      -3.760   8.431   3.761  0.00  0.00    +0.070 C 
ATOM     32  C   UNL     1      -2.704   8.448   4.869  0.00  0.00    +0.028 C 
BRANCH  31  33
ATOM     33  C   UNL     1      -5.156   8.470   4.386  0.00  0.00    +0.018 C 
ATOM     34  C   UNL     1      -6.207   8.579   3.280  0.00  0.00    +0.005 C 
ENDBRANCH  31  33
ENDBRANCH  29  31
ENDBRANCH  26  27
ENDBRANCH   5  26
TORSDOF 10
