REMARK  Name = ZINC12715283
REMARK  8 active torsions:
REMARK  status: ('A' for Active; 'I' for Inactive)
REMARK    1  A    between atoms: C_1  and  C_2
REMARK    2  A    between atoms: C_5  and  C_26
REMARK    3  A    between atoms: C_6  and  C_12
REMARK    4  A    between atoms: N_14  and  C_15
REMARK    5  A    between atoms: C_15  and  C_17
REMARK    6  A    between atoms: C_15  and  C_18
REMARK    7  A    between atoms: C_19  and  C_25
REMARK    8  A    between atoms: C_23  and  C_24
REMARK                            x       y       z     vdW  Elec       q    Type
REMARK                         _______ _______ _______ _____ _____    ______ ____
ROOT
ATOM      1  C   UNL     1       1.179   1.480   2.904  0.00  0.00    +0.280 C 
ATOM      2  O   UNL     1       1.905   0.898   2.120  0.00  0.00    -0.267 OA
ATOM      3  N   UNL     1       1.694   2.019   4.027  0.00  0.00    -0.302 N 
ATOM      4  H   UNL     1       1.115   2.483   4.652  0.00  0.00    +0.150 HD
ENDROOT
BRANCH   1  10
ATOM      5  C   UNL     1      -5.883   1.462   0.497  0.00  0.00    +0.044 C 
ATOM      6  C   UNL     1      -4.650   1.700   1.330  0.00  0.00    -0.048 A 
ATOM      7  C   UNL     1      -3.441   1.228   0.902  0.00  0.00    +0.015 A 
ATOM      8  C   UNL     1      -2.298   1.453   1.672  0.00  0.00    +0.026 A 
ATOM      9  C   UNL     1      -0.886   1.096   1.530  0.00  0.00    +0.008 A 
ATOM     10  C   UNL     1      -0.260   1.597   2.625  0.00  0.00    +0.193 A 
ATOM     11  O   UNL     1      -1.156   2.218   3.419  0.00  0.00    -0.448 OA
ATOM     12  C   UNL     1      -2.393   2.153   2.889  0.00  0.00    +0.154 A 
ATOM     13  C   UNL     1      -3.634   2.625   3.304  0.00  0.00    +0.084 A 
ATOM     14  C   UNL     1      -4.750   2.396   2.526  0.00  0.00    +0.027 A 
ATOM     15 CL   UNL     1      -3.778   3.497   4.798  0.00  0.00    -0.080 Cl
ATOM     16  C   UNL     1      -0.255   0.334   0.394  0.00  0.00    +0.048 C 
ENDBRANCH   1  10
BRANCH   3  17
ATOM     17  C   UNL     1       3.127   1.902   4.305  0.00  0.00    +0.104 C 
ATOM     18  C   UNL     1       3.439   0.486   4.795  0.00  0.00    +0.033 C 
BRANCH  17  19
ATOM     19  C   UNL     1       3.516   2.898   5.367  0.00  0.00    +0.015 A 
ATOM     20  C   UNL     1       4.569   3.746   5.317  0.00  0.00    +0.038 A 
ATOM     21  N   UNL     1       4.570   4.470   6.455  0.00  0.00    -0.281 N 
ATOM     22  H   UNL     1       5.228   5.182   6.699  0.00  0.00    +0.189 HD
ATOM     23  N   UNL     1       3.485   4.047   7.235  0.00  0.00    -0.179 NA
ATOM     24  C   UNL     1       2.854   3.105   6.582  0.00  0.00    +0.065 A 
ATOM     25  C   UNL     1       1.628   2.370   7.057  0.00  0.00    +0.068 C 
ATOM     26  C   UNL     1       5.562   3.862   4.189  0.00  0.00    +0.065 C 
ENDBRANCH  17  19
ENDBRANCH   3  17
TORSDOF 3
