REMARK  Name = ZINC39665380
REMARK  9 active torsions:
REMARK  status: ('A' for Active; 'I' for Inactive)
REMARK    1  A    between atoms: C_1  and  C_2
REMARK    2  A    between atoms: C_5  and  C_9
REMARK    3  A    between atoms: C_6  and  C_8
REMARK    4  A    between atoms: C_13  and  C_22
REMARK    5  A    between atoms: N_24  and  C_25
REMARK    6  A    between atoms: C_25  and  C_26
REMARK    7  A    between atoms: C_26  and  C_28
REMARK    8  A    between atoms: C_26  and  O_29
REMARK    9  A    between atoms: O_29  and  C_30
REMARK                            x       y       z     vdW  Elec       q    Type
REMARK                         _______ _______ _______ _____ _____    ______ ____
ROOT
ATOM      1  C   UNL     1      -1.260  -5.773   0.274  0.00  0.00    +0.247 C 
ATOM      2  O   UNL     1      -1.217  -6.535   1.220  0.00  0.00    -0.270 OA
ATOM      3  N   UNL     1      -1.185  -6.255  -0.983  0.00  0.00    -0.296 N 
ATOM      4  C   UNL     1      -1.114  -5.485  -2.248  0.00  0.00    +0.121 C 
ATOM      5  C   UNL     1      -0.112  -6.268  -3.125  0.00  0.00    +0.100 C 
ATOM      6  C   UNL     1      -0.144  -7.703  -2.573  0.00  0.00    -0.004 C 
ATOM      7  C   UNL     1      -1.148  -7.673  -1.412  0.00  0.00    +0.115 C 
ATOM      8  C   UNL     1       1.236  -8.103  -2.059  0.00  0.00    -0.010 C 
ATOM      9  C   UNL     1       1.192  -9.553  -1.568  0.00  0.00    -0.082 C 
ATOM     10  N   UNL     1       0.784 -10.432  -2.670  0.00  0.00    +0.379 N 
ATOM     11  C   UNL     1      -0.581 -10.101  -3.097  0.00  0.00    -0.082 C 
ATOM     12  C   UNL     1      -0.612  -8.674  -3.652  0.00  0.00    -0.010 C 
ATOM     13  H   UNL     1       1.416 -10.311  -3.447  0.00  0.00    -0.086 HD
ATOM     14  H   UNL     1       0.814 -11.393  -2.362  0.00  0.00    -0.086 HD
ENDROOT
BRANCH   1  19
ATOM     15  C   UNL     1      -1.782  -0.111   1.159  0.00  0.00    +0.044 C 
ATOM     16  C   UNL     1      -1.645  -1.594   0.927  0.00  0.00    -0.050 A 
ATOM     17  C   UNL     1      -0.638  -2.073   0.108  0.00  0.00    +0.004 A 
ATOM     18  C   UNL     1      -0.507  -3.429  -0.108  0.00  0.00    +0.013 A 
ATOM     19  C   UNL     1      -1.394  -4.318   0.501  0.00  0.00    +0.040 A 
ATOM     20  C   UNL     1      -2.407  -3.829   1.326  0.00  0.00    -0.038 A 
ATOM     21  C   UNL     1      -2.524  -2.470   1.538  0.00  0.00    +0.007 A 
ATOM     22  C   UNL     1      -3.369  -4.781   1.988  0.00  0.00    +0.044 C 
ENDBRANCH   1  19
BRANCH   5  23
ATOM     23  C   UNL     1      -0.549  -6.248  -4.567  0.00  0.00    +0.218 C 
ATOM     24  O   UNL     1      -1.730  -6.240  -4.842  0.00  0.00    -0.275 OA
ATOM     25  N   UNL     1       0.372  -6.238  -5.550  0.00  0.00    -0.312 N 
ATOM     26  H   UNL     1       1.317  -6.244  -5.330  0.00  0.00    +0.149 HD
BRANCH  25  27
ATOM     27  C   UNL     1      -0.053  -6.218  -6.952  0.00  0.00    +0.148 C 
BRANCH  27  28
ATOM     28  C   UNL     1       1.179  -6.211  -7.859  0.00  0.00    +0.187 C 
ATOM     29  C   UNL     1       0.739  -6.065  -9.317  0.00  0.00    +0.053 C 
BRANCH  28  30
ATOM     30  O   UNL     1       1.896  -7.436  -7.699  0.00  0.00    -0.488 OA
BRANCH  30  31
ATOM     31  C   UNL     1       3.219  -7.423  -8.012  0.00  0.00    +0.121 A 
ATOM     32  C   UNL     1       3.812  -6.257  -8.474  0.00  0.00    +0.045 A 
ATOM     33  C   UNL     1       5.156  -6.246  -8.791  0.00  0.00    +0.004 A 
ATOM     34  C   UNL     1       5.911  -7.396  -8.649  0.00  0.00    +0.000 A 
ATOM     35  C   UNL     1       5.322  -8.559  -8.188  0.00  0.00    +0.004 A 
ATOM     36  C   UNL     1       3.979  -8.574  -7.864  0.00  0.00    +0.045 A 
ENDBRANCH  30  31
ENDBRANCH  28  30
ENDBRANCH  27  28
ENDBRANCH  25  27
ENDBRANCH   5  23
TORSDOF 6
