REMARK  Name = ZINC09664443
REMARK  7 active torsions:
REMARK  status: ('A' for Active; 'I' for Inactive)
REMARK    1  A    between atoms: C_1  and  C_2
REMARK    2  A    between atoms: C_2  and  C_4
REMARK    3  A    between atoms: C_2  and  O_18
REMARK    4  A    between atoms: N_6  and  C_7
REMARK    5  A    between atoms: C_9  and  C_14
REMARK    6  A    between atoms: O_18  and  C_19
REMARK    7  A    between atoms: C_19  and  C_21
REMARK                            x       y       z     vdW  Elec       q    Type
REMARK                         _______ _______ _______ _____ _____    ______ ____
ROOT
ATOM      1  C   UNL     1       4.498   5.731   1.013  0.00  0.00    +0.062 C 
ATOM      2  C   UNL     1       3.628   6.002  -0.216  0.00  0.00    +0.259 C 
ENDROOT
BRANCH   2   3
ATOM      3  C   UNL     1       2.336   5.236  -0.094  0.00  0.00    +0.258 C 
ATOM      4  O   UNL     1       1.278   5.829  -0.082  0.00  0.00    -0.271 OA
ATOM      5  N   UNL     1       2.356   3.891   0.001  0.00  0.00    -0.281 N 
ATOM      6  H   UNL     1       3.203   3.421   0.056  0.00  0.00    +0.155 HD
BRANCH   5   7
ATOM      7  C   UNL     1       1.155   3.173   0.019  0.00  0.00    +0.052 A 
ATOM      8  C   UNL     1       0.033   3.708   0.637  0.00  0.00    +0.037 A 
ATOM      9  C   UNL     1      -1.151   2.997   0.654  0.00  0.00    +0.057 A 
ATOM     10  C   UNL     1      -1.222   1.754   0.051  0.00  0.00    +0.014 A 
ATOM     11  C   UNL     1      -0.105   1.215  -0.561  0.00  0.00    +0.022 A 
ATOM     12  C   UNL     1       1.082   1.922  -0.582  0.00  0.00    +0.062 A 
ATOM     13 CL   UNL     1       2.482   1.247  -1.355  0.00  0.00    -0.082 Cl
BRANCH   9  14
ATOM     14  C   UNL     1      -2.369   3.579   1.324  0.00  0.00    +0.417 C 
ATOM     15  F   UNL     1      -3.102   4.324   0.394  0.00  0.00    -0.166 F 
ATOM     16  F   UNL     1      -3.166   2.543   1.823  0.00  0.00    -0.166 F 
ATOM     17  F   UNL     1      -1.970   4.409   2.377  0.00  0.00    -0.166 F 
ENDBRANCH   9  14
ENDBRANCH   5   7
ENDBRANCH   2   3
BRANCH   2  18
ATOM     18  O   UNL     1       3.341   7.423  -0.302  0.00  0.00    -0.447 OA
BRANCH  18  19
ATOM     19  C   UNL     1       4.207   8.179  -1.003  0.00  0.00    +0.376 C 
ATOM     20  O   UNL     1       5.175   7.667  -1.528  0.00  0.00    -0.241 OA
BRANCH  19  21
ATOM     21  C   UNL     1       3.979   9.637  -1.134  0.00  0.00    +0.216 A 
ATOM     22  C   UNL     1       4.867  10.373  -1.845  0.00  0.00    +0.105 A 
ATOM     23  C   UNL     1       4.642  11.821  -1.976  0.00  0.00    +0.193 A 
ATOM     24  O   UNL     1       5.407  12.532  -2.603  0.00  0.00    -0.287 OA
ATOM     25  C   UNL     1       3.445  12.371  -1.311  0.00  0.00    +0.064 A 
ATOM     26  C   UNL     1       3.141  13.731  -1.374  0.00  0.00    +0.015 A 
ATOM     27  C   UNL     1       2.022  14.204  -0.745  0.00  0.00    +0.001 A 
ATOM     28  C   UNL     1       1.191  13.339  -0.046  0.00  0.00    +0.004 A 
ATOM     29  C   UNL     1       1.476  11.993   0.027  0.00  0.00    +0.047 A 
ATOM     30  C   UNL     1       2.608  11.489  -0.605  0.00  0.00    +0.140 A 
ATOM     31  O   UNL     1       2.900  10.176  -0.549  0.00  0.00    -0.448 OA
ENDBRANCH  19  21
ENDBRANCH  18  19
ENDBRANCH   2  18
TORSDOF 6
