REMARK  Name = ZINC59992398
REMARK  10 active torsions:
REMARK  status: ('A' for Active; 'I' for Inactive)
REMARK    1  A    between atoms: C_1  and  C_2
REMARK    2  A    between atoms: C_2  and  N_3
REMARK    3  A    between atoms: N_3  and  C_4
REMARK    4  A    between atoms: C_4  and  C_5
REMARK    5  A    between atoms: N_18  and  C_19
REMARK    6  A    between atoms: C_19  and  C_21
REMARK    7  A    between atoms: C_19  and  C_22
REMARK    8  A    between atoms: C_22  and  O_23
REMARK    9  A    between atoms: O_23  and  C_24
REMARK   10  A    between atoms: C_28  and  C_30
REMARK                            x       y       z     vdW  Elec       q    Type
REMARK                         _______ _______ _______ _____ _____    ______ ____
ROOT
ATOM      1  N   UNL     1       0.688  -0.476  -1.203  0.00  0.00    -0.282 N 
ATOM      2  C   UNL     1      -0.013  -0.705  -2.332  0.00  0.00    +0.303 C 
ATOM      3  O   UNL     1       0.556  -1.097  -3.332  0.00  0.00    -0.253 OA
ATOM      4  N   UNL     1      -1.345  -0.498  -2.351  0.00  0.00    -0.293 N 
ATOM      5  H   UNL     1      -1.799  -0.185  -1.553  0.00  0.00    +0.151 HD
ENDROOT
BRANCH   1   7
ATOM      6  C   UNL     1      -0.019   1.526   0.010  0.00  0.00    +0.024 C 
ATOM      7  C   UNL     1       0.002  -0.004   0.002  0.00  0.00    +0.106 C 
ENDBRANCH   1   7
BRANCH   4   8
ATOM      8  C   UNL     1      -2.107  -0.746  -3.578  0.00  0.00    +0.109 C 
ATOM      9  C   UNL     1      -2.049   0.494  -4.473  0.00  0.00    +0.031 C 
BRANCH   8  10
ATOM     10  C   UNL     1      -3.563  -1.050  -3.221  0.00  0.00    +0.251 C 
BRANCH  10  11
ATOM     11  O   UNL     1      -4.160   0.107  -2.632  0.00  0.00    -0.490 OA
BRANCH  11  12
ATOM     12  C   UNL     1      -5.462   0.005  -2.255  0.00  0.00    +0.121 A 
ATOM     13  C   UNL     1      -6.148  -1.187  -2.442  0.00  0.00    +0.045 A 
ATOM     14  C   UNL     1      -7.471  -1.288  -2.057  0.00  0.00    +0.004 A 
ATOM     15  C   UNL     1      -8.111  -0.204  -1.486  0.00  0.00    +0.003 A 
ATOM     16  C   UNL     1      -7.430   0.984  -1.298  0.00  0.00    -0.047 A 
ATOM     17  C   UNL     1      -6.105   1.089  -1.676  0.00  0.00    +0.049 A 
ATOM     18  C   UNL     1      -8.131   2.164  -0.675  0.00  0.00    +0.044 C 
ENDBRANCH  11  12
ENDBRANCH  10  11
ENDBRANCH   8  10
ENDBRANCH   4   8
BRANCH   1  19
ATOM     19  C   UNL     1       2.135  -0.701  -1.182  0.00  0.00    +0.157 C 
BRANCH  19  20
ATOM     20  C   UNL     1       2.421  -2.145  -0.763  0.00  0.00    +0.228 C 
ATOM     21  C   UNL     1       3.936  -2.355  -0.632  0.00  0.00    +0.275 C 
ATOM     22  O   UNL     1       4.168  -3.716  -0.254  0.00  0.00    -0.485 OA
ATOM     23  C   UNL     1       3.480  -4.668  -0.943  0.00  0.00    +0.162 A 
ATOM     24  C   UNL     1       3.907  -5.987  -0.892  0.00  0.00    +0.049 A 
ATOM     25  C   UNL     1       3.218  -6.965  -1.583  0.00  0.00    +0.004 A 
ATOM     26  C   UNL     1       2.100  -6.632  -2.325  0.00  0.00    +0.004 A 
ATOM     27  C   UNL     1       1.670  -5.320  -2.381  0.00  0.00    +0.049 A 
ATOM     28  C   UNL     1       2.359  -4.333  -1.692  0.00  0.00    +0.163 A 
ATOM     29  O   UNL     1       1.927  -3.044  -1.762  0.00  0.00    -0.480 OA
ENDBRANCH  19  20
ENDBRANCH   1  19
TORSDOF 7
