REMARK  Name = ZINC35142325
REMARK  14 active torsions:
REMARK  status: ('A' for Active; 'I' for Inactive)
REMARK    1  A    between atoms: C_1  and  C_2
REMARK    2  A    between atoms: C_2  and  C_3
REMARK    3  A    between atoms: C_3  and  C_4
REMARK    4  A    between atoms: C_4  and  C_5
REMARK    5  A    between atoms: N_7  and  C_8
REMARK    6  A    between atoms: N_7  and  C_9
REMARK    7  A    between atoms: C_9  and  C_10
REMARK    8  A    between atoms: N_12  and  C_13
REMARK    9  A    between atoms: C_15  and  C_25
REMARK   10  A    between atoms: N_17  and  C_18
REMARK   11  A    between atoms: C_23  and  C_24
REMARK   12  A    between atoms: C_25  and  C_26
REMARK   13  A    between atoms: C_25  and  C_27
REMARK   14  A    between atoms: C_25  and  C_28
REMARK                            x       y       z     vdW  Elec       q    Type
REMARK                         _______ _______ _______ _____ _____    ______ ____
ROOT
ATOM      1  C   UNL     1       0.872  -5.072   7.292  0.00  0.00    +0.129 A 
ATOM      2  C   UNL     1      -0.466  -4.825   7.257  0.00  0.00    +0.069 A 
ATOM      3  C   UNL     1      -1.027  -5.331   8.433  0.00  0.00    +0.071 A 
ATOM      4  N   UNL     1      -0.072  -5.863   9.153  0.00  0.00    -0.169 NA
ATOM      5  N   UNL     1       1.136  -5.722   8.459  0.00  0.00    -0.218 N 
ENDROOT
BRANCH   5   6
ATOM      6  C   UNL     1       2.393  -6.167   8.890  0.00  0.00    +0.070 A 
ATOM      7  C   UNL     1       3.212  -6.882   8.026  0.00  0.00    +0.028 A 
ATOM      8  C   UNL     1       4.450  -7.319   8.454  0.00  0.00    +0.002 A 
ATOM      9  C   UNL     1       4.875  -7.045   9.741  0.00  0.00    +0.000 A 
ATOM     10  C   UNL     1       4.062  -6.334  10.604  0.00  0.00    +0.005 A 
ATOM     11  C   UNL     1       2.825  -5.889  10.180  0.00  0.00    -0.025 A 
ATOM     12  C   UNL     1       1.942  -5.108  11.119  0.00  0.00    +0.046 C 
ENDBRANCH   5   6
BRANCH   1  15
ATOM     13  C   UNL     1       1.383  -4.203   5.142  0.00  0.00    +0.236 C 
ATOM     14  O   UNL     1       0.199  -4.029   4.945  0.00  0.00    -0.274 OA
ATOM     15  N   UNL     1       1.800  -4.729   6.311  0.00  0.00    -0.269 N 
ATOM     16  H   UNL     1       2.747  -4.869   6.468  0.00  0.00    +0.156 HD
BRANCH  13  17
ATOM     17  C   UNL     1       2.386  -3.832   4.081  0.00  0.00    +0.203 C 
BRANCH  17  20
ATOM     18  C   UNL     1       1.446  -1.962   2.833  0.00  0.00    +0.216 C 
ATOM     19  O   UNL     1       1.810  -1.223   3.723  0.00  0.00    -0.276 OA
ATOM     20  N   UNL     1       1.686  -3.286   2.916  0.00  0.00    -0.296 N 
ATOM     21  C   UNL     1       1.246  -4.179   1.841  0.00  0.00    +0.132 C 
BRANCH  18  22
ATOM     22  C   UNL     1       0.726  -1.401   1.635  0.00  0.00    +0.096 C 
BRANCH  22  23
ATOM     23  C   UNL     1       0.584   0.115   1.789  0.00  0.00    +0.009 C 
BRANCH  23  25
ATOM     24  C   UNL     1      -0.290   2.201   0.727  0.00  0.00    +0.004 C 
ATOM     25  C   UNL     1      -0.148   0.685   0.572  0.00  0.00    -0.003 C 
ENDBRANCH  23  25
ENDBRANCH  22  23
ENDBRANCH  18  22
ENDBRANCH  17  20
ENDBRANCH  13  17
ENDBRANCH   1  15
BRANCH   3  26
ATOM     26  C   UNL     1      -2.485  -5.273   8.809  0.00  0.00    +0.006 C 
ATOM     27  C   UNL     1      -3.265  -6.302   7.989  0.00  0.00    +0.017 C 
ATOM     28  C   UNL     1      -2.641  -5.584  10.299  0.00  0.00    +0.017 C 
ATOM     29  C   UNL     1      -3.031  -3.872   8.522  0.00  0.00    +0.017 C 
ENDBRANCH   3  26
TORSDOF 8
