REMARK  Name = ZINC64871098
REMARK  6 active torsions:
REMARK  status: ('A' for Active; 'I' for Inactive)
REMARK    1  A    between atoms: C_1  and  C_2
REMARK    2  A    between atoms: C_5  and  C_9
REMARK    3  A    between atoms: C_7  and  C_8
REMARK    4  A    between atoms: C_12  and  C_16
REMARK    5  A    between atoms: N_26  and  C_29
REMARK    6  A    between atoms: C_29  and  C_30
REMARK                            x       y       z     vdW  Elec       q    Type
REMARK                         _______ _______ _______ _____ _____    ______ ____
ROOT
ATOM      1  C   UNL     1      -2.011  -6.802  -1.567  0.00  0.00    -0.000 A 
ATOM      2  C   UNL     1      -0.938  -7.378  -2.229  0.00  0.00    +0.008 A 
ATOM      3  C   UNL     1      -1.125  -8.485  -3.031  0.00  0.00    +0.016 A 
ATOM      4  C   UNL     1      -2.402  -9.021  -3.173  0.00  0.00    +0.063 A 
ATOM      5  C   UNL     1      -3.490  -8.436  -2.501  0.00  0.00    +0.056 A 
ATOM      6  C   UNL     1      -3.281  -7.327  -1.695  0.00  0.00    +0.034 A 
ATOM      7  N   UNL     1      -4.751  -8.992  -2.661  0.00  0.00    -0.307 N 
ATOM      8  H   UNL     1      -5.511  -8.598  -2.204  0.00  0.00    +0.170 HD
ATOM      9  C   UNL     1      -4.930 -10.070  -3.443  0.00  0.00    +0.330 A 
ATOM     10  O   UNL     1      -6.051 -10.527  -3.557  0.00  0.00    -0.246 OA
ATOM     11  N   UNL     1      -3.924 -10.664  -4.104  0.00  0.00    -0.256 N 
ATOM     12  C   UNL     1      -2.658 -10.202  -4.017  0.00  0.00    +0.265 A 
ATOM     13  O   UNL     1      -1.752 -10.746  -4.619  0.00  0.00    -0.267 OA
ENDROOT
BRANCH   1  16
ATOM     14  C   UNL     1       0.059  -4.275  -0.021  0.00  0.00    +0.180 C 
ATOM     15  N   UNL     1      -0.657  -4.788  -1.209  0.00  0.00    -0.265 NA
ATOM     16  C   UNL     1      -1.788  -5.593  -0.695  0.00  0.00    +0.242 C 
ATOM     17  O   UNL     1      -1.379  -5.996   0.632  0.00  0.00    -0.274 OA
ATOM     18  N   UNL     1      -0.674  -4.803   1.153  0.00  0.00    -0.177 NA
ATOM     19  H   UNL     1      -0.986  -4.030  -1.788  0.00  0.00    +0.127 HD
ATOM     20  H   UNL     1      -1.329  -4.121   1.506  0.00  0.00    +0.156 HD
BRANCH  14  25
ATOM     21  C   UNL     1      -0.018   1.503   0.010  0.00  0.00    +0.044 C 
ATOM     22  C   UNL     1       0.002  -0.004   0.002  0.00  0.00    -0.048 A 
ATOM     23  C   UNL     1       0.006  -0.689  -1.199  0.00  0.00    +0.004 A 
ATOM     24  C   UNL     1       0.025  -2.071  -1.207  0.00  0.00    +0.007 A 
ATOM     25  C   UNL     1       0.040  -2.768  -0.013  0.00  0.00    -0.014 A 
ATOM     26  C   UNL     1       0.037  -2.084   1.188  0.00  0.00    +0.010 A 
ATOM     27  C   UNL     1       0.023  -0.702   1.195  0.00  0.00    -0.047 A 
ATOM     28  C   UNL     1       0.025   0.045   2.504  0.00  0.00    +0.044 C 
ENDBRANCH  14  25
ENDBRANCH   1  16
BRANCH  11  29
ATOM     29  C   UNL     1      -4.205 -11.837  -4.937  0.00  0.00    +0.165 C 
BRANCH  29  30
ATOM     30  C   UNL     1      -4.534 -11.391  -6.338  0.00  0.00    -0.026 A 
ATOM     31  C   UNL     1      -5.843 -11.112  -6.685  0.00  0.00    +0.005 A 
ATOM     32  C   UNL     1      -6.146 -10.703  -7.970  0.00  0.00    +0.002 A 
ATOM     33  C   UNL     1      -5.140 -10.573  -8.909  0.00  0.00    +0.020 A 
ATOM     34  C   UNL     1      -3.830 -10.852  -8.563  0.00  0.00    +0.041 A 
ATOM     35  C   UNL     1      -3.527 -11.255  -7.274  0.00  0.00    +0.025 A 
ATOM     36 CL   UNL     1      -2.566 -10.688  -9.742  0.00  0.00    -0.084 Cl
ENDBRANCH  29  30
ENDBRANCH  11  29
TORSDOF 4
