REMARK  Name = ZINC60159501
REMARK  6 active torsions:
REMARK  status: ('A' for Active; 'I' for Inactive)
REMARK    1  A    between atoms: C_4  and  C_7
REMARK    2  A    between atoms: C_7  and  N_8
REMARK    3  A    between atoms: C_13  and  C_15
REMARK    4  A    between atoms: C_15  and  N_16
REMARK    5  A    between atoms: C_17  and  C_19
REMARK    6  A    between atoms: C_19  and  N_20
REMARK                            x       y       z     vdW  Elec       q    Type
REMARK                         _______ _______ _______ _____ _____    ______ ____
ROOT
ATOM      1  N   UNL     1       4.735  -2.627  -1.008  0.00  0.00    -0.316 N 
ATOM      2  C   UNL     1       4.370  -3.544  -1.926  0.00  0.00    +0.231 C 
ATOM      3  O   UNL     1       4.315  -4.717  -1.622  0.00  0.00    -0.274 OA
ATOM      4  H   UNL     1       4.779  -1.689  -1.252  0.00  0.00    +0.149 HD
ENDROOT
BRANCH   1   5
ATOM      5  C   UNL     1       5.066  -3.046   0.356  0.00  0.00    +0.089 C 
BRANCH   5  11
ATOM      6  N   UNL     1       6.363  -0.983   0.584  0.00  0.00    +0.385 N 
ATOM      7  C   UNL     1       6.677   0.166   1.443  0.00  0.00    -0.078 C 
ATOM      8  C   UNL     1       5.437   1.050   1.593  0.00  0.00    -0.019 C 
ATOM      9  C   UNL     1       4.307   0.232   2.225  0.00  0.00    -0.003 C 
ATOM     10  C   UNL     1       4.038  -1.002   1.360  0.00  0.00    -0.014 C 
ATOM     11  C   UNL     1       5.330  -1.811   1.219  0.00  0.00    -0.051 C 
ATOM     12  H   UNL     1       6.026  -0.651  -0.307  0.00  0.00    -0.081 HD
BRANCH   6  13
ATOM     13  C   UNL     1       7.575  -1.786   0.380  0.00  0.00    -0.043 C 
BRANCH  13  17
ATOM     14  C   UNL     1      10.443   0.494  -1.817  0.00  0.00    +0.000 A 
ATOM     15  C   UNL     1      10.430   0.546  -0.435  0.00  0.00    +0.000 A 
ATOM     16  C   UNL     1       9.502  -0.192   0.276  0.00  0.00    +0.002 A 
ATOM     17  C   UNL     1       8.587  -0.981  -0.395  0.00  0.00    -0.064 A 
ATOM     18  C   UNL     1       8.599  -1.033  -1.776  0.00  0.00    +0.002 A 
ATOM     19  C   UNL     1       9.528  -0.296  -2.487  0.00  0.00    +0.000 A 
ENDBRANCH  13  17
ENDBRANCH   6  13
ENDBRANCH   5  11
ENDBRANCH   1   5
BRANCH   2  20
ATOM     20  C   UNL     1       4.029  -3.113  -3.329  0.00  0.00    +0.213 C 
BRANCH  20  21
ATOM     21  N   UNL     1       3.667  -4.287  -4.126  0.00  0.00    -0.215 N 
ATOM     22  C   UNL     1       4.548  -5.026  -4.834  0.00  0.00    +0.251 C 
ATOM     23  O   UNL     1       5.745  -4.854  -4.928  0.00  0.00    -0.272 OA
ATOM     24  C   UNL     1       3.727  -6.112  -5.480  0.00  0.00    +0.138 C 
ATOM     25  C   UNL     1       4.204  -7.503  -5.045  0.00  0.00    +0.045 C 
ATOM     26  C   UNL     1       5.152  -7.898  -6.200  0.00  0.00    +0.038 C 
ATOM     27  C   UNL     1       4.668  -7.110  -7.399  0.00  0.00    -0.042 A 
ATOM     28  C   UNL     1       3.845  -6.077  -6.980  0.00  0.00    -0.012 A 
ATOM     29  C   UNL     1       3.286  -5.223  -7.916  0.00  0.00    +0.006 A 
ATOM     30  C   UNL     1       3.546  -5.396  -9.261  0.00  0.00    +0.000 A 
ATOM     31  C   UNL     1       4.367  -6.427  -9.678  0.00  0.00    +0.000 A 
ATOM     32  C   UNL     1       4.926  -7.281  -8.748  0.00  0.00    +0.004 A 
ATOM     33  N   UNL     1       2.357  -5.852  -5.036  0.00  0.00    -0.281 N 
ATOM     34  C   UNL     1       2.420  -4.765  -4.240  0.00  0.00    +0.310 C 
ATOM     35  O   UNL     1       1.455  -4.273  -3.690  0.00  0.00    -0.252 OA
ATOM     36  H   UNL     1       1.564  -6.362  -5.264  0.00  0.00    +0.152 HD
ENDBRANCH  20  21
ENDBRANCH   2  20
TORSDOF 6
