REMARK  Name = ZINC51607398
REMARK  7 active torsions:
REMARK  status: ('A' for Active; 'I' for Inactive)
REMARK    1  A    between atoms: C_1  and  C_2
REMARK    2  A    between atoms: C_4  and  C_17
REMARK    3  A    between atoms: C_7  and  S_8
REMARK    4  A    between atoms: S_8  and  C_9
REMARK    5  A    between atoms: C_11  and  C_16
REMARK    6  A    between atoms: C_13  and  C_15
REMARK    7  A    between atoms: N_18  and  O_19
REMARK                            x       y       z     vdW  Elec       q    Type
REMARK                         _______ _______ _______ _____ _____    ______ ____
ROOT
ATOM      1  C   UNL     1      -0.007   1.940   0.272  0.00  0.00    +0.045 C 
ATOM      2  C   UNL     1      -0.051   0.456   0.013  0.00  0.00    -0.036 A 
ATOM      3  C   UNL     1      -0.096  -0.015  -1.281  0.00  0.00    +0.016 A 
ATOM      4  C   UNL     1      -0.135  -1.390  -1.521  0.00  0.00    +0.018 A 
ATOM      5  C   UNL     1      -0.129  -2.284  -0.448  0.00  0.00    +0.012 A 
ATOM      6  C   UNL     1      -0.084  -1.807   0.844  0.00  0.00    +0.016 A 
ATOM      7  C   UNL     1      -0.039  -0.437   1.079  0.00  0.00    +0.019 A 
ENDROOT
BRANCH   4   8
ATOM      8  C   UNL     1      -0.184  -1.899  -2.908  0.00  0.00    +0.162 C 
ATOM      9  N   UNL     1      -0.190  -1.065  -3.908  0.00  0.00    -0.072 NA
ATOM     10  N   UNL     1      -0.223  -3.263  -3.145  0.00  0.00    -0.340 N 
ATOM     11  H   UNL     1      -0.218  -3.885  -2.400  0.00  0.00    +0.144 HD
ATOM     12  H   UNL     1      -0.255  -3.597  -4.055  0.00  0.00    +0.144 HD
BRANCH   9  13
ATOM     13  O   UNL     1      -0.236  -1.552  -5.236  0.00  0.00    -0.408 OA
ATOM     14  H   UNL     1      -0.237  -0.859  -5.910  0.00  0.00    +0.328 HD
ENDBRANCH   9  13
ENDBRANCH   4   8
BRANCH   7  15
ATOM     15  S   UNL     1       0.025   0.170   2.732  0.00  0.00    -0.050 S 
BRANCH  15  16
ATOM     16  C   UNL     1       1.705   0.656   2.943  0.00  0.00    +0.193 A 
ATOM     17  N   UNL     1       2.575   0.415   1.973  0.00  0.00    -0.227 NA
ATOM     18  C   UNL     1       3.844   0.767   2.099  0.00  0.00    +0.043 A 
ATOM     19  C   UNL     1       4.258   1.396   3.263  0.00  0.00    +0.046 A 
ATOM     20  C   UNL     1       3.323   1.633   4.258  0.00  0.00    +0.043 A 
ATOM     21  N   UNL     1       2.068   1.259   4.066  0.00  0.00    -0.227 NA
ATOM     22  C   UNL     1       3.728   2.313   5.540  0.00  0.00    +0.066 C 
ATOM     23  C   UNL     1       4.826   0.489   0.991  0.00  0.00    +0.066 C 
ENDBRANCH  15  16
ENDBRANCH   7  15
TORSDOF 4
