REMARK  Name = ZINC02928993
REMARK  10 active torsions:
REMARK  status: ('A' for Active; 'I' for Inactive)
REMARK    1  A    between atoms: C_1  and  C_2
REMARK    2  A    between atoms: C_12  and  C_14
REMARK    3  A    between atoms: C_14  and  C_16
REMARK    4  A    between atoms: C_14  and  N_20
REMARK    5  A    between atoms: C_16  and  C_17
REMARK    6  A    between atoms: C_17  and  S_18
REMARK    7  A    between atoms: S_18  and  C_19
REMARK    8  A    between atoms: N_20  and  S_21
REMARK    9  A    between atoms: S_21  and  C_24
REMARK   10  A    between atoms: N_33  and  C_34
REMARK                            x       y       z     vdW  Elec       q    Type
REMARK                         _______ _______ _______ _____ _____    ______ ____
ROOT
ATOM      1  C   UNL     1       1.017   3.527   0.133  0.00  0.00    +0.163 C 
ENDROOT
BRANCH   1  13
ATOM      2  C   UNL     1       0.077  -6.380   1.363  0.00  0.00    +0.044 C 
ATOM      3  C   UNL     1       0.357  -4.908   1.197  0.00  0.00    -0.049 A 
ATOM      4  C   UNL     1       1.654  -4.426   1.297  0.00  0.00    +0.005 A 
ATOM      5  C   UNL     1       1.935  -3.093   1.151  0.00  0.00    +0.029 A 
ATOM      6  C   UNL     1       0.903  -2.161   0.892  0.00  0.00    +0.080 A 
ATOM      7  C   UNL     1      -0.405  -2.688   0.797  0.00  0.00    +0.041 A 
ATOM      8  C   UNL     1      -0.677  -4.025   0.945  0.00  0.00    +0.020 A 
ATOM      9  S   UNL     1      -1.376  -1.234   0.482  0.00  0.00    -0.052 S 
ATOM     10  C   UNL     1      -0.030  -0.059   0.487  0.00  0.00    +0.165 A 
ATOM     11  N   UNL     1       1.009  -0.825   0.724  0.00  0.00    -0.225 NA
ATOM     12  N   UNL     1      -0.073   1.312   0.295  0.00  0.00    -0.263 N 
ATOM     13  C   UNL     1       1.063   2.035   0.342  0.00  0.00    +0.237 C 
ATOM     14  O   UNL     1       2.124   1.486   0.552  0.00  0.00    -0.274 OA
ATOM     15  H   UNL     1      -0.921   1.752   0.123  0.00  0.00    +0.157 HD
ENDBRANCH   1  13
BRANCH   1  16
ATOM     16  N   UNL     1       2.371   4.077   0.231  0.00  0.00    -0.178 NA
ATOM     17  H   UNL     1       3.040   3.839  -0.430  0.00  0.00    +0.149 HD
BRANCH  16  18
ATOM     18  S   UNL     1       2.760   5.103   1.471  0.00  0.00    +0.059 S 
ATOM     19  O   UNL     1       4.140   5.412   1.324  0.00  0.00    -0.153 OA
ATOM     20  O   UNL     1       1.754   6.106   1.499  0.00  0.00    -0.153 OA
BRANCH  18  21
ATOM     21  C   UNL     1       2.605   4.192   2.971  0.00  0.00    +0.109 A 
ATOM     22  C   UNL     1       1.396   4.175   3.644  0.00  0.00    +0.031 A 
ATOM     23  C   UNL     1       1.265   3.458   4.818  0.00  0.00    +0.031 A 
ATOM     24  C   UNL     1       2.352   2.764   5.327  0.00  0.00    +0.090 A 
ATOM     25  C   UNL     1       3.572   2.785   4.652  0.00  0.00    +0.159 A 
ATOM     26  C   UNL     1       3.692   3.502   3.472  0.00  0.00    +0.077 A 
ATOM     27  O   UNL     1       4.441   2.031   5.368  0.00  0.00    -0.407 OA
ATOM     28  C   UNL     1       3.815   1.546   6.452  0.00  0.00    +0.421 A 
ATOM     29  O   UNL     1       4.323   0.832   7.295  0.00  0.00    -0.223 OA
ATOM     30  N   UNL     1       2.537   1.973   6.460  0.00  0.00    -0.277 N 
ATOM     31  C   UNL     1       1.527   1.663   7.475  0.00  0.00    +0.156 C 
ENDBRANCH  18  21
ENDBRANCH  16  18
ENDBRANCH   1  16
BRANCH   1  32
ATOM     32  C   UNL     1       0.442   3.831  -1.252  0.00  0.00    +0.040 C 
BRANCH  32  33
ATOM     33  C   UNL     1       0.280   5.343  -1.417  0.00  0.00    +0.071 C 
BRANCH  33  34
ATOM     34  S   UNL     1      -0.411   5.702  -3.055  0.00  0.00    -0.164 S 
ATOM     35  C   UNL     1      -0.539   7.511  -3.090  0.00  0.00    +0.084 C 
ENDBRANCH  33  34
ENDBRANCH  32  33
ENDBRANCH   1  32
TORSDOF 7
