REMARK  Name = ZINC06923595
REMARK  4 active torsions:
REMARK  status: ('A' for Active; 'I' for Inactive)
REMARK    1  A    between atoms: C_1  and  C_2
REMARK    2  A    between atoms: C_5  and  C_8
REMARK    3  A    between atoms: C_11  and  O_26
REMARK    4  A    between atoms: N_13  and  C_20
REMARK                            x       y       z     vdW  Elec       q    Type
REMARK                         _______ _______ _______ _____ _____    ______ ____
ROOT
ATOM      1  C   UNL     1       0.059  -4.275  -0.021  0.00  0.00    +0.115 C 
ATOM      2  C   UNL     1      -1.180  -4.775   0.652  0.00  0.00    +0.072 A 
ATOM      3  C   UNL     1      -2.363  -4.002   0.715  0.00  0.00    +0.238 A 
ATOM      4  N   UNL     1      -3.273  -4.682   1.357  0.00  0.00    -0.131 NA
ATOM      5  N   UNL     1      -2.718  -5.906   1.730  0.00  0.00    -0.244 N 
ATOM      6  C   UNL     1      -1.419  -5.947   1.280  0.00  0.00    +0.132 A 
ATOM      7  N   UNL     1      -0.627  -7.048   1.500  0.00  0.00    -0.270 N 
ATOM      8  C   UNL     1       0.610  -7.353   1.249  0.00  0.00    +0.228 C 
ATOM      9  O   UNL     1       0.976  -8.416   1.705  0.00  0.00    -0.275 OA
ATOM     10  C   UNL     1       1.643  -6.612   0.494  0.00  0.00    +0.166 C 
ATOM     11  S   UNL     1       1.570  -4.836   0.770  0.00  0.00    -0.138 S 
ATOM     12  H   UNL     1      -1.104  -7.765   1.947  0.00  0.00    +0.156 HD
ENDROOT
BRANCH   1  17
ATOM     13  C   UNL     1      -0.018   1.503   0.010  0.00  0.00    +0.044 C 
ATOM     14  C   UNL     1       0.002  -0.004   0.002  0.00  0.00    -0.050 A 
ATOM     15  C   UNL     1       0.006  -0.689  -1.199  0.00  0.00    +0.003 A 
ATOM     16  C   UNL     1       0.025  -2.071  -1.206  0.00  0.00    +0.005 A 
ATOM     17  C   UNL     1       0.040  -2.768  -0.013  0.00  0.00    -0.030 A 
ATOM     18  C   UNL     1       0.037  -2.084   1.188  0.00  0.00    +0.005 A 
ATOM     19  C   UNL     1       0.023  -0.702   1.195  0.00  0.00    +0.003 A 
ENDBRANCH   1  17
BRANCH   5  20
ATOM     20  C   UNL     1      -3.403  -6.967   2.472  0.00  0.00    +0.109 C 
ATOM     21  C   UNL     1      -4.625  -7.436   1.681  0.00  0.00    +0.027 C 
ATOM     22  C   UNL     1      -5.340  -8.544   2.456  0.00  0.00    +0.002 C 
ATOM     23  C   UNL     1      -5.789  -8.008   3.817  0.00  0.00    +0.000 C 
ATOM     24  C   UNL     1      -4.566  -7.539   4.608  0.00  0.00    +0.002 C 
ATOM     25  C   UNL     1      -3.851  -6.430   3.833  0.00  0.00    +0.027 C 
ENDBRANCH   5  20
BRANCH   3  26
ATOM     26  O   UNL     1      -2.525  -2.757   0.193  0.00  0.00    -0.491 OA
ATOM     27  H   UNL     1      -2.844  -2.751  -0.719  0.00  0.00    +0.294 HD
ENDBRANCH   3  26
TORSDOF 3
