REMARK  Name = ZINC35972969
REMARK  15 active torsions:
REMARK  status: ('A' for Active; 'I' for Inactive)
REMARK    1  A    between atoms: C_1  and  C_2
REMARK    2  A    between atoms: C_2  and  C_3
REMARK    3  A    between atoms: C_2  and  C_4
REMARK    4  A    between atoms: C_5  and  C_18
REMARK    5  A    between atoms: C_6  and  N_15
REMARK    6  A    between atoms: N_7  and  C_9
REMARK    7  A    between atoms: N_15  and  C_16
REMARK    8  A    between atoms: N_15  and  C_17
REMARK    9  A    between atoms: C_18  and  N_19
REMARK   10  A    between atoms: N_19  and  C_20
REMARK   11  A    between atoms: C_20  and  C_21
REMARK   12  A    between atoms: N_29  and  C_30
REMARK   13  A    between atoms: C_30  and  C_31
REMARK   14  A    between atoms: C_30  and  C_32
REMARK   15  A    between atoms: C_30  and  C_33
REMARK                            x       y       z     vdW  Elec       q    Type
REMARK                         _______ _______ _______ _____ _____    ______ ____
ROOT
ATOM      1  C   UNL     1       0.719  -0.133   1.609  0.00  0.00    +0.044 A 
ATOM      2  C   UNL     1       0.058  -1.229   2.172  0.00  0.00    +0.031 A 
ATOM      3  C   UNL     1       0.866  -1.755   3.134  0.00  0.00    +0.127 A 
ATOM      4  N   UNL     1       2.001  -1.005   3.168  0.00  0.00    -0.241 N 
ATOM      5  N   UNL     1       1.880  -0.001   2.198  0.00  0.00    -0.295 N 
ATOM      6  H   UNL     1       2.543   0.678   1.999  0.00  0.00    +0.187 HD
ENDROOT
BRANCH   4   7
ATOM      7  C   UNL     1       3.097  -1.204   4.018  0.00  0.00    +0.065 A 
ATOM      8  C   UNL     1       2.894  -1.439   5.372  0.00  0.00    +0.028 A 
ATOM      9  C   UNL     1       3.976  -1.635   6.207  0.00  0.00    +0.002 A 
ATOM     10  C   UNL     1       5.261  -1.597   5.697  0.00  0.00    +0.000 A 
ATOM     11  C   UNL     1       5.466  -1.363   4.350  0.00  0.00    +0.002 A 
ATOM     12  C   UNL     1       4.388  -1.172   3.508  0.00  0.00    +0.028 A 
ENDBRANCH   4   7
BRANCH   1  14
ATOM     13  C   UNL     1       0.094   2.188   1.001  0.00  0.00    +0.014 C 
ATOM     14  C   UNL     1       0.187   0.744   0.505  0.00  0.00    +0.031 C 
ATOM     15  C   UNL     1       1.130   0.678  -0.698  0.00  0.00    +0.014 C 
ENDBRANCH   1  14
BRANCH   3  16
ATOM     16  N   UNL     1       0.583  -2.857   3.935  0.00  0.00    -0.321 N 
ATOM     17  C   UNL     1       1.110  -4.176   3.578  0.00  0.00    +0.130 C 
ATOM     18  C   UNL     1      -0.243  -2.698   5.134  0.00  0.00    +0.130 C 
ENDBRANCH   3  16
BRANCH   2  19
ATOM     19  C   UNL     1      -1.306  -1.738   1.783  0.00  0.00    +0.149 C 
BRANCH  19  20
ATOM     20  N   UNL     1      -1.165  -2.799   0.783  0.00  0.00    -0.279 N 
ATOM     21  C   UNL     1      -1.116  -2.488  -0.527  0.00  0.00    +0.303 C 
ATOM     22  O   UNL     1      -1.189  -1.327  -0.879  0.00  0.00    -0.253 OA
ATOM     23  N   UNL     1      -0.986  -3.465  -1.447  0.00  0.00    -0.294 N 
ATOM     24  H   UNL     1      -0.928  -4.391  -1.166  0.00  0.00    +0.151 HD
BRANCH  23  25
ATOM     25  C   UNL     1      -0.933  -3.127  -2.871  0.00  0.00    +0.028 C 
ATOM     26  C   UNL     1       0.264  -2.211  -3.134  0.00  0.00    +0.031 C 
ATOM     27  C   UNL     1      -0.784  -4.408  -3.694  0.00  0.00    +0.031 C 
ATOM     28  C   UNL     1      -2.223  -2.409  -3.274  0.00  0.00    +0.031 C 
ENDBRANCH  23  25
BRANCH  20  29
ATOM     29  C   UNL     1      -1.077  -4.198   1.208  0.00  0.00    +0.141 C 
BRANCH  29  30
ATOM     30  C   UNL     1      -2.471  -4.828   1.180  0.00  0.00    +0.136 C 
ATOM     31  C   UNL     1      -2.408  -6.265   1.741  0.00  0.00    +0.035 C 
ATOM     32  C   UNL     1      -3.383  -7.028   0.803  0.00  0.00    +0.031 C 
ATOM     33  C   UNL     1      -3.145  -6.285  -0.536  0.00  0.00    +0.160 C 
ATOM     34  O   UNL     1      -2.941  -4.909  -0.171  0.00  0.00    -0.375 OA
ENDBRANCH  29  30
ENDBRANCH  20  29
ENDBRANCH  19  20
ENDBRANCH   2  19
TORSDOF 8
