REMARK  Name = ZINC32623114
REMARK  10 active torsions:
REMARK  status: ('A' for Active; 'I' for Inactive)
REMARK    1  A    between atoms: C_1  and  O_2
REMARK    2  A    between atoms: O_2  and  C_3
REMARK    3  A    between atoms: C_6  and  O_36
REMARK    4  A    between atoms: C_7  and  C_9
REMARK    5  A    between atoms: C_9  and  C_11
REMARK    6  A    between atoms: C_9  and  N_30
REMARK    7  A    between atoms: C_11  and  N_12
REMARK    8  A    between atoms: C_13  and  C_15
REMARK    9  A    between atoms: C_17  and  C_20
REMARK   10  A    between atoms: O_36  and  C_37
REMARK                            x       y       z     vdW  Elec       q    Type
REMARK                         _______ _______ _______ _____ _____    ______ ____
ROOT
ATOM      1  C   UNL     1      -9.220  -2.686  -0.371  0.00  0.00    +0.094 C 
ENDROOT
BRANCH   1   2
ATOM      2  N   UNL     1      -7.770  -2.873  -0.453  0.00  0.00    -0.311 N 
ATOM      3  C   UNL     1      -6.956  -1.802  -0.531  0.00  0.00    +0.266 C 
ATOM      4  O   UNL     1      -7.425  -0.681  -0.535  0.00  0.00    -0.268 OA
ATOM      5  H   UNL     1      -7.345  -3.888  -0.450  0.00  0.00    +0.149 HD
BRANCH   3   6
ATOM      6  C   UNL     1      -5.487  -1.991  -0.614  0.00  0.00    +0.168 A 
ATOM      7  C   UNL     1      -4.501  -0.974  -0.695  0.00  0.00    +0.086 A 
ATOM      8  C   UNL     1      -3.322  -1.665  -0.752  0.00  0.00    +0.168 A 
ATOM      9  O   UNL     1      -3.645  -2.970  -0.697  0.00  0.00    -0.354 OA
ATOM     10  N   UNL     1      -4.840  -3.132  -0.621  0.00  0.00    -0.073 NA
BRANCH   8  11
ATOM     11  C   UNL     1      -1.964  -1.092  -0.850  0.00  0.00    +0.024 A 
ATOM     12  C   UNL     1      -1.789   0.292  -0.898  0.00  0.00    +0.015 A 
ATOM     13  C   UNL     1      -0.521   0.823  -0.994  0.00  0.00    +0.050 A 
ATOM     14  C   UNL     1       0.587  -0.013  -1.036  0.00  0.00    +0.162 A 
ATOM     15  C   UNL     1       0.420  -1.394  -0.985  0.00  0.00    +0.163 A 
ATOM     16  C   UNL     1      -0.851  -1.933  -0.893  0.00  0.00    +0.061 A 
ATOM     17  O   UNL     1       1.496  -2.227  -1.024  0.00  0.00    -0.485 OA
ATOM     18  C   UNL     1       2.727  -1.667  -1.493  0.00  0.00    +0.270 C 
ATOM     19  C   UNL     1       2.934  -0.314  -0.798  0.00  0.00    +0.270 C 
ATOM     20  O   UNL     1       1.830   0.534  -1.131  0.00  0.00    -0.485 OA
ENDBRANCH   8  11
ENDBRANCH   3   6
ENDBRANCH   1   2
BRANCH   1  21
ATOM     21  C   UNL     1      -9.894  -4.033  -0.098  0.00  0.00    -0.017 C 
BRANCH  21  22
ATOM     22  N   UNL     1      -9.497  -4.518   1.231  0.00  0.00    +0.385 N 
ATOM     23  C   UNL     1      -9.383  -3.407   2.184  0.00  0.00    -0.078 C 
ATOM     24  C   UNL     1      -9.112  -3.961   3.585  0.00  0.00    -0.019 C 
ATOM     25  C   UNL     1      -7.816  -4.775   3.565  0.00  0.00    -0.004 C 
ATOM     26  C   UNL     1      -7.942  -5.896   2.529  0.00  0.00    -0.019 C 
ATOM     27  C   UNL     1      -8.247  -5.286   1.159  0.00  0.00    -0.078 C 
ATOM     28  H   UNL     1     -10.285  -5.194   1.595  0.00  0.00    -0.081 HD
ENDBRANCH  21  22
BRANCH  21  33
ATOM     29  C   UNL     1     -13.495  -3.667   0.986  0.00  0.00    +0.121 A 
ATOM     30  C   UNL     1     -14.143  -3.555  -0.236  0.00  0.00    +0.049 A 
ATOM     31  C   UNL     1     -13.416  -3.597  -1.409  0.00  0.00    +0.049 A 
ATOM     32  C   UNL     1     -12.037  -3.747  -1.366  0.00  0.00    +0.122 A 
ATOM     33  C   UNL     1     -11.391  -3.865  -0.144  0.00  0.00    -0.014 A 
ATOM     34  C   UNL     1     -12.118  -3.822   1.029  0.00  0.00    +0.051 A 
BRANCH  29  36
ATOM     35  C   UNL     1     -15.626  -3.463   2.022  0.00  0.00    +0.277 C 
ATOM     36  O   UNL     1     -14.211  -3.625   2.141  0.00  0.00    -0.495 OA
ENDBRANCH  29  36
BRANCH  32  37
ATOM     37  O   UNL     1     -11.321  -3.783  -2.521  0.00  0.00    -0.495 OA
ATOM     38  C   UNL     1     -12.052  -3.656  -3.742  0.00  0.00    +0.277 C 
ENDBRANCH  32  37
ENDBRANCH  21  33
ENDBRANCH   1  21
TORSDOF 8
