REMARK  Name = ZINC27522225
REMARK  7 active torsions:
REMARK  status: ('A' for Active; 'I' for Inactive)
REMARK    1  A    between atoms: C_1  and  C_2
REMARK    2  A    between atoms: C_7  and  N_8
REMARK    3  A    between atoms: C_9  and  C_11
REMARK    4  A    between atoms: C_11  and  N_22
REMARK    5  A    between atoms: C_12  and  C_13
REMARK    6  A    between atoms: C_17  and  N_19
REMARK    7  A    between atoms: C_23  and  C_25
REMARK                            x       y       z     vdW  Elec       q    Type
REMARK                         _______ _______ _______ _____ _____    ______ ____
ROOT
ATOM      1  C   UNL     1      -1.066   5.653  -0.069  0.00  0.00    +0.097 C 
ATOM      2  C   UNL     1       0.138   5.046   0.038  0.00  0.00    +0.036 C 
ENDROOT
BRANCH   2   3
ATOM      3  C   UNL     1       0.228   3.578   0.002  0.00  0.00    -0.021 A 
ATOM      4  C   UNL     1      -0.769   2.828  -0.631  0.00  0.00    +0.008 A 
ATOM      5  C   UNL     1      -0.675   1.453  -0.667  0.00  0.00    +0.003 A 
ATOM      6  C   UNL     1       0.397   0.814  -0.068  0.00  0.00    +0.033 A 
ATOM      7  C   UNL     1       1.387   1.548   0.561  0.00  0.00    +0.127 A 
ATOM      8  C   UNL     1       1.310   2.925   0.600  0.00  0.00    +0.040 A 
BRANCH   7   9
ATOM      9  N   UNL     1       2.532   0.855   1.193  0.00  0.00    +0.056 N 
ATOM     10  O   UNL     1       2.602  -0.360   1.159  0.00  0.00    -0.126 OA
ATOM     11  O   UNL     1       3.404   1.500   1.747  0.00  0.00    -0.126 OA
ENDBRANCH   7   9
ENDBRANCH   2   3
BRANCH   1  13
ATOM     12  N   UNL     1      -0.018   7.857  -0.136  0.00  0.00    -0.280 N 
ATOM     13  C   UNL     1      -1.145   7.118  -0.160  0.00  0.00    +0.262 C 
ATOM     14  O   UNL     1      -2.228   7.664  -0.256  0.00  0.00    -0.268 OA
ATOM     15  H   UNL     1       0.952   7.373   0.049  0.00  0.00    +0.155 HD
BRANCH  12  22
ATOM     16  C   UNL     1       2.065   9.476   0.928  0.00  0.00    +0.045 C 
ATOM     17  C   UNL     1       0.914  10.065   0.154  0.00  0.00    -0.029 A 
ATOM     18  C   UNL     1       0.848  11.428  -0.056  0.00  0.00    +0.006 A 
ATOM     19  C   UNL     1      -0.207  11.970  -0.765  0.00  0.00    +0.020 A 
ATOM     20  C   UNL     1      -1.202  11.149  -1.267  0.00  0.00    +0.043 A 
ATOM     21  C   UNL     1      -1.139   9.783  -1.064  0.00  0.00    +0.043 A 
ATOM     22  C   UNL     1      -0.082   9.237  -0.347  0.00  0.00    +0.038 A 
ATOM     23 CL   UNL     1      -2.526  11.834  -2.157  0.00  0.00    -0.083 Cl
ENDBRANCH  12  22
ENDBRANCH   1  13
BRANCH   1  24
ATOM     24  N   UNL     1      -2.235   4.887  -0.093  0.00  0.00    -0.277 N 
ATOM     25  C   UNL     1      -3.067   4.961  -1.151  0.00  0.00    +0.250 C 
ATOM     26  O   UNL     1      -2.756   5.620  -2.125  0.00  0.00    -0.270 OA
ATOM     27  H   UNL     1      -2.477   4.225   0.751  0.00  0.00    +0.155 HD
BRANCH  25  28
ATOM     28  C   UNL     1      -4.356   4.241  -1.129  0.00  0.00    +0.055 A 
ATOM     29  C   UNL     1      -4.765   3.573   0.028  0.00  0.00    +0.017 A 
ATOM     30  C   UNL     1      -5.969   2.903   0.044  0.00  0.00    +0.039 A 
ATOM     31  C   UNL     1      -6.775   2.891  -1.085  0.00  0.00    +0.125 A 
ATOM     32  C   UNL     1      -6.375   3.552  -2.236  0.00  0.00    +0.059 A 
ATOM     33  C   UNL     1      -5.174   4.231  -2.262  0.00  0.00    +0.056 A 
ATOM     34 CL   UNL     1      -4.678   5.065  -3.701  0.00  0.00    -0.083 Cl
ATOM     35  F   UNL     1      -7.954   2.232  -1.063  0.00  0.00    -0.205 F 
ENDBRANCH  25  28
ENDBRANCH   1  24
TORSDOF 6
