REMARK  Name = ZINC35006088
REMARK  11 active torsions:
REMARK  status: ('A' for Active; 'I' for Inactive)
REMARK    1  A    between atoms: C_1  and  C_2
REMARK    2  A    between atoms: C_2  and  N_3
REMARK    3  A    between atoms: N_3  and  C_4
REMARK    4  A    between atoms: N_3  and  C_6
REMARK    5  A    between atoms: C_4  and  C_5
REMARK    6  A    between atoms: C_6  and  C_7
REMARK    7  A    between atoms: C_7  and  N_8
REMARK    8  A    between atoms: C_9  and  C_29
REMARK    9  A    between atoms: C_11  and  C_12
REMARK   10  A    between atoms: C_12  and  C_13
REMARK   11  A    between atoms: C_20  and  C_23
REMARK                            x       y       z     vdW  Elec       q    Type
REMARK                         _______ _______ _______ _____ _____    ______ ____
ROOT
ATOM      1  N   UNL     1       2.382  -3.651  -0.567  0.00  0.00    -0.285 N 
ATOM      2  C   UNL     1       3.376  -4.616  -0.082  0.00  0.00    +0.146 C 
ATOM      3  C   UNL     1       3.164  -5.878  -0.884  0.00  0.00    +0.076 C 
ATOM      4  C   UNL     1       2.143  -5.633  -1.736  0.00  0.00    +0.249 C 
ATOM      5  O   UNL     1       1.640  -6.513  -2.632  0.00  0.00    -0.282 OA
ATOM      6  C   UNL     1       1.659  -4.251  -1.530  0.00  0.00    +0.288 C 
ATOM      7  O   UNL     1       0.746  -3.733  -2.141  0.00  0.00    -0.266 OA
ENDROOT
BRANCH   2   8
ATOM      8  C   UNL     1       4.768  -4.085  -0.310  0.00  0.00    -0.004 A 
ATOM      9  C   UNL     1       5.008  -3.195  -1.341  0.00  0.00    +0.008 A 
ATOM     10  C   UNL     1       6.284  -2.707  -1.551  0.00  0.00    +0.020 A 
ATOM     11  C   UNL     1       7.322  -3.109  -0.729  0.00  0.00    +0.042 A 
ATOM     12  C   UNL     1       7.083  -3.999   0.302  0.00  0.00    +0.040 A 
ATOM     13  C   UNL     1       5.804  -4.483   0.515  0.00  0.00    +0.048 A 
ATOM     14 CL   UNL     1       5.502  -5.595   1.813  0.00  0.00    -0.083 Cl
ATOM     15 CL   UNL     1       8.925  -2.497  -0.994  0.00  0.00    -0.083 Cl
ENDBRANCH   2   8
BRANCH   3  16
ATOM     16  C   UNL     1       3.919  -7.130  -0.761  0.00  0.00    +0.195 C 
ATOM     17  O   UNL     1       5.034  -7.217  -1.241  0.00  0.00    -0.287 OA
BRANCH  16  18
ATOM     18  C   UNL     1       3.327  -8.283  -0.056  0.00  0.00    +0.023 A 
ATOM     19  C   UNL     1       2.009  -8.225   0.408  0.00  0.00    +0.015 A 
ATOM     20  C   UNL     1       1.457  -9.301   1.060  0.00  0.00    +0.046 A 
ATOM     21  C   UNL     1       2.205 -10.462   1.268  0.00  0.00    +0.124 A 
ATOM     22  C   UNL     1       3.520 -10.511   0.811  0.00  0.00    -0.002 A 
ATOM     23  C   UNL     1       4.077  -9.446   0.148  0.00  0.00    +0.019 A 
ATOM     24  C   UNL     1       4.073 -11.869   1.200  0.00  0.00    +0.083 C 
ATOM     25  C   UNL     1       3.038 -12.349   2.244  0.00  0.00    +0.175 C 
ATOM     26  O   UNL     1       1.851 -11.628   1.871  0.00  0.00    -0.488 OA
ATOM     27  C   UNL     1       2.816 -13.858   2.134  0.00  0.00    +0.052 C 
ENDBRANCH  16  18
ENDBRANCH   3  16
BRANCH   1  28
ATOM     28  C   UNL     1       2.204  -2.280  -0.083  0.00  0.00    +0.090 C 
BRANCH  28  29
ATOM     29  C   UNL     1       1.209  -2.274   1.079  0.00  0.00    -0.060 C 
BRANCH  29  30
ATOM     30  N   UNL     1       1.031  -0.899   1.564  0.00  0.00    +0.380 N 
ATOM     31  H   UNL     1       1.929  -0.507   1.802  0.00  0.00    -0.082 HD
BRANCH  30  33
ATOM     32  C   UNL     1       0.343   1.374   0.965  0.00  0.00    -0.017 C 
ATOM     33  C   UNL     1       0.405  -0.086   0.512  0.00  0.00    -0.082 C 
ENDBRANCH  30  33
BRANCH  30  34
ATOM     34  C   UNL     1       0.169  -0.907   2.754  0.00  0.00    -0.082 C 
ATOM     35  C   UNL     1       0.881  -1.638   3.894  0.00  0.00    -0.017 C 
ENDBRANCH  30  34
ENDBRANCH  29  30
ENDBRANCH  28  29
ENDBRANCH   1  28
TORSDOF 8
