REMARK  Name = ZINC14479020
REMARK  7 active torsions:
REMARK  status: ('A' for Active; 'I' for Inactive)
REMARK    1  A    between atoms: C_1  and  C_2
REMARK    2  A    between atoms: C_7  and  C_8
REMARK    3  A    between atoms: C_19  and  N_24
REMARK    4  A    between atoms: C_25  and  C_27
REMARK    5  A    between atoms: C_27  and  C_28
REMARK    6  A    between atoms: C_28  and  C_29
REMARK    7  A    between atoms: C_28  and  C_30
REMARK                            x       y       z     vdW  Elec       q    Type
REMARK                         _______ _______ _______ _____ _____    ______ ____
ROOT
ATOM      1  C   UNL     1      -1.015   0.638   2.721  0.00  0.00    +0.105 C 
ATOM      2  C   UNL     1      -1.035   1.094   1.273  0.00  0.00    +0.029 C 
ATOM      3  C   UNL     1      -0.392   0.163   0.236  0.00  0.00    +0.033 C 
ATOM      4  C   UNL     1      -1.204   0.489  -1.018  0.00  0.00    -0.030 C 
ATOM      5  C   UNL     1      -2.404   0.942  -0.677  0.00  0.00    -0.023 C 
ATOM      6  C   UNL     1      -2.513   0.928   0.805  0.00  0.00    +0.049 C 
ATOM      7  C   UNL     1      -3.317   1.930   1.538  0.00  0.00    -0.018 A 
ATOM      8  C   UNL     1      -4.423   2.538   0.971  0.00  0.00    +0.029 A 
ATOM      9  C   UNL     1      -5.170   3.450   1.704  0.00  0.00    +0.034 A 
ATOM     10  C   UNL     1      -4.816   3.737   3.016  0.00  0.00    +0.025 A 
ATOM     11  C   UNL     1      -3.720   3.123   3.586  0.00  0.00    +0.025 A 
ATOM     12  C   UNL     1      -2.965   2.213   2.857  0.00  0.00    +0.031 A 
ATOM     13  N   UNL     1      -1.847   1.615   3.457  0.00  0.00    -0.336 N 
ATOM     14  H   UNL     1      -1.615   1.845   4.370  0.00  0.00    +0.147 HD
ENDROOT
BRANCH   1  21
ATOM     15  C   UNL     1      -0.367  -0.814   5.133  0.00  0.00    +0.044 C 
ATOM     16  C   UNL     1       0.706  -0.047   4.404  0.00  0.00    -0.045 A 
ATOM     17  C   UNL     1       2.002  -0.042   4.887  0.00  0.00    +0.004 A 
ATOM     18  C   UNL     1       2.985   0.667   4.222  0.00  0.00    +0.000 A 
ATOM     19  C   UNL     1       2.673   1.366   3.071  0.00  0.00    +0.000 A 
ATOM     20  C   UNL     1       1.379   1.356   2.585  0.00  0.00    +0.006 A 
ATOM     21  C   UNL     1       0.396   0.648   3.250  0.00  0.00    -0.024 A 
ENDBRANCH   1  21
BRANCH   9  22
ATOM     22  N   UNL     1      -6.280   4.079   1.123  0.00  0.00    -0.285 N 
ATOM     23  C   UNL     1      -7.369   4.349   1.869  0.00  0.00    +0.217 C 
ATOM     24  O   UNL     1      -7.358   4.126   3.061  0.00  0.00    -0.275 OA
ATOM     25  H   UNL     1      -6.263   4.319   0.183  0.00  0.00    +0.155 HD
BRANCH  23  26
ATOM     26  C   UNL     1      -8.600   4.929   1.222  0.00  0.00    +0.099 C 
BRANCH  26  27
ATOM     27  C   UNL     1      -9.683   5.139   2.283  0.00  0.00    -0.008 C 
ATOM     28  C   UNL     1      -9.216   6.197   3.285  0.00  0.00    +0.008 C 
ATOM     29  C   UNL     1     -10.973   5.610   1.609  0.00  0.00    +0.008 C 
ENDBRANCH  26  27
ENDBRANCH  23  26
ENDBRANCH   9  22
TORSDOF 4
