REMARK  Name = ZINC21317303
REMARK  14 active torsions:
REMARK  status: ('A' for Active; 'I' for Inactive)
REMARK    1  A    between atoms: C_1  and  C_2
REMARK    2  A    between atoms: C_5  and  C_33
REMARK    3  A    between atoms: C_6  and  N_8
REMARK    4  A    between atoms: C_9  and  C_11
REMARK    5  A    between atoms: C_11  and  S_12
REMARK    6  A    between atoms: S_12  and  C_13
REMARK    7  A    between atoms: N_17  and  N_18
REMARK    8  A    between atoms: N_19  and  N_20
REMARK    9  A    between atoms: C_21  and  C_22
REMARK   10  A    between atoms: C_21  and  C_23
REMARK   11  A    between atoms: C_26  and  O_31
REMARK   12  A    between atoms: C_27  and  O_29
REMARK   13  A    between atoms: O_29  and  C_30
REMARK   14  A    between atoms: O_31  and  C_32
REMARK                            x       y       z     vdW  Elec       q    Type
REMARK                         _______ _______ _______ _____ _____    ______ ____
ROOT
ATOM      1  C   UNL     1      -4.337  -4.500   0.027  0.00  0.00    +0.210 A 
ATOM      2  N   UNL     1      -3.026  -4.487   0.028  0.00  0.00    -0.119 NA
ATOM      3  N   UNL     1      -2.607  -3.150   0.044  0.00  0.00    -0.109 NA
ATOM      4  C   UNL     1      -3.675  -2.391   0.051  0.00  0.00    +0.254 A 
ATOM      5  N   UNL     1      -4.773  -3.206   0.046  0.00  0.00    -0.211 N 
ATOM      6  N   UNL     1      -3.690  -1.004   0.068  0.00  0.00    -0.204 N 
ATOM      7  H   UNL     1      -4.648  -0.464   0.073  0.00  0.00    +0.178 HD
ENDROOT
BRANCH   5   8
ATOM      8  N   UNL     1      -6.076  -2.797   0.056  0.00  0.00    -0.294 N 
ATOM      9  H   UNL     1      -6.316  -1.724   0.071  0.00  0.00    +0.163 HD
ATOM     10  H   UNL     1      -6.886  -3.542   0.047  0.00  0.00    +0.163 HD
ENDBRANCH   5   8
BRANCH   6  11
ATOM     11  N   UNL     1      -2.484  -0.290   0.077  0.00  0.00    -0.184 NA
ATOM     12  C   UNL     1      -2.497   1.008   0.092  0.00  0.00    +0.063 C 
ATOM     13  C   UNL     1      -3.810   1.748   0.100  0.00  0.00    +0.068 C 
BRANCH  12  14
ATOM     14  C   UNL     1      -1.228   1.758   0.102  0.00  0.00    +0.001 A 
ATOM     15  C   UNL     1      -1.241   3.155   0.123  0.00  0.00    +0.013 A 
ATOM     16  C   UNL     1      -0.053   3.855   0.127  0.00  0.00    +0.050 A 
ATOM     17  C   UNL     1       1.157   3.176   0.115  0.00  0.00    +0.162 A 
ATOM     18  C   UNL     1       1.177   1.783   0.099  0.00  0.00    +0.162 A 
ATOM     19  C   UNL     1      -0.010   1.074   0.096  0.00  0.00    +0.059 A 
BRANCH  18  20
ATOM     20  O   UNL     1       2.364   1.120   0.087  0.00  0.00    -0.491 OA
ATOM     21  C   UNL     1       2.311  -0.307   0.071  0.00  0.00    +0.277 C 
ENDBRANCH  18  20
BRANCH  17  22
ATOM     22  O   UNL     1       2.325   3.871   0.118  0.00  0.00    -0.491 OA
ATOM     23  C   UNL     1       2.232   5.297   0.134  0.00  0.00    +0.277 C 
ENDBRANCH  17  22
ENDBRANCH  12  14
ENDBRANCH   6  11
BRANCH   1  24
ATOM     24  S   UNL     1      -5.358  -5.936   0.009  0.00  0.00    -0.075 S 
BRANCH  24  25
ATOM     25  C   UNL     1      -4.178  -7.314  -0.004  0.00  0.00    +0.173 C 
BRANCH  25  27
ATOM     26  N   UNL     1      -4.255  -9.786  -0.032  0.00  0.00    -0.285 N 
ATOM     27  C   UNL     1      -4.930  -8.620  -0.020  0.00  0.00    +0.227 C 
ATOM     28  O   UNL     1      -6.143  -8.621  -0.021  0.00  0.00    -0.275 OA
ATOM     29  H   UNL     1      -3.158  -9.786  -0.122  0.00  0.00    +0.155 HD
BRANCH  26  35
ATOM     30  C   UNL     1      -8.234 -12.273   1.434  0.00  0.00    +0.044 C 
ATOM     31  C   UNL     1      -6.879 -12.231   0.776  0.00  0.00    -0.049 A 
ATOM     32  C   UNL     1      -6.320 -13.392   0.273  0.00  0.00    +0.004 A 
ATOM     33  C   UNL     1      -5.076 -13.358  -0.331  0.00  0.00    +0.005 A 
ATOM     34  C   UNL     1      -4.389 -12.164  -0.433  0.00  0.00    -0.029 A 
ATOM     35  C   UNL     1      -4.948 -10.997   0.071  0.00  0.00    +0.037 A 
ATOM     36  C   UNL     1      -6.195 -11.036   0.682  0.00  0.00    +0.027 A 
ATOM     37  C   UNL     1      -3.034 -12.128  -1.092  0.00  0.00    +0.045 C 
ENDBRANCH  26  35
ENDBRANCH  25  27
ENDBRANCH  24  25
ENDBRANCH   1  24
TORSDOF 9
