REMARK  Name = ZINC66738973
REMARK  6 active torsions:
REMARK  status: ('A' for Active; 'I' for Inactive)
REMARK    1  A    between atoms: C_1  and  C_2
REMARK    2  A    between atoms: C_9  and  C_14
REMARK    3  A    between atoms: C_17  and  O_20
REMARK    4  A    between atoms: O_20  and  C_21
REMARK    5  A    between atoms: C_21  and  C_23
REMARK    6  A    between atoms: C_21  and  C_24
REMARK                            x       y       z     vdW  Elec       q    Type
REMARK                         _______ _______ _______ _____ _____    ______ ____
ROOT
ATOM      1  C   UNL     1      -0.026   2.121   0.488  0.00  0.00    +0.045 C 
ATOM      2  C   UNL     1       0.020   0.641   0.207  0.00  0.00    -0.029 A 
ATOM      3  C   UNL     1       0.046   0.181  -1.096  0.00  0.00    +0.005 A 
ATOM      4  C   UNL     1       0.089  -1.178  -1.363  0.00  0.00    +0.001 A 
ATOM      5  C   UNL     1       0.109  -2.094  -0.332  0.00  0.00    +0.015 A 
ATOM      6  C   UNL     1       0.086  -1.645   0.986  0.00  0.00    +0.058 A 
ATOM      7  C   UNL     1       0.043  -0.265   1.253  0.00  0.00    +0.044 A 
ATOM      8  N   UNL     1       0.013   0.143   2.582  0.00  0.00    -0.321 N 
ATOM      9  C   UNL     1      -0.607  -0.744   3.574  0.00  0.00    +0.190 C 
ATOM     10  N   UNL     1      -0.176  -2.125   3.360  0.00  0.00    -0.289 N 
ATOM     11  C   UNL     1       0.111  -2.580   2.125  0.00  0.00    +0.247 C 
ATOM     12  O   UNL     1       0.403  -3.749   1.956  0.00  0.00    -0.270 OA
ATOM     13  H   UNL     1       0.393   0.995   2.848  0.00  0.00    +0.148 HD
ATOM     14  H   UNL     1      -0.103  -2.724   4.119  0.00  0.00    +0.151 HD
ENDROOT
BRANCH   9  15
ATOM     15  C   UNL     1      -2.107  -0.667   3.444  0.00  0.00    -0.009 A 
ATOM     16  C   UNL     1      -2.702   0.499   2.999  0.00  0.00    +0.010 A 
ATOM     17  C   UNL     1      -4.076   0.572   2.880  0.00  0.00    +0.046 A 
ATOM     18  C   UNL     1      -4.859  -0.526   3.205  0.00  0.00    +0.122 A 
ATOM     19  C   UNL     1      -4.260  -1.695   3.650  0.00  0.00    +0.046 A 
ATOM     20  C   UNL     1      -2.884  -1.764   3.764  0.00  0.00    +0.010 A 
BRANCH  18  21
ATOM     21  O   UNL     1      -6.211  -0.456   3.088  0.00  0.00    -0.475 OA
BRANCH  21  22
ATOM     22  C   UNL     1      -6.753   0.734   2.512  0.00  0.00    +0.271 C 
ATOM     23  C   UNL     1      -6.910   1.801   3.597  0.00  0.00    +0.068 C 
BRANCH  22  24
ATOM     24  C   UNL     1      -8.067   0.439   1.920  0.00  0.00    +0.107 C 
ATOM     25  N   UNL     1      -9.082   0.211   1.463  0.00  0.00    -0.193 NA
ENDBRANCH  22  24
ENDBRANCH  21  22
ENDBRANCH  18  21
ENDBRANCH   9  15
TORSDOF 4
