REMARK  Name = ZINC59679536
REMARK  3 active torsions:
REMARK  status: ('A' for Active; 'I' for Inactive)
REMARK    1  A    between atoms: C_6  and  N_11
REMARK    2  A    between atoms: C_12  and  C_13
REMARK    3  A    between atoms: C_16  and  N_18
REMARK                            x       y       z     vdW  Elec       q    Type
REMARK                         _______ _______ _______ _____ _____    ______ ____
ROOT
ATOM      1  N   UNL     1       4.851  -2.711  -0.114  0.00  0.00    -0.252 NA
ATOM      2  C   UNL     1       5.054  -3.713   0.708  0.00  0.00    +0.157 C 
ENDROOT
BRANCH   1   8
ATOM      3  C   UNL     1      -0.093   1.247  -0.147  0.00  0.00    +0.001 A 
ATOM      4  C   UNL     1       1.082   1.995  -0.173  0.00  0.00    +0.001 A 
ATOM      5  C   UNL     1       2.300   1.387  -0.172  0.00  0.00    +0.008 A 
ATOM      6  C   UNL     1       2.376  -0.018  -0.145  0.00  0.00    -0.016 A 
ATOM      7  C   UNL     1       3.614  -0.676  -0.143  0.00  0.00    +0.036 A 
ATOM      8  C   UNL     1       3.649  -2.062  -0.116  0.00  0.00    +0.065 A 
ATOM      9  C   UNL     1       2.453  -2.806  -0.089  0.00  0.00    +0.028 A 
ATOM     10  C   UNL     1       1.248  -2.184  -0.091  0.00  0.00    +0.010 A 
ATOM     11  C   UNL     1       1.179  -0.779  -0.119  0.00  0.00    -0.018 A 
ATOM     12  C   UNL     1      -0.058  -0.114  -0.120  0.00  0.00    +0.008 A 
ENDBRANCH   1   8
BRANCH   2  13
ATOM     13  C   UNL     1       6.296  -4.382   0.710  0.00  0.00    +0.149 A 
ATOM     14  C   UNL     1       6.642  -5.451   1.515  0.00  0.00    +0.068 A 
ATOM     15  C   UNL     1       7.956  -5.795   1.183  0.00  0.00    +0.079 A 
ATOM     16  C   UNL     1       8.361  -4.938   0.202  0.00  0.00    +0.204 A 
ATOM     17  O   UNL     1       7.356  -4.095  -0.080  0.00  0.00    -0.439 OA
ATOM     18 BR   UNL     1       8.980  -7.187   1.950  0.00  0.00    -0.045 Br
BRANCH  16  19
ATOM     19  N   UNL     1       9.603  -4.939  -0.405  0.00  0.00    -0.296 N 
ATOM     20  C   UNL     1       9.874  -5.792  -1.574  0.00  0.00    +0.136 C 
ATOM     21  C   UNL     1      10.497  -4.923  -2.672  0.00  0.00    +0.179 C 
ATOM     22  O   UNL     1      11.614  -4.212  -2.132  0.00  0.00    -0.377 OA
ATOM     23  C   UNL     1      11.277  -3.303  -1.082  0.00  0.00    +0.179 C 
ATOM     24  C   UNL     1      10.692  -4.085   0.095  0.00  0.00    +0.136 C 
ENDBRANCH  16  19
ENDBRANCH   2  13
TORSDOF 3
