REMARK  Name = ZINC23135381
REMARK  3 active torsions:
REMARK  status: ('A' for Active; 'I' for Inactive)
REMARK    1  A    between atoms: C_4  and  C_7
REMARK    2  A    between atoms: C_7  and  C_8
REMARK    3  A    between atoms: C_7  and  N_14
REMARK                            x       y       z     vdW  Elec       q    Type
REMARK                         _______ _______ _______ _____ _____    ______ ____
ROOT
ATOM      1  N   UNL     1       3.548  -1.829  -0.980  0.00  0.00    -0.289 NA
ATOM      2  C   UNL     1       3.056  -1.505  -2.325  0.00  0.00    +0.104 C 
ATOM      3  C   UNL     1       2.859  -2.800  -3.120  0.00  0.00    +0.122 C 
ATOM      4  N   UNL     1       4.115  -3.565  -3.084  0.00  0.00    -0.312 N 
ATOM      5  C   UNL     1       4.742  -3.813  -1.777  0.00  0.00    +0.122 C 
ATOM      6  C   UNL     1       4.865  -2.477  -1.036  0.00  0.00    +0.104 C 
ATOM      7  C   UNL     1       4.689  -4.040  -4.247  0.00  0.00    +0.135 A 
ATOM      8  C   UNL     1       4.359  -5.314  -4.748  0.00  0.00    +0.078 A 
ATOM      9  C   UNL     1       3.499  -6.353  -4.329  0.00  0.00    +0.147 A 
ATOM     10  N   UNL     1       3.585  -7.330  -5.186  0.00  0.00    -0.180 NA
ATOM     11  N   UNL     1       4.491  -6.990  -6.199  0.00  0.00    -0.260 N 
ATOM     12  H   UNL     1       4.731  -7.547  -6.957  0.00  0.00    +0.191 HD
ATOM     13  C   UNL     1       4.976  -5.744  -5.938  0.00  0.00    +0.161 A 
ATOM     14  N   UNL     1       5.845  -4.933  -6.541  0.00  0.00    -0.216 NA
ATOM     15  C   UNL     1       6.121  -3.751  -6.035  0.00  0.00    +0.225 A 
ATOM     16  N   UNL     1       5.563  -3.303  -4.924  0.00  0.00    -0.220 NA
ENDROOT
BRANCH   1  17
ATOM     17  C   UNL     1       3.586  -0.631  -0.130  0.00  0.00    +0.117 C 
BRANCH  17  21
ATOM     18  C   UNL     1      -0.285   1.173  -0.039  0.00  0.00    +0.000 A 
ATOM     19  C   UNL     1       0.845   1.965  -0.110  0.00  0.00    +0.000 A 
ATOM     20  C   UNL     1       2.098   1.381  -0.139  0.00  0.00    +0.005 A 
ATOM     21  C   UNL     1       2.220   0.005  -0.097  0.00  0.00    -0.026 A 
ATOM     22  C   UNL     1       1.090  -0.787  -0.026  0.00  0.00    +0.005 A 
ATOM     23  C   UNL     1      -0.163  -0.204   0.002  0.00  0.00    +0.000 A 
ENDBRANCH  17  21
BRANCH  17  24
ATOM     24  C   UNL     1       3.993  -1.020   1.268  0.00  0.00    -0.026 A 
ATOM     25  C   UNL     1       3.507  -2.185   1.831  0.00  0.00    +0.005 A 
ATOM     26  C   UNL     1       3.881  -2.541   3.113  0.00  0.00    +0.000 A 
ATOM     27  C   UNL     1       4.740  -1.732   3.832  0.00  0.00    +0.000 A 
ATOM     28  C   UNL     1       5.227  -0.567   3.269  0.00  0.00    +0.000 A 
ATOM     29  C   UNL     1       4.857  -0.213   1.985  0.00  0.00    +0.005 A 
ENDBRANCH  17  24
ENDBRANCH   1  17
TORSDOF 3
