REMARK  Name = ZINC04311426
REMARK  8 active torsions:
REMARK  status: ('A' for Active; 'I' for Inactive)
REMARK    1  A    between atoms: C_1  and  C_2
REMARK    2  A    between atoms: C_2  and  C_31
REMARK    3  A    between atoms: C_3  and  N_28
REMARK    4  A    between atoms: C_5  and  C_21
REMARK    5  A    between atoms: C_7  and  C_14
REMARK    6  A    between atoms: C_9  and  N_11
REMARK    7  A    between atoms: C_17  and  O_20
REMARK    8  A    between atoms: C_24  and  O_27
REMARK                            x       y       z     vdW  Elec       q    Type
REMARK                         _______ _______ _______ _____ _____    ______ ____
ROOT
ATOM      1  C   UNL     1       1.569   1.708   1.767  0.00  0.00    +0.015 C 
ATOM      2  C   UNL     1       0.667   0.895   0.835  0.00  0.00    +0.017 C 
ATOM      3  C   UNL     1      -0.132   1.846  -0.061  0.00  0.00    +0.168 C 
ATOM      4  C   UNL     1       0.835   2.650  -0.933  0.00  0.00    -0.010 C 
ATOM      5  C   UNL     1       2.447   0.841  -0.915  0.00  0.00    -0.010 C 
ATOM      6  C   UNL     1       1.528  -0.017  -0.042  0.00  0.00    +0.168 C 
ATOM      7  C   UNL     1      -0.295   0.045   1.667  0.00  0.00    +0.015 C 
ATOM      8  N   UNL     1       1.635   1.732  -1.766  0.00  0.00    +0.391 N 
ATOM      9  H   UNL     1       2.256   2.279  -2.372  0.00  0.00    -0.084 HD
ATOM     10  H   UNL     1       1.004   1.164  -2.345  0.00  0.00    -0.084 HD
ENDROOT
BRANCH   5  11
ATOM     11  C   UNL     1       3.282  -0.053  -1.795  0.00  0.00    -0.059 A 
ATOM     12  C   UNL     1       2.738  -0.592  -2.947  0.00  0.00    +0.005 A 
ATOM     13  C   UNL     1       3.504  -1.407  -3.758  0.00  0.00    +0.045 A 
ATOM     14  C   UNL     1       4.816  -1.694  -3.410  0.00  0.00    +0.117 A 
ATOM     15  C   UNL     1       5.358  -1.157  -2.252  0.00  0.00    +0.045 A 
ATOM     16  C   UNL     1       4.590  -0.338  -1.447  0.00  0.00    +0.005 A 
BRANCH  14  17
ATOM     17  O   UNL     1       5.570  -2.500  -4.204  0.00  0.00    -0.507 OA
ATOM     18  H   UNL     1       5.513  -3.438  -3.978  0.00  0.00    +0.292 HD
ENDBRANCH  14  17
ENDBRANCH   5  11
BRANCH   4  19
ATOM     19  C   UNL     1       1.749   3.462  -0.053  0.00  0.00    -0.059 A 
ATOM     20  C   UNL     1       1.254   4.058   1.093  0.00  0.00    +0.005 A 
ATOM     21  C   UNL     1       2.091   4.799   1.904  0.00  0.00    +0.045 A 
ATOM     22  C   UNL     1       3.426   4.954   1.563  0.00  0.00    +0.117 A 
ATOM     23  C   UNL     1       3.919   4.361   0.410  0.00  0.00    +0.045 A 
ATOM     24  C   UNL     1       3.079   3.616  -0.395  0.00  0.00    +0.005 A 
BRANCH  22  25
ATOM     25  O   UNL     1       4.251   5.687   2.357  0.00  0.00    -0.507 OA
ATOM     26  H   UNL     1       4.287   6.625   2.127  0.00  0.00    +0.292 HD
ENDBRANCH  22  25
ENDBRANCH   4  19
BRANCH   6  27
ATOM     27  N   UNL     1       0.662  -0.833  -0.897  0.00  0.00    +0.025 N 
ATOM     28  O   UNL     1      -0.095  -0.296  -1.686  0.00  0.00    -0.131 OA
ATOM     29  O   UNL     1       0.700  -2.048  -0.819  0.00  0.00    -0.131 OA
ENDBRANCH   6  27
BRANCH   3  30
ATOM     30  N   UNL     1      -0.915   2.761   0.773  0.00  0.00    +0.025 N 
ATOM     31  O   UNL     1      -0.858   2.679   1.987  0.00  0.00    -0.131 OA
ATOM     32  O   UNL     1      -1.624   3.604   0.252  0.00  0.00    -0.131 OA
ENDBRANCH   3  30
TORSDOF 6
