REMARK  Name = ZINC08386724
REMARK  9 active torsions:
REMARK  status: ('A' for Active; 'I' for Inactive)
REMARK    1  A    between atoms: C_8  and  C_24
REMARK    2  A    between atoms: C_10  and  O_12
REMARK    3  A    between atoms: O_12  and  C_13
REMARK    4  A    between atoms: C_13  and  C_15
REMARK    5  A    between atoms: C_18  and  N_21
REMARK    6  A    between atoms: C_24  and  O_25
REMARK    7  A    between atoms: O_25  and  C_26
REMARK    8  A    between atoms: C_26  and  C_28
REMARK    9  A    between atoms: C_31  and  N_34
REMARK                            x       y       z     vdW  Elec       q    Type
REMARK                         _______ _______ _______ _____ _____    ______ ____
ROOT
ATOM      1  C   UNL     1      -5.702  -5.166  -2.494  0.00  0.00    +0.000 A 
ATOM      2  C   UNL     1      -5.252  -6.201  -1.696  0.00  0.00    +0.000 A 
ATOM      3  C   UNL     1      -4.186  -5.998  -0.841  0.00  0.00    +0.007 A 
ATOM      4  C   UNL     1      -3.567  -4.760  -0.780  0.00  0.00    -0.004 A 
ATOM      5  C   UNL     1      -4.017  -3.726  -1.579  0.00  0.00    -0.040 A 
ATOM      6  C   UNL     1      -5.086  -3.932  -2.436  0.00  0.00    +0.004 A 
ATOM      7  C   UNL     1      -3.185  -2.483  -1.329  0.00  0.00    +0.046 C 
ATOM      8  C   UNL     1      -2.465  -2.746   0.011  0.00  0.00    +0.076 C 
ATOM      9  C   UNL     1      -2.400  -4.287   0.060  0.00  0.00    +0.214 C 
ENDROOT
BRANCH   9  10
ATOM     10  O   UNL     1      -1.147  -4.757  -0.505  0.00  0.00    -0.453 OA
BRANCH  10  11
ATOM     11  C   UNL     1      -0.649  -5.909  -0.016  0.00  0.00    +0.340 C 
ATOM     12  O   UNL     1      -1.245  -6.505   0.859  0.00  0.00    -0.245 OA
BRANCH  11  13
ATOM     13  C   UNL     1       0.621  -6.447  -0.543  0.00  0.00    +0.059 A 
ATOM     14  C   UNL     1       1.306  -5.767  -1.552  0.00  0.00    +0.017 A 
ATOM     15  C   UNL     1       2.495  -6.272  -2.036  0.00  0.00    +0.033 A 
ATOM     16  C   UNL     1       3.004  -7.456  -1.531  0.00  0.00    +0.126 A 
ATOM     17  C   UNL     1       2.328  -8.138  -0.535  0.00  0.00    +0.033 A 
ATOM     18  C   UNL     1       1.140  -7.641  -0.038  0.00  0.00    +0.017 A 
BRANCH  16  19
ATOM     19  N   UNL     1       4.277  -7.995  -2.059  0.00  0.00    +0.056 N 
ATOM     20  O   UNL     1       4.728  -9.037  -1.616  0.00  0.00    -0.126 OA
ATOM     21  O   UNL     1       4.875  -7.397  -2.936  0.00  0.00    -0.126 OA
ENDBRANCH  16  19
ENDBRANCH  11  13
ENDBRANCH  10  11
ENDBRANCH   9  10
BRANCH   8  22
ATOM     22  C   UNL     1      -1.060  -2.142   0.001  0.00  0.00    +0.240 C 
BRANCH  22  23
ATOM     23  O   UNL     1      -1.155  -0.693   0.009  0.00  0.00    -0.461 OA
BRANCH  23  24
ATOM     24  C   UNL     1       0.002  -0.004   0.002  0.00  0.00    +0.339 C 
ATOM     25  O   UNL     1       1.062  -0.597  -0.011  0.00  0.00    -0.245 OA
BRANCH  24  26
ATOM     26  C   UNL     1      -0.018   1.473   0.010  0.00  0.00    +0.059 A 
ATOM     27  C   UNL     1      -1.235   2.158   0.020  0.00  0.00    +0.017 A 
ATOM     28  C   UNL     1      -1.246   3.537   0.034  0.00  0.00    +0.033 A 
ATOM     29  C   UNL     1      -0.056   4.242   0.026  0.00  0.00    +0.126 A 
ATOM     30  C   UNL     1       1.154   3.570   0.010  0.00  0.00    +0.033 A 
ATOM     31  C   UNL     1       1.180   2.191   0.003  0.00  0.00    +0.017 A 
BRANCH  29  32
ATOM     32  N   UNL     1      -0.076   5.722   0.034  0.00  0.00    +0.056 N 
ATOM     33  O   UNL     1       0.971   6.345   0.027  0.00  0.00    -0.126 OA
ATOM     34  O   UNL     1      -1.139   6.317   0.048  0.00  0.00    -0.126 OA
ENDBRANCH  29  32
ENDBRANCH  24  26
ENDBRANCH  23  24
ENDBRANCH  22  23
ENDBRANCH   8  22
TORSDOF 9
