REMARK  Name = ZINC49641184
REMARK  2 active torsions:
REMARK  status: ('A' for Active; 'I' for Inactive)
REMARK    1  A    between atoms: N_9  and  S_12
REMARK    2  A    between atoms: S_12  and  C_15
REMARK                            x       y       z     vdW  Elec       q    Type
REMARK                         _______ _______ _______ _____ _____    ______ ____
ROOT
ATOM      1  C   UNL     1      -0.016   1.317   0.009  0.00  0.00    +0.120 A 
ATOM      2  C   UNL     1       1.182   1.950   0.001  0.00  0.00    +0.068 A 
ATOM      3  S   UNL     1       2.296   0.554  -0.017  0.00  0.00    -0.061 S 
ATOM      4  C   UNL     1       1.138  -0.668  -0.012  0.00  0.00    +0.161 A 
ATOM      5  N   UNL     1       0.002  -0.004   0.002  0.00  0.00    -0.233 NA
ATOM      6  N   UNL     1       1.335  -2.040  -0.022  0.00  0.00    -0.307 N 
ATOM      7  C   UNL     1       2.693  -2.601  -0.031  0.00  0.00    +0.124 C 
ATOM      8  C   UNL     1       2.835  -3.561   1.156  0.00  0.00    +0.128 C 
ATOM      9  N   UNL     1       1.688  -4.481   1.157  0.00  0.00    -0.178 NA
ATOM     10  C   UNL     1       0.330  -3.919   1.166  0.00  0.00    +0.128 C 
ATOM     11  C   UNL     1       0.188  -2.959  -0.016  0.00  0.00    +0.124 C 
ENDROOT
BRANCH   9  12
ATOM     12  S   UNL     1       1.923  -6.120   1.145  0.00  0.00    +0.033 S 
ATOM     13  O   UNL     1       0.749  -6.650   0.545  0.00  0.00    -0.158 OA
ATOM     14  O   UNL     1       3.193  -6.301   0.535  0.00  0.00    -0.158 OA
BRANCH  12  15
ATOM     15  C   UNL     1       1.998  -6.592   2.895  0.00  0.00    +0.131 C 
ATOM     16  C   UNL     1       0.682  -6.215   3.584  0.00  0.00    +0.024 C 
ATOM     17  C   UNL     1       0.726  -6.687   5.040  0.00  0.00    -0.017 C 
ATOM     18  C   UNL     1       0.986  -8.195   5.073  0.00  0.00    -0.082 C 
ATOM     19  N   UNL     1       2.269  -8.488   4.424  0.00  0.00    +0.380 N 
ATOM     20  C   UNL     1       2.212  -8.103   3.008  0.00  0.00    -0.055 C 
ATOM     21  H   UNL     1       3.003  -7.970   4.882  0.00  0.00    -0.086 HD
ATOM     22  H   UNL     1       2.463  -9.476   4.495  0.00  0.00    -0.086 HD
ENDBRANCH  12  15
ENDBRANCH   9  12
TORSDOF 2
