REMARK  Name = ZINC35155571
REMARK  12 active torsions:
REMARK  status: ('A' for Active; 'I' for Inactive)
REMARK    1  A    between atoms: C_1  and  C_2
REMARK    2  A    between atoms: C_2  and  C_3
REMARK    3  A    between atoms: C_3  and  C_5
REMARK    4  A    between atoms: C_3  and  C_6
REMARK    5  A    between atoms: C_6  and  C_8
REMARK    6  A    between atoms: C_6  and  N_27
REMARK    7  A    between atoms: C_14  and  C_17
REMARK    8  A    between atoms: N_20  and  C_21
REMARK    9  A    between atoms: C_28  and  C_30
REMARK   10  A    between atoms: C_30  and  C_31
REMARK   11  A    between atoms: C_30  and  C_32
REMARK   12  A    between atoms: C_30  and  C_33
REMARK                            x       y       z     vdW  Elec       q    Type
REMARK                         _______ _______ _______ _____ _____    ______ ____
ROOT
ATOM      1  C   UNL     1      -2.990  -0.805  -0.904  0.00  0.00    +0.236 C 
ATOM      2  O   UNL     1      -3.922  -0.060  -0.689  0.00  0.00    -0.274 OA
ATOM      3  N   UNL     1      -3.125  -2.130  -0.696  0.00  0.00    -0.297 N 
ATOM      4  C   UNL     1      -1.970  -3.029  -0.825  0.00  0.00    +0.127 C 
ATOM      5  C   UNL     1      -2.317  -4.132  -1.833  0.00  0.00    +0.128 C 
ATOM      6  N   UNL     1      -3.622  -4.704  -1.472  0.00  0.00    -0.280 N 
ATOM      7  C   UNL     1      -4.778  -3.804  -1.343  0.00  0.00    +0.092 C 
ATOM      8  C   UNL     1      -4.429  -2.701  -0.330  0.00  0.00    +0.130 C 
ATOM      9  C   UNL     1      -5.097  -3.180  -2.703  0.00  0.00    +0.030 C 
ATOM     10  C   UNL     1      -3.757  -6.028  -1.264  0.00  0.00    +0.307 C 
ATOM     11  O   UNL     1      -4.858  -6.503  -1.060  0.00  0.00    -0.252 OA
ATOM     12  N   UNL     1      -2.672  -6.827  -1.282  0.00  0.00    -0.269 N 
ATOM     13  H   UNL     1      -1.786  -6.440  -1.363  0.00  0.00    +0.156 HD
ENDROOT
BRANCH  12  14
ATOM     14  C   UNL     1      -2.823  -8.215  -1.182  0.00  0.00    +0.035 A 
ATOM     15  C   UNL     1      -3.939  -8.834  -1.730  0.00  0.00    +0.023 A 
ATOM     16  C   UNL     1      -4.085 -10.204  -1.630  0.00  0.00    +0.002 A 
ATOM     17  C   UNL     1      -3.121 -10.959  -0.987  0.00  0.00    +0.000 A 
ATOM     18  C   UNL     1      -2.009 -10.345  -0.440  0.00  0.00    +0.002 A 
ATOM     19  C   UNL     1      -1.855  -8.976  -0.541  0.00  0.00    +0.023 A 
ENDBRANCH  12  14
BRANCH   1  20
ATOM     20  C   UNL     1      -1.681  -0.251  -1.404  0.00  0.00    +0.162 C 
BRANCH  20  21
ATOM     21  N   UNL     1      -1.841   1.172  -1.716  0.00  0.00    -0.303 N 
ATOM     22  C   UNL     1      -1.128   1.726  -2.716  0.00  0.00    +0.220 C 
ATOM     23  O   UNL     1      -0.426   1.031  -3.419  0.00  0.00    -0.275 OA
ATOM     24  H   UNL     1      -2.459   1.714  -1.202  0.00  0.00    +0.149 HD
BRANCH  22  25
ATOM     25  C   UNL     1      -1.205   3.211  -2.963  0.00  0.00    +0.055 C 
ATOM     26  C   UNL     1      -2.651   3.602  -3.277  0.00  0.00    +0.022 C 
ATOM     27  C   UNL     1      -0.734   3.960  -1.715  0.00  0.00    +0.022 C 
BRANCH  25  28
ATOM     28  C   UNL     1      -0.308   3.579  -4.147  0.00  0.00    +0.124 C 
ATOM     29 CL   UNL     1      -0.400   5.355  -4.442  0.00  0.00    -0.124 Cl
ENDBRANCH  25  28
ENDBRANCH  22  25
ENDBRANCH  20  21
BRANCH  20  30
ATOM     30  C   UNL     1      -0.610  -0.419  -0.325  0.00  0.00    +0.015 C 
ATOM     31  C   UNL     1       0.754  -0.023  -0.893  0.00  0.00    +0.010 C 
BRANCH  30  33
ATOM     32  C   UNL     1      -2.175  -0.075   1.592  0.00  0.00    +0.004 C 
ATOM     33  C   UNL     1      -0.944   0.476   0.870  0.00  0.00    +0.002 C 
ENDBRANCH  30  33
ENDBRANCH  20  30
ENDBRANCH   1  20
TORSDOF 7
