REMARK  Name = ZINC67155713
REMARK  13 active torsions:
REMARK  status: ('A' for Active; 'I' for Inactive)
REMARK    1  A    between atoms: C_1  and  C_2
REMARK    2  A    between atoms: C_2  and  C_3
REMARK    3  A    between atoms: C_2  and  C_4
REMARK    4  A    between atoms: C_4  and  C_5
REMARK    5  A    between atoms: C_5  and  C_6
REMARK    6  A    between atoms: N_8  and  C_9
REMARK    7  A    between atoms: C_9  and  C_10
REMARK    8  A    between atoms: C_16  and  N_19
REMARK    9  A    between atoms: C_20  and  O_22
REMARK   10  A    between atoms: O_22  and  C_23
REMARK   11  A    between atoms: C_23  and  C_24
REMARK   12  A    between atoms: C_23  and  C_25
REMARK   13  A    between atoms: C_23  and  C_26
REMARK                            x       y       z     vdW  Elec       q    Type
REMARK                         _______ _______ _______ _____ _____    ______ ____
ROOT
ATOM      1  C   UNL     1      -6.428  -0.528  -3.592  0.00  0.00    +0.233 C 
ATOM      2  O   UNL     1      -5.831   0.114  -4.430  0.00  0.00    -0.274 OA
ATOM      3  N   UNL     1      -7.709  -0.888  -3.805  0.00  0.00    -0.298 N 
ATOM      4  C   UNL     1      -8.447  -1.662  -2.797  0.00  0.00    +0.108 C 
ATOM      5  C   UNL     1      -9.028  -2.912  -3.464  0.00  0.00    +0.021 C 
ATOM      6  C   UNL     1      -9.867  -2.497  -4.675  0.00  0.00    +0.025 C 
ATOM      7  C   UNL     1      -8.977  -1.778  -5.691  0.00  0.00    +0.093 C 
ATOM      8  C   UNL     1      -8.397  -0.509  -5.047  0.00  0.00    +0.130 C 
ENDROOT
BRANCH   7   9
ATOM      9  N   UNL     1      -9.774  -1.409  -6.864  0.00  0.00    -0.277 N 
ATOM     10  C   UNL     1      -9.174  -1.238  -8.059  0.00  0.00    +0.401 C 
ATOM     11  O   UNL     1      -7.973  -1.391  -8.164  0.00  0.00    -0.226 OA
ATOM     12  H   UNL     1     -10.732  -1.287  -6.780  0.00  0.00    +0.152 HD
BRANCH  10  13
ATOM     13  O   UNL     1      -9.906  -0.900  -9.137  0.00  0.00    -0.445 OA
BRANCH  13  14
ATOM     14  C   UNL     1      -9.206  -0.736 -10.372  0.00  0.00    +0.107 C 
ATOM     15  C   UNL     1      -8.511  -2.048 -10.742  0.00  0.00    +0.055 C 
ATOM     16  C   UNL     1     -10.196  -0.354 -11.473  0.00  0.00    +0.055 C 
ATOM     17  C   UNL     1      -8.159   0.370 -10.221  0.00  0.00    +0.055 C 
ENDBRANCH  13  14
ENDBRANCH  10  13
ENDBRANCH   7   9
BRANCH   1  18
ATOM     18  C   UNL     1      -5.737  -0.925  -2.313  0.00  0.00    +0.200 C 
BRANCH  18  21
ATOM     19  C   UNL     1      -3.549  -0.653  -1.275  0.00  0.00    +0.213 C 
ATOM     20  O   UNL     1      -3.955  -1.284  -0.323  0.00  0.00    -0.276 OA
ATOM     21  N   UNL     1      -4.362  -0.418  -2.324  0.00  0.00    -0.307 N 
ATOM     22  H   UNL     1      -4.037   0.087  -3.086  0.00  0.00    +0.149 HD
BRANCH  19  23
ATOM     23  C   UNL     1      -2.135  -0.131  -1.286  0.00  0.00    +0.096 C 
BRANCH  23  24
ATOM     24  C   UNL     1      -1.433  -0.534   0.013  0.00  0.00    +0.012 C 
BRANCH  24  26
ATOM     25  C   UNL     1      -0.019   1.526   0.010  0.00  0.00    +0.007 C 
ATOM     26  C   UNL     1       0.002  -0.004   0.002  0.00  0.00    -0.017 C 
ATOM     27  C   UNL     1       0.742  -0.511   1.242  0.00  0.00    +0.007 C 
ENDBRANCH  24  26
ENDBRANCH  23  24
ENDBRANCH  19  23
ENDBRANCH  18  21
ENDBRANCH   1  18
TORSDOF 8
