REMARK  Name = ZINC35779102
REMARK  18 active torsions:
REMARK  status: ('A' for Active; 'I' for Inactive)
REMARK    1  A    between atoms: C_1  and  C_2
REMARK    2  A    between atoms: C_2  and  C_3
REMARK    3  A    between atoms: C_2  and  C_4
REMARK    4  A    between atoms: C_4  and  N_5
REMARK    5  A    between atoms: N_5  and  C_6
REMARK    6  A    between atoms: N_5  and  C_16
REMARK    7  A    between atoms: C_6  and  C_7
REMARK    8  A    between atoms: C_7  and  C_9
REMARK    9  A    between atoms: C_7  and  O_15
REMARK   10  A    between atoms: C_9  and  O_10
REMARK   11  A    between atoms: O_10  and  C_11
REMARK   12  A    between atoms: C_11  and  C_12
REMARK   13  A    between atoms: C_11  and  C_13
REMARK   14  A    between atoms: C_11  and  C_14
REMARK   15  A    between atoms: C_16  and  C_17
REMARK   16  A    between atoms: C_27  and  C_29
REMARK   17  A    between atoms: C_29  and  O_30
REMARK   18  A    between atoms: O_30  and  C_31
REMARK                            x       y       z     vdW  Elec       q    Type
REMARK                         _______ _______ _______ _____ _____    ______ ____
ROOT
ATOM      1  C   UNL     1      -3.510  -2.123  -1.608  0.00  0.00    +0.200 C 
ATOM      2  O   UNL     1      -2.809  -1.550  -2.415  0.00  0.00    -0.278 OA
ATOM      3  N   UNL     1      -4.805  -2.366  -1.893  0.00  0.00    -0.292 N 
ATOM      4  C   UNL     1      -5.667  -3.055  -0.921  0.00  0.00    +0.113 C 
ATOM      5  C   UNL     1      -6.762  -2.077  -0.468  0.00  0.00    +0.061 C 
ATOM      6  C   UNL     1      -7.279  -1.350  -1.667  0.00  0.00    -0.004 A 
ATOM      7  C   UNL     1      -6.706  -1.251  -2.897  0.00  0.00    -0.014 A 
ATOM      8  C   UNL     1      -7.394  -0.500  -3.849  0.00  0.00    +0.013 A 
ATOM      9  C   UNL     1      -8.574   0.080  -3.530  0.00  0.00    +0.046 A 
ATOM     10  S   UNL     1      -8.778  -0.415  -1.826  0.00  0.00    -0.101 S 
ATOM     11  C   UNL     1      -5.378  -1.941  -3.178  0.00  0.00    +0.144 C 
ENDROOT
BRANCH   1  12
ATOM     12  C   UNL     1      -2.934  -2.564  -0.287  0.00  0.00    +0.019 C 
BRANCH  12  13
ATOM     13  N   UNL     1      -1.571  -2.037  -0.147  0.00  0.00    +0.387 N 
ATOM     14  H   UNL     1      -1.122  -2.021  -1.051  0.00  0.00    -0.081 HD
BRANCH  13  15
ATOM     15  C   UNL     1      -1.627  -0.673   0.396  0.00  0.00    -0.075 C 
BRANCH  15  17
ATOM     16  C   UNL     1      -2.465   1.644  -0.018  0.00  0.00    +0.005 C 
ATOM     17  C   UNL     1      -2.250   0.264  -0.641  0.00  0.00    -0.034 C 
ATOM     18  C   UNL     1      -1.313   0.388  -1.845  0.00  0.00    +0.005 C 
ENDBRANCH  15  17
ENDBRANCH  13  15
BRANCH  13  19
ATOM     19  C   UNL     1      -0.804  -2.896   0.765  0.00  0.00    -0.044 C 
BRANCH  19  20
ATOM     20  C   UNL     1       0.647  -2.415   0.820  0.00  0.00    +0.124 C 
BRANCH  20  21
ATOM     21  O   UNL     1       1.210  -2.448  -0.493  0.00  0.00    -0.391 OA
ATOM     22  H   UNL     1       1.216  -3.327  -0.896  0.00  0.00    +0.210 HD
ENDBRANCH  20  21
BRANCH  20  23
ATOM     23  C   UNL     1       1.453  -3.330   1.744  0.00  0.00    +0.189 C 
BRANCH  23  24
ATOM     24  O   UNL     1       2.778  -2.815   1.887  0.00  0.00    -0.372 OA
BRANCH  24  25
ATOM     25  C   UNL     1       3.618  -3.600   2.736  0.00  0.00    +0.061 C 
ATOM     26  C   UNL     1       3.743  -5.013   2.163  0.00  0.00    +0.041 C 
ATOM     27  C   UNL     1       5.005  -2.958   2.816  0.00  0.00    +0.041 C 
ATOM     28  C   UNL     1       3.007  -3.670   4.136  0.00  0.00    +0.041 C 
ENDBRANCH  24  25
ENDBRANCH  23  24
ENDBRANCH  20  23
ENDBRANCH  19  20
ENDBRANCH  13  19
ENDBRANCH  12  13
ENDBRANCH   1  12
BRANCH  11  29
ATOM     29  C   UNL     1      -5.611  -3.161  -4.071  0.00  0.00    +0.256 C 
BRANCH  29  30
ATOM     30  O   UNL     1      -6.604  -4.001  -3.478  0.00  0.00    -0.490 OA
BRANCH  30  31
ATOM     31  C   UNL     1      -6.932  -5.137  -4.150  0.00  0.00    +0.121 A 
ATOM     32  C   UNL     1      -6.306  -5.439  -5.350  0.00  0.00    +0.048 A 
ATOM     33  C   UNL     1      -6.640  -6.593  -6.031  0.00  0.00    +0.042 A 
ATOM     34  C   UNL     1      -7.599  -7.449  -5.516  0.00  0.00    +0.124 A 
ATOM     35  C   UNL     1      -8.224  -7.149  -4.318  0.00  0.00    +0.042 A 
ATOM     36  C   UNL     1      -7.888  -5.998  -3.632  0.00  0.00    +0.048 A 
ATOM     37  F   UNL     1      -7.925  -8.578  -6.184  0.00  0.00    -0.205 F 
ENDBRANCH  30  31
ENDBRANCH  29  30
ENDBRANCH  11  29
TORSDOF 13
