REMARK  Name = ZINC09034116
REMARK  5 active torsions:
REMARK  status: ('A' for Active; 'I' for Inactive)
REMARK    1  A    between atoms: C_1  and  S_2
REMARK    2  A    between atoms: S_2  and  C_3
REMARK    3  A    between atoms: C_3  and  C_4
REMARK    4  A    between atoms: C_4  and  C_5
REMARK    5  A    between atoms: N_13  and  C_16
REMARK                            x       y       z     vdW  Elec       q    Type
REMARK                         _______ _______ _______ _____ _____    ______ ____
ROOT
ATOM      1  C   UNL     1      -4.153  -1.265   1.482  0.00  0.00    -0.057 C 
ATOM      2  C   UNL     1      -3.482  -1.183   0.094  0.00  0.00    +0.073 C 
ATOM      3  C   UNL     1      -2.691  -2.513  -0.047  0.00  0.00    +0.088 C 
ATOM      4  C   UNL     1      -1.250  -2.056  -0.095  0.00  0.00    +0.229 C 
ATOM      5  O   UNL     1      -0.287  -2.784  -0.210  0.00  0.00    -0.275 OA
ATOM      6  N   UNL     1      -1.202  -0.723   0.010  0.00  0.00    -0.210 N 
ATOM      7  C   UNL     1      -2.397  -0.132   0.129  0.00  0.00    +0.228 C 
ATOM      8  O   UNL     1      -2.580   1.061   0.244  0.00  0.00    -0.275 OA
ATOM      9  C   UNL     1      -2.951  -3.257   1.269  0.00  0.00    +0.050 C 
ATOM     10  C   UNL     1      -1.746  -4.038   1.710  0.00  0.00    -0.028 A 
ATOM     11  C   UNL     1      -0.449  -3.688   2.015  0.00  0.00    +0.004 A 
ATOM     12  C   UNL     1       0.457  -4.659   2.402  0.00  0.00    +0.000 A 
ATOM     13  C   UNL     1       0.059  -5.981   2.480  0.00  0.00    +0.002 A 
ATOM     14  C   UNL     1      -1.238  -6.336   2.173  0.00  0.00    +0.023 A 
ATOM     15  C   UNL     1      -2.158  -5.365   1.784  0.00  0.00    +0.036 A 
ATOM     16  N   UNL     1      -3.504  -5.473   1.429  0.00  0.00    -0.286 N 
ATOM     17  C   UNL     1      -4.044  -4.280   1.113  0.00  0.00    +0.211 C 
ATOM     18  O   UNL     1      -5.188  -4.070   0.770  0.00  0.00    -0.277 OA
ATOM     19  H   UNL     1      -3.994  -6.310   1.413  0.00  0.00    +0.155 HD
ATOM     20  N   UNL     1      -3.327  -2.224   2.218  0.00  0.00    +0.394 N 
ATOM     21  H   UNL     1      -3.863  -2.633   2.993  0.00  0.00    -0.083 HD
ATOM     22  H   UNL     1      -2.489  -1.761   2.588  0.00  0.00    -0.083 HD
ENDROOT
BRANCH   6  23
ATOM     23  C   UNL     1       0.002  -0.004   0.002  0.00  0.00    +0.044 A 
ATOM     24  C   UNL     1       0.775   0.045  -1.150  0.00  0.00    +0.025 A 
ATOM     25  C   UNL     1       1.960   0.753  -1.156  0.00  0.00    +0.022 A 
ATOM     26  C   UNL     1       2.377   1.415  -0.014  0.00  0.00    +0.041 A 
ATOM     27  C   UNL     1       1.609   1.368   1.135  0.00  0.00    +0.022 A 
ATOM     28  C   UNL     1       0.423   0.660   1.146  0.00  0.00    +0.025 A 
ATOM     29 CL   UNL     1       3.867   2.306  -0.025  0.00  0.00    -0.084 Cl
ENDBRANCH   6  23
BRANCH   1  30
ATOM     30  C   UNL     1      -4.149   0.108   2.156  0.00  0.00    -0.004 C 
BRANCH  30  31
ATOM     31  C   UNL     1      -4.860   0.014   3.508  0.00  0.00    +0.067 C 
BRANCH  31  33
ATOM     32  C   UNL     1      -5.723   1.363   5.877  0.00  0.00    +0.084 C 
ATOM     33  S   UNL     1      -4.856   1.642   4.308  0.00  0.00    -0.164 S 
ENDBRANCH  31  33
ENDBRANCH  30  31
ENDBRANCH   1  30
TORSDOF 4
