REMARK  Name = ZINC13506651
REMARK  11 active torsions:
REMARK  status: ('A' for Active; 'I' for Inactive)
REMARK    1  A    between atoms: C_1  and  C_2
REMARK    2  A    between atoms: C_6  and  N_9
REMARK    3  A    between atoms: C_7  and  C_8
REMARK    4  A    between atoms: N_9  and  C_10
REMARK    5  A    between atoms: C_10  and  C_12
REMARK    6  A    between atoms: C_10  and  C_18
REMARK    7  A    between atoms: C_15  and  C_17
REMARK    8  A    between atoms: N_20  and  C_21
REMARK    9  A    between atoms: C_26  and  C_28
REMARK   10  A    between atoms: C_28  and  N_29
REMARK   11  A    between atoms: C_30  and  C_32
REMARK                            x       y       z     vdW  Elec       q    Type
REMARK                         _______ _______ _______ _____ _____    ______ ____
ROOT
ATOM      1  N   UNL     1       1.393   1.402   2.465  0.00  0.00    -0.251 N 
ATOM      2  C   UNL     1       2.318   2.378   2.561  0.00  0.00    +0.238 C 
ATOM      3  O   UNL     1       3.463   2.102   2.853  0.00  0.00    -0.273 OA
ENDROOT
BRANCH   1   9
ATOM      4  C   UNL     1      -2.026   2.172  -0.982  0.00  0.00    +0.044 C 
ATOM      5  C   UNL     1      -1.612   2.100   0.465  0.00  0.00    -0.046 A 
ATOM      6  C   UNL     1      -2.538   2.349   1.462  0.00  0.00    +0.004 A 
ATOM      7  C   UNL     1      -2.160   2.290   2.791  0.00  0.00    +0.002 A 
ATOM      8  C   UNL     1      -0.858   1.976   3.127  0.00  0.00    +0.024 A 
ATOM      9  C   UNL     1       0.073   1.721   2.128  0.00  0.00    +0.041 A 
ATOM     10  C   UNL     1      -0.309   1.781   0.794  0.00  0.00    -0.026 A 
ATOM     11  C   UNL     1       0.698   1.505  -0.292  0.00  0.00    +0.046 C 
ENDBRANCH   1   9
BRANCH   1  12
ATOM     12  C   UNL     1       1.770   0.009   2.714  0.00  0.00    +0.233 C 
BRANCH  12  13
ATOM     13  C   UNL     1       1.341  -0.844   1.548  0.00  0.00    +0.135 A 
ATOM     14  C   UNL     1       2.102  -1.756   0.918  0.00  0.00    +0.047 A 
ATOM     15  C   UNL     1       1.305  -2.318  -0.106  0.00  0.00    +0.045 A 
ATOM     16  C   UNL     1       0.107  -1.709  -0.046  0.00  0.00    +0.102 A 
ATOM     17  O   UNL     1       0.134  -0.817   0.958  0.00  0.00    -0.462 OA
ATOM     18  C   UNL     1      -1.066  -1.981  -0.952  0.00  0.00    +0.086 C 
ENDBRANCH  12  13
BRANCH  12  19
ATOM     19  C   UNL     1       1.092  -0.478   3.969  0.00  0.00    +0.242 C 
ATOM     20  O   UNL     1       0.366   0.265   4.594  0.00  0.00    -0.273 OA
ATOM     21  N   UNL     1       1.293  -1.740   4.397  0.00  0.00    -0.311 N 
ATOM     22  H   UNL     1       1.874  -2.335   3.897  0.00  0.00    +0.149 HD
BRANCH  21  23
ATOM     23  C   UNL     1       0.634  -2.214   5.617  0.00  0.00    +0.073 C 
ATOM     24  C   UNL     1       1.506  -1.889   6.848  0.00  0.00    +0.022 C 
ATOM     25  C   UNL     1       1.318  -3.113   7.779  0.00  0.00    +0.002 C 
ATOM     26  C   UNL     1       1.271  -4.297   6.782  0.00  0.00    +0.002 C 
ATOM     27  C   UNL     1       0.485  -3.745   5.575  0.00  0.00    +0.022 C 
ENDBRANCH  21  23
ENDBRANCH  12  19
ENDBRANCH   1  12
BRANCH   2  28
ATOM     28  C   UNL     1       1.931   3.812   2.305  0.00  0.00    +0.201 C 
BRANCH  28  29
ATOM     29  N   UNL     1       3.105   4.672   2.471  0.00  0.00    -0.300 N 
ATOM     30  C   UNL     1       2.996   6.003   2.290  0.00  0.00    +0.280 C 
ATOM     31  O   UNL     1       1.922   6.490   1.989  0.00  0.00    -0.267 OA
ATOM     32  H   UNL     1       3.961   4.283   2.711  0.00  0.00    +0.150 HD
BRANCH  30  33
ATOM     33  C   UNL     1       4.171   6.864   2.456  0.00  0.00    +0.189 A 
ATOM     34  C   UNL     1       4.200   8.221   2.303  0.00  0.00    +0.054 A 
ATOM     35  C   UNL     1       5.520   8.627   2.555  0.00  0.00    +0.042 A 
ATOM     36  C   UNL     1       6.230   7.515   2.847  0.00  0.00    +0.196 A 
ATOM     37  O   UNL     1       5.413   6.455   2.792  0.00  0.00    -0.458 OA
ENDBRANCH  30  33
ENDBRANCH  28  29
ENDBRANCH   2  28
TORSDOF 8
