REMARK  Name = ZINC20355178
REMARK  14 active torsions:
REMARK  status: ('A' for Active; 'I' for Inactive)
REMARK    1  A    between atoms: C_1  and  C_2
REMARK    2  A    between atoms: C_2  and  C_3
REMARK    3  A    between atoms: C_3  and  C_4
REMARK    4  A    between atoms: C_4  and  N_5
REMARK    5  A    between atoms: N_5  and  C_6
REMARK    6  A    between atoms: N_5  and  C_7
REMARK    7  A    between atoms: C_7  and  C_8
REMARK    8  A    between atoms: C_8  and  C_9
REMARK    9  A    between atoms: C_9  and  N_10
REMARK   10  A    between atoms: C_11  and  C_13
REMARK   11  A    between atoms: C_16  and  C_19
REMARK   12  A    between atoms: N_23  and  C_31
REMARK   13  A    between atoms: C_31  and  C_32
REMARK   14  A    between atoms: C_36  and  C_38
REMARK                            x       y       z     vdW  Elec       q    Type
REMARK                         _______ _______ _______ _____ _____    ______ ____
ROOT
ATOM      1  C   UNL     1      -0.146   0.427   0.743  0.00  0.00    +0.037 A 
ATOM      2  C   UNL     1       0.014   1.814   0.811  0.00  0.00    +0.013 A 
ATOM      3  C   UNL     1       1.235   2.375   0.565  0.00  0.00    +0.009 A 
ATOM      4  C   UNL     1       2.327   1.559   0.244  0.00  0.00    -0.021 A 
ATOM      5  C   UNL     1       2.166   0.170   0.176  0.00  0.00    +0.009 A 
ATOM      6  C   UNL     1       0.944  -0.388   0.422  0.00  0.00    +0.013 A 
ENDROOT
BRANCH   4   7
ATOM      7  C   UNL     1       3.641   2.162  -0.021  0.00  0.00    +0.059 C 
ATOM      8  C   UNL     1       3.725   3.335  -0.688  0.00  0.00    +0.191 C 
ATOM      9  C   UNL     1       2.540   3.945  -1.333  0.00  0.00    +0.287 C 
ATOM     10  O   UNL     1       1.598   3.265  -1.693  0.00  0.00    -0.266 OA
ATOM     11  N   UNL     1       2.546   5.291  -1.501  0.00  0.00    -0.257 N 
ATOM     12  C   UNL     1       3.656   6.023  -1.059  0.00  0.00    +0.079 A 
ATOM     13  C   UNL     1       3.584   7.405  -0.966  0.00  0.00    +0.027 A 
ATOM     14  C   UNL     1       4.679   8.125  -0.527  0.00  0.00    +0.002 A 
ATOM     15  C   UNL     1       5.848   7.472  -0.179  0.00  0.00    +0.004 A 
ATOM     16  C   UNL     1       5.928   6.094  -0.270  0.00  0.00    +0.048 A 
ATOM     17  C   UNL     1       4.835   5.366  -0.709  0.00  0.00    +0.150 A 
ATOM     18  O   UNL     1       4.909   4.009  -0.801  0.00  0.00    -0.449 OA
BRANCH  11  19
ATOM     19  C   UNL     1       1.414   5.967  -2.140  0.00  0.00    +0.149 C 
BRANCH  19  20
ATOM     20  C   UNL     1       1.642   6.031  -3.628  0.00  0.00    -0.029 A 
ATOM     21  C   UNL     1       1.192   5.008  -4.441  0.00  0.00    +0.005 A 
ATOM     22  C   UNL     1       1.401   5.067  -5.806  0.00  0.00    +0.001 A 
ATOM     23  C   UNL     1       2.059   6.150  -6.358  0.00  0.00    +0.003 A 
ATOM     24  C   UNL     1       2.509   7.173  -5.546  0.00  0.00    -0.050 A 
ATOM     25  C   UNL     1       2.296   7.116  -4.181  0.00  0.00    +0.008 A 
ATOM     26  C   UNL     1       3.226   8.354  -6.148  0.00  0.00    +0.044 C 
ENDBRANCH  19  20
ENDBRANCH  11  19
ENDBRANCH   4   7
BRANCH   1  28
ATOM     27  N   UNL     1      -1.621  -1.515   0.944  0.00  0.00    -0.311 N 
ATOM     28  C   UNL     1      -1.466  -0.178   1.010  0.00  0.00    +0.244 C 
ATOM     29  O   UNL     1      -2.414   0.531   1.289  0.00  0.00    -0.270 OA
ATOM     30  H   UNL     1      -0.763  -2.156   0.691  0.00  0.00    +0.149 HD
BRANCH  27  31
ATOM     31  C   UNL     1      -2.931  -2.115   1.209  0.00  0.00    +0.102 C 
BRANCH  31  32
ATOM     32  C   UNL     1      -2.833  -3.635   1.069  0.00  0.00    +0.000 C 
BRANCH  32  33
ATOM     33  C   UNL     1      -4.201  -4.262   1.345  0.00  0.00    -0.078 C 
BRANCH  33  34
ATOM     34  N   UNL     1      -4.107  -5.722   1.211  0.00  0.00    +0.378 N 
ATOM     35  C   UNL     1      -3.245  -6.292   2.254  0.00  0.00    -0.096 C 
ATOM     36  H   UNL     1      -3.650  -5.943   0.235  0.00  0.00    -0.082 HD
BRANCH  34  37
ATOM     37  C   UNL     1      -5.440  -6.339   1.234  0.00  0.00    -0.079 C 
BRANCH  37  38
ATOM     38  C   UNL     1      -5.325  -7.815   0.846  0.00  0.00    -0.019 C 
BRANCH  38  40
ATOM     39  C   UNL     1      -6.599  -9.933   0.481  0.00  0.00    +0.004 C 
ATOM     40  C   UNL     1      -6.713  -8.458   0.870  0.00  0.00    -0.005 C 
ENDBRANCH  38  40
ENDBRANCH  37  38
ENDBRANCH  34  37
ENDBRANCH  33  34
ENDBRANCH  32  33
ENDBRANCH  31  32
ENDBRANCH  27  31
ENDBRANCH   1  28
TORSDOF 11
