REMARK  Name = ZINC13237874
REMARK  10 active torsions:
REMARK  status: ('A' for Active; 'I' for Inactive)
REMARK    1  A    between atoms: C_1  and  C_2
REMARK    2  A    between atoms: C_5  and  C_27
REMARK    3  A    between atoms: C_7  and  N_8
REMARK    4  A    between atoms: C_9  and  C_11
REMARK    5  A    between atoms: C_11  and  S_12
REMARK    6  A    between atoms: S_12  and  C_13
REMARK    7  A    between atoms: C_15  and  C_24
REMARK    8  A    between atoms: N_16  and  C_18
REMARK    9  A    between atoms: C_24  and  C_25
REMARK   10  A    between atoms: C_24  and  C_26
REMARK                            x       y       z     vdW  Elec       q    Type
REMARK                         _______ _______ _______ _____ _____    ______ ____
ROOT
ATOM      1  C   UNL     1       3.663   5.979  -0.218  0.00  0.00    +0.173 C 
ENDROOT
BRANCH   1   3
ATOM      2  N   UNL     1       2.373   3.879  -0.001  0.00  0.00    -0.285 N 
ATOM      3  C   UNL     1       2.364   5.224  -0.096  0.00  0.00    +0.227 C 
ATOM      4  O   UNL     1       1.311   5.826  -0.083  0.00  0.00    -0.275 OA
ATOM      5  H   UNL     1       3.215   3.404   0.070  0.00  0.00    +0.155 HD
BRANCH   2  12
ATOM      6  C   UNL     1       2.323   1.320   1.234  0.00  0.00    +0.045 C 
ATOM      7  C   UNL     1       1.098   1.915   0.589  0.00  0.00    -0.029 A 
ATOM      8  C   UNL     1      -0.091   1.209   0.589  0.00  0.00    +0.006 A 
ATOM      9  C   UNL     1      -1.216   1.744  -0.004  0.00  0.00    +0.015 A 
ATOM     10  C   UNL     1      -1.159   3.007  -0.598  0.00  0.00    +0.065 A 
ATOM     11  C   UNL     1       0.041   3.719  -0.598  0.00  0.00    +0.038 A 
ATOM     12  C   UNL     1       1.167   3.170  -0.004  0.00  0.00    +0.037 A 
BRANCH  10  13
ATOM     13  C   UNL     1      -2.363   3.585  -1.229  0.00  0.00    +0.387 C 
ATOM     14  O   UNL     1      -2.310   4.682  -1.748  0.00  0.00    -0.241 OA
ATOM     15  O   UNL     1      -3.521   2.896  -1.228  0.00  0.00    -0.241 OA
ENDBRANCH  10  13
ENDBRANCH   2  12
ENDBRANCH   1   3
BRANCH   1  16
ATOM     16  S   UNL     1       3.320   7.757  -0.326  0.00  0.00    -0.075 S 
BRANCH  16  17
ATOM     17  C   UNL     1       4.916   8.491  -0.463  0.00  0.00    +0.210 A 
ATOM     18  N   UNL     1       5.163   9.800  -0.574  0.00  0.00    -0.205 NA
ATOM     19  C   UNL     1       6.454  10.002  -0.651  0.00  0.00    +0.137 A 
ATOM     20  N   UNL     1       7.071   8.806  -0.599  0.00  0.00    -0.216 N 
ATOM     21  N   UNL     1       6.057   7.842  -0.477  0.00  0.00    -0.138 NA
BRANCH  20  22
ATOM     22  C   UNL     1       8.450   8.570  -0.657  0.00  0.00    +0.067 A 
ATOM     23  C   UNL     1       9.260   9.369  -1.453  0.00  0.00    +0.028 A 
ATOM     24  C   UNL     1      10.621   9.138  -1.503  0.00  0.00    +0.002 A 
ATOM     25  C   UNL     1      11.175   8.105  -0.770  0.00  0.00    +0.000 A 
ATOM     26  C   UNL     1      10.371   7.304   0.019  0.00  0.00    +0.002 A 
ATOM     27  C   UNL     1       9.010   7.534   0.078  0.00  0.00    +0.028 A 
ENDBRANCH  20  22
BRANCH  19  28
ATOM     28  C   UNL     1       7.133  11.342  -0.781  0.00  0.00    +0.051 C 
ATOM     29  C   UNL     1       6.654  12.034  -2.059  0.00  0.00    +0.015 C 
ATOM     30  C   UNL     1       6.786  12.210   0.430  0.00  0.00    +0.015 C 
ENDBRANCH  19  28
ENDBRANCH  16  17
ENDBRANCH   1  16
TORSDOF 7
