REMARK  Name = ZINC39727001
REMARK  7 active torsions:
REMARK  status: ('A' for Active; 'I' for Inactive)
REMARK    1  A    between atoms: C_4  and  N_7
REMARK    2  A    between atoms: C_12  and  N_16
REMARK    3  A    between atoms: N_19  and  C_22
REMARK    4  A    between atoms: C_22  and  C_23
REMARK    5  A    between atoms: N_25  and  C_26
REMARK    6  A    between atoms: C_26  and  C_27
REMARK    7  A    between atoms: C_27  and  C_28
REMARK                            x       y       z     vdW  Elec       q    Type
REMARK                         _______ _______ _______ _____ _____    ______ ____
ROOT
ATOM      1  N   UNL     1       5.519  -1.815  -2.286  0.00  0.00    -0.296 NA
ATOM      2  C   UNL     1       5.293  -3.174  -2.798  0.00  0.00    +0.066 C 
ATOM      3  C   UNL     1       4.818  -3.097  -4.251  0.00  0.00    -0.063 C 
ATOM      4  N   UNL     1       5.833  -2.412  -5.062  0.00  0.00    +0.387 N 
ATOM      5  C   UNL     1       6.030  -1.048  -4.554  0.00  0.00    -0.063 C 
ATOM      6  C   UNL     1       6.515  -1.109  -3.104  0.00  0.00    +0.066 C 
ATOM      7  H   UNL     1       6.703  -2.919  -5.010  0.00  0.00    -0.081 HD
ENDROOT
BRANCH   1  12
ATOM      8  N   UNL     1       8.025  -0.029  -1.073  0.00  0.00    -0.160 N 
ATOM      9  C   UNL     1       6.804   0.466  -0.788  0.00  0.00    +0.259 C 
ATOM     10  O   UNL     1       6.569   1.644  -0.955  0.00  0.00    -0.272 OA
ATOM     11  C   UNL     1       5.733  -0.456  -0.261  0.00  0.00    +0.191 C 
ATOM     12  C   UNL     1       5.922  -1.845  -0.874  0.00  0.00    +0.126 C 
ATOM     13  C   UNL     1       7.369  -2.248  -0.775  0.00  0.00    +0.124 C 
ATOM     14  N   UNL     1       8.302  -1.386  -0.878  0.00  0.00    -0.183 NA
ATOM     15 CL   UNL     1       4.109   0.187  -0.709  0.00  0.00    -0.110 Cl
BRANCH   8  19
ATOM     16  C   UNL     1      10.988   2.496  -2.559  0.00  0.00    +0.000 A 
ATOM     17  C   UNL     1       9.722   2.516  -3.115  0.00  0.00    +0.002 A 
ATOM     18  C   UNL     1       8.738   1.681  -2.625  0.00  0.00    +0.025 A 
ATOM     19  C   UNL     1       9.021   0.819  -1.573  0.00  0.00    +0.060 A 
ATOM     20  C   UNL     1      10.293   0.801  -1.017  0.00  0.00    +0.025 A 
ATOM     21  C   UNL     1      11.273   1.639  -1.512  0.00  0.00    +0.002 A 
ENDBRANCH   8  19
ENDBRANCH   1  12
BRANCH   4  22
ATOM     22  C   UNL     1       5.384  -2.353  -6.460  0.00  0.00    +0.019 C 
BRANCH  22  23
ATOM     23  C   UNL     1       6.476  -1.762  -7.314  0.00  0.00    +0.196 C 
ATOM     24  O   UNL     1       7.525  -1.423  -6.807  0.00  0.00    -0.278 OA
ATOM     25  N   UNL     1       6.288  -1.610  -8.639  0.00  0.00    -0.317 N 
ATOM     26  H   UNL     1       5.449  -1.882  -9.044  0.00  0.00    +0.149 HD
BRANCH  25  27
ATOM     27  C   UNL     1       7.349  -1.036  -9.469  0.00  0.00    +0.109 C 
BRANCH  27  28
ATOM     28  C   UNL     1       6.883  -0.975 -10.925  0.00  0.00    +0.056 C 
BRANCH  28  29
ATOM     29  C   UNL     1       7.975  -0.383 -11.778  0.00  0.00    -0.021 A 
ATOM     30  C   UNL     1       9.102  -1.105 -12.374  0.00  0.00    +0.003 A 
ATOM     31  C   UNL     1       9.516  -2.438 -12.363  0.00  0.00    +0.010 A 
ATOM     32  C   UNL     1      10.647  -2.803 -13.038  0.00  0.00    +0.001 A 
ATOM     33  C   UNL     1      11.388  -1.858 -13.734  0.00  0.00    +0.002 A 
ATOM     34  C   UNL     1      10.998  -0.537 -13.757  0.00  0.00    +0.026 A 
ATOM     35  C   UNL     1       9.850  -0.143 -13.078  0.00  0.00    +0.047 A 
ATOM     36  N   UNL     1       9.214   1.067 -12.914  0.00  0.00    -0.360 N 
ATOM     37  C   UNL     1       8.096   0.903 -12.142  0.00  0.00    +0.087 A 
ATOM     38  H   UNL     1       9.511   1.909 -13.293  0.00  0.00    +0.165 HD
ENDBRANCH  28  29
ENDBRANCH  27  28
ENDBRANCH  25  27
ENDBRANCH  22  23
ENDBRANCH   4  22
TORSDOF 7
