REMARK  Name = ZINC41514509
REMARK  8 active torsions:
REMARK  status: ('A' for Active; 'I' for Inactive)
REMARK    1  A    between atoms: C_1  and  C_2
REMARK    2  A    between atoms: C_4  and  O_31
REMARK    3  A    between atoms: C_5  and  C_21
REMARK    4  A    between atoms: C_11  and  C_12
REMARK    5  A    between atoms: C_21  and  N_22
REMARK    6  A    between atoms: N_22  and  C_23
REMARK    7  A    between atoms: N_22  and  C_24
REMARK    8  A    between atoms: C_24  and  C_25
REMARK                            x       y       z     vdW  Elec       q    Type
REMARK                         _______ _______ _______ _____ _____    ______ ____
ROOT
ATOM      1  C   UNL     1      -0.716   1.601   0.143  0.00  0.00    +0.045 C 
ATOM      2  C   UNL     1      -0.779   0.095   0.115  0.00  0.00    -0.033 A 
ATOM      3  C   UNL     1      -1.031  -0.557  -1.059  0.00  0.00    +0.050 A 
ATOM      4  C   UNL     1      -1.090  -1.948  -1.088  0.00  0.00    +0.122 A 
ATOM      5  C   UNL     1      -0.894  -2.686   0.069  0.00  0.00    +0.020 A 
ATOM      6  C   UNL     1      -0.636  -2.038   1.271  0.00  0.00    +0.145 A 
ATOM      7  C   UNL     1      -0.574  -0.635   1.286  0.00  0.00    +0.071 A 
ATOM      8  C   UNL     1      -0.283  -0.247   2.678  0.00  0.00    +0.232 C 
ATOM      9  O   UNL     1      -0.152   0.878   3.127  0.00  0.00    -0.283 OA
ATOM     10  C   UNL     1      -0.188  -1.523   3.404  0.00  0.00    +0.176 C 
ATOM     11  C   UNL     1       0.069  -1.675   4.728  0.00  0.00    +0.059 C 
ATOM     12  O   UNL     1      -0.414  -2.518   2.514  0.00  0.00    -0.451 OA
ENDROOT
BRANCH  11  13
ATOM     13  C   UNL     1      -0.019  -3.005   5.345  0.00  0.00    -0.003 A 
ATOM     14  C   UNL     1      -0.011  -4.154   4.545  0.00  0.00    +0.011 A 
ATOM     15  C   UNL     1      -0.093  -5.398   5.130  0.00  0.00    +0.020 A 
ATOM     16  C   UNL     1      -0.183  -5.515   6.509  0.00  0.00    +0.042 A 
ATOM     17  C   UNL     1      -0.192  -4.384   7.308  0.00  0.00    +0.040 A 
ATOM     18  C   UNL     1      -0.104  -3.131   6.737  0.00  0.00    +0.050 A 
ATOM     19 CL   UNL     1      -0.107  -1.715   7.741  0.00  0.00    -0.083 Cl
ATOM     20 CL   UNL     1      -0.286  -7.088   7.237  0.00  0.00    -0.083 Cl
ENDBRANCH  11  13
BRANCH   4  21
ATOM     21  O   UNL     1      -1.341  -2.587  -2.258  0.00  0.00    -0.506 OA
ATOM     22  H   UNL     1      -0.548  -2.805  -2.766  0.00  0.00    +0.292 HD
ENDBRANCH   4  21
BRANCH   5  23
ATOM     23  C   UNL     1      -0.961  -4.190   0.023  0.00  0.00    -0.035 C 
BRANCH  23  24
ATOM     24  N   UNL     1       0.376  -4.732  -0.255  0.00  0.00    +0.383 N 
ATOM     25  C   UNL     1       1.274  -4.417   0.863  0.00  0.00    -0.095 C 
ATOM     26  H   UNL     1       0.736  -4.319  -1.103  0.00  0.00    -0.081 HD
BRANCH  24  27
ATOM     27  C   UNL     1       0.289  -6.189  -0.418  0.00  0.00    -0.043 C 
BRANCH  27  28
ATOM     28  C   UNL     1       1.636  -6.730  -0.825  0.00  0.00    -0.064 A 
ATOM     29  C   UNL     1       1.967  -6.826  -2.163  0.00  0.00    +0.002 A 
ATOM     30  C   UNL     1       3.203  -7.322  -2.536  0.00  0.00    +0.000 A 
ATOM     31  C   UNL     1       4.107  -7.721  -1.570  0.00  0.00    +0.000 A 
ATOM     32  C   UNL     1       3.777  -7.624  -0.231  0.00  0.00    +0.000 A 
ATOM     33  C   UNL     1       2.543  -7.124   0.142  0.00  0.00    +0.002 A 
ENDBRANCH  27  28
ENDBRANCH  24  27
ENDBRANCH  23  24
ENDBRANCH   5  23
TORSDOF 6
