REMARK  Name = ZINC33327219
REMARK  6 active torsions:
REMARK  status: ('A' for Active; 'I' for Inactive)
REMARK    1  A    between atoms: C_1  and  C_2
REMARK    2  A    between atoms: C_5  and  O_9
REMARK    3  A    between atoms: C_7  and  C_8
REMARK    4  A    between atoms: O_9  and  C_10
REMARK    5  A    between atoms: C_10  and  C_12
REMARK    6  A    between atoms: C_10  and  C_13
REMARK                            x       y       z     vdW  Elec       q    Type
REMARK                         _______ _______ _______ _____ _____    ______ ____
ROOT
ATOM      1  C   UNL     1      -0.315   3.522   0.160  0.00  0.00    +0.149 A 
ATOM      2  N   UNL     1       1.026   3.535  -0.070  0.00  0.00    -0.339 N 
ATOM      3  H   UNL     1       1.550   4.491  -0.216  0.00  0.00    +0.167 HD
ATOM      4  C   UNL     1       1.456   2.222  -0.067  0.00  0.00    +0.068 A 
ATOM      5  C   UNL     1       2.689   1.610  -0.243  0.00  0.00    +0.049 A 
ATOM      6  C   UNL     1       2.789   0.236  -0.181  0.00  0.00    +0.061 A 
ATOM      7  C   UNL     1       1.661  -0.541   0.058  0.00  0.00    +0.061 A 
ATOM      8  C   UNL     1       0.431   0.050   0.235  0.00  0.00    +0.051 A 
ATOM      9  C   UNL     1       0.314   1.441   0.174  0.00  0.00    +0.091 A 
ATOM     10  N   UNL     1      -0.733   2.298   0.298  0.00  0.00    -0.229 NA
ATOM     11 CL   UNL     1       1.806  -2.269   0.134  0.00  0.00    -0.082 Cl
ATOM     12 CL   UNL     1       4.332  -0.528  -0.402  0.00  0.00    -0.082 Cl
ENDROOT
BRANCH   1  13
ATOM     13  C   UNL     1      -1.189   4.747   0.238  0.00  0.00    +0.236 C 
ATOM     14  C   UNL     1      -2.343   4.615  -0.757  0.00  0.00    +0.060 C 
BRANCH  13  15
ATOM     15  O   UNL     1      -0.415   5.906  -0.081  0.00  0.00    -0.481 OA
BRANCH  15  20
ATOM     16  C   UNL     1      -2.202  10.827   1.996  0.00  0.00    +0.044 C 
ATOM     17  C   UNL     1      -1.724   9.510   1.440  0.00  0.00    -0.047 A 
ATOM     18  C   UNL     1      -2.486   8.370   1.615  0.00  0.00    +0.007 A 
ATOM     19  C   UNL     1      -2.050   7.162   1.107  0.00  0.00    +0.046 A 
ATOM     20  C   UNL     1      -0.846   7.093   0.420  0.00  0.00    +0.122 A 
ATOM     21  C   UNL     1      -0.081   8.237   0.251  0.00  0.00    +0.049 A 
ATOM     22  C   UNL     1      -0.524   9.444   0.757  0.00  0.00    -0.044 A 
ATOM     23  C   UNL     1       0.305  10.689   0.569  0.00  0.00    +0.044 C 
ENDBRANCH  15  20
ENDBRANCH  13  15
ENDBRANCH   1  13
TORSDOF 3
