REMARK  Name = ZINC32908095
REMARK  8 active torsions:
REMARK  status: ('A' for Active; 'I' for Inactive)
REMARK    1  A    between atoms: C_1  and  C_2
REMARK    2  A    between atoms: C_4  and  C_16
REMARK    3  A    between atoms: N_18  and  C_19
REMARK    4  A    between atoms: C_19  and  C_20
REMARK    5  A    between atoms: C_20  and  C_22
REMARK    6  A    between atoms: C_20  and  N_30
REMARK    7  A    between atoms: C_25  and  O_28
REMARK    8  A    between atoms: O_28  and  C_29
REMARK                            x       y       z     vdW  Elec       q    Type
REMARK                         _______ _______ _______ _____ _____    ______ ____
ROOT
ATOM      1  C   UNL     1      -5.253  -0.016  -2.291  0.00  0.00    +0.246 C 
ATOM      2  O   UNL     1      -4.915   0.424  -3.373  0.00  0.00    -0.270 OA
ATOM      3  N   UNL     1      -4.467   0.172  -1.212  0.00  0.00    -0.313 N 
ATOM      4  H   UNL     1      -4.772  -0.226  -0.234  0.00  0.00    +0.149 HD
ENDROOT
BRANCH   1   8
ATOM      5  C   UNL     1      -8.569  -2.516   0.486  0.00  0.00    +0.065 C 
ATOM      6  C   UNL     1      -8.131  -1.960  -0.844  0.00  0.00    +0.041 A 
ATOM      7  C   UNL     1      -6.934  -1.272  -0.928  0.00  0.00    +0.038 A 
ATOM      8  C   UNL     1      -6.524  -0.757  -2.159  0.00  0.00    +0.067 A 
ATOM      9  C   UNL     1      -7.366  -0.962  -3.272  0.00  0.00    +0.120 A 
ATOM     10  C   UNL     1      -8.567  -1.674  -3.092  0.00  0.00    +0.161 A 
ATOM     11  N   UNL     1      -8.898  -2.139  -1.900  0.00  0.00    -0.233 NA
ATOM     12  N   UNL     1      -9.170  -1.706  -4.330  0.00  0.00    -0.312 N 
ATOM     13  C   UNL     1      -8.355  -1.051  -5.200  0.00  0.00    +0.112 A 
ATOM     14  N   UNL     1      -7.296  -0.619  -4.572  0.00  0.00    -0.230 NA
ATOM     15  C   UNL     1      -8.630  -0.867  -6.674  0.00  0.00    +0.074 C 
ATOM     16  C   UNL     1     -10.070  -0.387  -6.864  0.00  0.00    +0.008 C 
ATOM     17  C   UNL     1     -11.000  -1.591  -6.978  0.00  0.00    +0.002 C 
ATOM     18  C   UNL     1     -10.493  -2.740  -6.109  0.00  0.00    +0.022 C 
ATOM     19  C   UNL     1     -10.472  -2.304  -4.642  0.00  0.00    +0.125 C 
ENDBRANCH   1   8
BRANCH   3  20
ATOM     20  C   UNL     1      -3.206   0.907  -1.343  0.00  0.00    +0.094 C 
BRANCH  20  21
ATOM     21  C   UNL     1      -2.513   0.977   0.019  0.00  0.00    -0.020 C 
BRANCH  21  22
ATOM     22  N   UNL     1      -3.431   1.561   1.006  0.00  0.00    +0.385 N 
ATOM     23  C   UNL     1      -3.801   2.933   0.634  0.00  0.00    -0.078 C 
ATOM     24  C   UNL     1      -4.866   3.455   1.600  0.00  0.00    -0.019 C 
ATOM     25  C   UNL     1      -4.312   3.425   3.028  0.00  0.00    -0.004 C 
ATOM     26  C   UNL     1      -3.890   1.994   3.373  0.00  0.00    -0.019 C 
ATOM     27  C   UNL     1      -2.853   1.514   2.355  0.00  0.00    -0.078 C 
ATOM     28  H   UNL     1      -4.351   0.957   1.014  0.00  0.00    -0.081 HD
ENDBRANCH  21  22
BRANCH  21  29
ATOM     29  C   UNL     1      -1.280   1.836  -0.089  0.00  0.00    -0.059 A 
ATOM     30  C   UNL     1      -1.359   3.089  -0.667  0.00  0.00    +0.005 A 
ATOM     31  C   UNL     1      -0.231   3.881  -0.762  0.00  0.00    +0.046 A 
ATOM     32  C   UNL     1       0.984   3.415  -0.281  0.00  0.00    +0.120 A 
ATOM     33  C   UNL     1       1.063   2.155   0.293  0.00  0.00    +0.046 A 
ATOM     34  C   UNL     1      -0.069   1.367   0.386  0.00  0.00    +0.005 A 
BRANCH  32  35
ATOM     35  O   UNL     1       2.095   4.192  -0.373  0.00  0.00    -0.495 OA
ATOM     36  C   UNL     1       3.312   3.648   0.143  0.00  0.00    +0.277 C 
ENDBRANCH  32  35
ENDBRANCH  21  29
ENDBRANCH  20  21
ENDBRANCH   3  20
TORSDOF 6
