REMARK  Name = ZINC09406144
REMARK  9 active torsions:
REMARK  status: ('A' for Active; 'I' for Inactive)
REMARK    1  A    between atoms: C_1  and  C_2
REMARK    2  A    between atoms: C_5  and  C_36
REMARK    3  A    between atoms: C_9  and  C_10
REMARK    4  A    between atoms: C_9  and  N_74
REMARK    5  A    between atoms: C_10  and  C_11
REMARK    6  A    between atoms: C_11  and  N_12
REMARK    7  A    between atoms: C_13  and  C_15
REMARK    8  A    between atoms: C_18  and  N_21
REMARK    9  A    between atoms: C_22  and  C_30
REMARK                            x       y       z     vdW  Elec       q    Type
REMARK                         _______ _______ _______ _____ _____    ______ ____
ROOT
ATOM      1  C   UNL     1       0.643  -0.174   4.378  0.00  0.00    +0.037 A 
ATOM      2  C   UNL     1       1.686  -1.088   4.554  0.00  0.00    +0.015 A 
ATOM      3  C   UNL     1       2.249  -1.256   5.799  0.00  0.00    +0.027 A 
ATOM      4  C   UNL     1       1.774  -0.526   6.883  0.00  0.00    +0.047 A 
ATOM      5  C   UNL     1       0.733   0.380   6.713  0.00  0.00    +0.027 A 
ATOM      6  C   UNL     1       0.169   0.557   5.470  0.00  0.00    +0.015 A 
ENDROOT
BRANCH   4   7
ATOM      7  N   UNL     1       2.344  -0.704   8.147  0.00  0.00    -0.313 N 
ATOM      8  C   UNL     1       1.724  -1.272   9.236  0.00  0.00    +0.054 A 
ATOM      9  C   UNL     1       2.609  -1.265  10.274  0.00  0.00    +0.032 A 
ATOM     10  C   UNL     1       3.792  -0.680   9.807  0.00  0.00    -0.026 A 
ATOM     11  C   UNL     1       3.608  -0.350   8.506  0.00  0.00    +0.028 A 
ATOM     12  C   UNL     1       4.656   0.317   7.649  0.00  0.00    +0.054 C 
ATOM     13  C   UNL     1       5.737   0.899   8.569  0.00  0.00    +0.006 C 
ATOM     14  C   UNL     1       6.193  -0.172   9.563  0.00  0.00    +0.005 C 
ATOM     15  C   UNL     1       5.070  -0.444  10.571  0.00  0.00    +0.037 C 
BRANCH   8  16
ATOM     16  C   UNL     1       0.343  -1.799   9.274  0.00  0.00    -0.001 A 
ATOM     17  C   UNL     1      -0.309  -2.142   8.089  0.00  0.00    +0.010 A 
ATOM     18  C   UNL     1      -1.596  -2.639   8.132  0.00  0.00    +0.001 A 
ATOM     19  C   UNL     1      -2.243  -2.786   9.345  0.00  0.00    +0.000 A 
ATOM     20  C   UNL     1      -1.604  -2.443  10.524  0.00  0.00    +0.001 A 
ATOM     21  C   UNL     1      -0.316  -1.951  10.495  0.00  0.00    +0.010 A 
ENDBRANCH   8  16
ENDBRANCH   4   7
BRANCH   1  23
ATOM     22  N   UNL     1       0.500  -0.694   1.992  0.00  0.00    -0.311 N 
ATOM     23  C   UNL     1       0.041   0.013   3.043  0.00  0.00    +0.244 C 
ATOM     24  O   UNL     1      -0.870   0.804   2.893  0.00  0.00    -0.270 OA
ATOM     25  H   UNL     1       1.226  -1.325   2.111  0.00  0.00    +0.149 HD
BRANCH  22  26
ATOM     26  C   UNL     1      -0.098  -0.508   0.667  0.00  0.00    +0.102 C 
BRANCH  26  27
ATOM     27  C   UNL     1       0.601  -1.422  -0.341  0.00  0.00    +0.000 C 
BRANCH  27  28
ATOM     28  C   UNL     1      -0.024  -1.228  -1.724  0.00  0.00    -0.077 C 
BRANCH  28  36
ATOM     29  C   UNL     1       2.715  -4.107  -3.114  0.00  0.00    +0.005 C 
ATOM     30  C   UNL     1       2.754  -2.728  -3.776  0.00  0.00    -0.031 C 
ATOM     31  C   UNL     1       2.039  -2.789  -5.128  0.00  0.00    +0.003 C 
ATOM     32  C   UNL     1       0.569  -3.156  -4.903  0.00  0.00    -0.031 C 
ATOM     33  C   UNL     1      -0.072  -2.126  -3.972  0.00  0.00    -0.076 C 
ATOM     34  C   UNL     1       2.050  -1.710  -2.877  0.00  0.00    -0.076 C 
ATOM     35  C   UNL     1      -0.167  -3.161  -6.244  0.00  0.00    +0.005 C 
ATOM     36  N   UNL     1       0.647  -2.133  -2.680  0.00  0.00    +0.380 N 
ATOM     37  H   UNL     1       0.637  -3.087  -2.299  0.00  0.00    -0.082 HD
ENDBRANCH  28  36
ENDBRANCH  27  28
ENDBRANCH  26  27
ENDBRANCH  22  26
ENDBRANCH   1  23
TORSDOF 7
