REMARK  Name = ZINC16044841
REMARK  5 active torsions:
REMARK  status: ('A' for Active; 'I' for Inactive)
REMARK    1  A    between atoms: C_6  and  C_7
REMARK    2  A    between atoms: C_6  and  N_70
REMARK    3  A    between atoms: N_19  and  C_20
REMARK    4  A    between atoms: C_20  and  C_21
REMARK    5  A    between atoms: C_21  and  C_22
REMARK                            x       y       z     vdW  Elec       q    Type
REMARK                         _______ _______ _______ _____ _____    ______ ____
ROOT
ATOM      1  C   UNL     1       4.435  -0.185   1.993  0.00  0.00    +0.116 A 
ATOM      2  N   UNL     1       4.910   0.931   2.516  0.00  0.00    -0.219 NA
ATOM      3  C   UNL     1       6.168   1.308   2.348  0.00  0.00    +0.131 A 
ATOM      4  C   UNL     1       7.037   0.484   1.581  0.00  0.00    +0.051 A 
ATOM      5  C   UNL     1       8.459   0.699   1.266  0.00  0.00    -0.025 A 
ATOM      6  C   UNL     1       9.062  -0.235   0.513  0.00  0.00    -0.004 A 
ATOM      7  S   UNL     1       7.801  -1.445   0.180  0.00  0.00    -0.073 S 
ATOM      8  C   UNL     1       6.461  -0.686   1.057  0.00  0.00    +0.114 A 
ATOM      9  N   UNL     1       5.196  -0.990   1.276  0.00  0.00    -0.227 NA
ATOM     10  C   UNL     1      10.508   0.090   0.253  0.00  0.00    +0.043 C 
ATOM     11  C   UNL     1      10.634   1.591   0.591  0.00  0.00    +0.010 C 
ATOM     12  C   UNL     1       9.488   1.782   1.603  0.00  0.00    +0.037 C 
ATOM     13  N   UNL     1       6.630   2.484   2.911  0.00  0.00    -0.328 N 
ATOM     14  H   UNL     1       7.554   2.753   2.783  0.00  0.00    +0.147 HD
ENDROOT
BRANCH   1  15
ATOM     15  C   UNL     1       2.991  -0.550   2.226  0.00  0.00    -0.001 C 
BRANCH  15  21
ATOM     16  C   UNL     1      -0.019   1.527   0.010  0.00  0.00    -0.004 C 
ATOM     17  C   UNL     1       1.421   2.049  -0.001  0.00  0.00    -0.019 C 
ATOM     18  C   UNL     1       2.171   1.488   1.210  0.00  0.00    -0.078 C 
ATOM     19  C   UNL     1       0.793  -0.505   1.212  0.00  0.00    -0.078 C 
ATOM     20  C   UNL     1       0.002  -0.004   0.002  0.00  0.00    -0.019 C 
ATOM     21  N   UNL     1       2.176   0.012   1.129  0.00  0.00    +0.384 N 
ATOM     22  H   UNL     1       2.584  -0.271   0.231  0.00  0.00    -0.081 HD
ENDBRANCH  15  21
ENDBRANCH   1  15
BRANCH  13  23
ATOM     23  C   UNL     1       5.725   3.324   3.699  0.00  0.00    +0.103 C 
BRANCH  23  24
ATOM     24  C   UNL     1       6.481   4.555   4.202  0.00  0.00    +0.025 C 
BRANCH  24  25
ATOM     25  C   UNL     1       5.535   5.433   5.026  0.00  0.00    -0.027 C 
ATOM     26  C   UNL     1       4.361   5.877   4.151  0.00  0.00    +0.010 C 
ATOM     27  C   UNL     1       3.416   6.755   4.974  0.00  0.00    -0.010 C 
ATOM     28  C   UNL     1       4.172   7.986   5.478  0.00  0.00    +0.007 C 
ATOM     29  C   UNL     1       5.346   7.541   6.352  0.00  0.00    -0.010 C 
ATOM     30  C   UNL     1       6.291   6.664   5.529  0.00  0.00    +0.010 C 
ATOM     31  C   UNL     1       4.819   6.743   7.546  0.00  0.00    +0.007 C 
ATOM     32  C   UNL     1       4.063   5.511   7.043  0.00  0.00    -0.010 C 
ATOM     33  C   UNL     1       2.889   5.956   6.168  0.00  0.00    +0.007 C 
ATOM     34  C   UNL     1       5.008   4.634   6.220  0.00  0.00    +0.010 C 
ENDBRANCH  24  25
ENDBRANCH  23  24
ENDBRANCH  13  23
TORSDOF 5
