REMARK  Name = ZINC18197802
REMARK  9 active torsions:
REMARK  status: ('A' for Active; 'I' for Inactive)
REMARK    1  A    between atoms: C_1  and  O_2
REMARK    2  A    between atoms: O_2  and  C_3
REMARK    3  A    between atoms: C_5  and  C_13
REMARK    4  A    between atoms: C_7  and  O_11
REMARK    5  A    between atoms: C_8  and  O_9
REMARK    6  A    between atoms: O_9  and  C_10
REMARK    7  A    between atoms: O_11  and  C_12
REMARK    8  A    between atoms: C_18  and  C_28
REMARK    9  A    between atoms: C_25  and  O_26
REMARK                            x       y       z     vdW  Elec       q    Type
REMARK                         _______ _______ _______ _____ _____    ______ ____
ROOT
ATOM      1  C   UNL     1      -1.532  -2.048   3.464  0.00  0.00    +0.032 C 
ATOM      2  C   UNL     1      -2.591  -1.558   2.475  0.00  0.00    +0.059 C 
ATOM      3  C   UNL     1      -1.921  -1.079   1.207  0.00  0.00    +0.017 C 
ATOM      4  C   UNL     1      -0.691  -0.524   1.243  0.00  0.00    +0.024 C 
ATOM      5  C   UNL     1       0.002  -0.004   0.002  0.00  0.00    +0.092 C 
ATOM      6  C   UNL     1      -0.709  -0.507  -1.222  0.00  0.00    +0.067 A 
ATOM      7  C   UNL     1      -1.951  -1.080  -1.167  0.00  0.00    +0.126 A 
ATOM      8  N   UNL     1      -2.305  -1.416  -2.422  0.00  0.00    -0.260 N 
ATOM      9  H   UNL     1      -3.163  -1.851  -2.696  0.00  0.00    +0.190 HD
ATOM     10  N   UNL     1      -1.255  -1.045  -3.277  0.00  0.00    -0.134 NA
ATOM     11  C   UNL     1      -0.301  -0.501  -2.553  0.00  0.00    +0.237 A 
ATOM     12  N   UNL     1      -2.625  -1.233   0.039  0.00  0.00    -0.303 N 
ATOM     13  C   UNL     1       0.011  -0.404   2.456  0.00  0.00    +0.162 C 
ATOM     14  O   UNL     1       1.116   0.103   2.454  0.00  0.00    -0.292 OA
ATOM     15  C   UNL     1      -0.571  -0.890   3.753  0.00  0.00    +0.088 C 
ATOM     16  H   UNL     1      -3.571  -1.444   0.054  0.00  0.00    +0.153 HD
ENDROOT
BRANCH   5  17
ATOM     17  C   UNL     1      -0.018   1.503   0.010  0.00  0.00    -0.035 A 
ATOM     18  C   UNL     1      -1.225   2.177   0.020  0.00  0.00    +0.006 A 
ATOM     19  C   UNL     1      -1.244   3.559   0.033  0.00  0.00    +0.020 A 
ATOM     20  C   UNL     1      -0.056   4.268   0.025  0.00  0.00    +0.041 A 
ATOM     21  C   UNL     1       1.151   3.592   0.010  0.00  0.00    +0.020 A 
ATOM     22  C   UNL     1       1.169   2.210   0.003  0.00  0.00    +0.006 A 
ATOM     23 CL   UNL     1      -0.079   6.003   0.035  0.00  0.00    -0.084 Cl
ENDBRANCH   5  17
BRANCH   1  26
ATOM     24  C   UNL     1      -2.666  -4.203   6.354  0.00  0.00    +0.165 A 
ATOM     25  C   UNL     1      -2.056  -3.793   5.178  0.00  0.00    +0.053 A 
ATOM     26  C   UNL     1      -2.196  -2.489   4.743  0.00  0.00    -0.036 A 
ATOM     27  C   UNL     1      -2.940  -1.586   5.480  0.00  0.00    +0.053 A 
ATOM     28  C   UNL     1      -3.558  -1.990   6.654  0.00  0.00    +0.165 A 
ATOM     29  C   UNL     1      -3.419  -3.300   7.096  0.00  0.00    +0.204 A 
BRANCH  24  31
ATOM     30  C   UNL     1      -1.738  -6.359   5.971  0.00  0.00    +0.277 C 
ATOM     31  O   UNL     1      -2.526  -5.486   6.782  0.00  0.00    -0.491 OA
ENDBRANCH  24  31
BRANCH  29  32
ATOM     32  O   UNL     1      -4.018  -3.698   8.251  0.00  0.00    -0.488 OA
ATOM     33  C   UNL     1      -3.263  -3.557   9.456  0.00  0.00    +0.277 C 
ENDBRANCH  29  32
BRANCH  28  34
ATOM     34  O   UNL     1      -4.293  -1.102   7.376  0.00  0.00    -0.491 OA
ATOM     35  C   UNL     1      -4.393   0.227   6.863  0.00  0.00    +0.277 C 
ENDBRANCH  28  34
ENDBRANCH   1  26
BRANCH  11  36
ATOM     36  O   UNL     1       0.879  -0.017  -3.024  0.00  0.00    -0.491 OA
ATOM     37  H   UNL     1       0.917  -0.137  -4.016  0.00  0.00    +0.294 HD
ENDBRANCH  11  36
TORSDOF 6
