REMARK  Name = ZINC24144847
REMARK  10 active torsions:
REMARK  status: ('A' for Active; 'I' for Inactive)
REMARK    1  A    between atoms: C_1  and  C_2
REMARK    2  A    between atoms: C_2  and  C_3
REMARK    3  A    between atoms: C_3  and  C_4
REMARK    4  A    between atoms: C_4  and  N_5
REMARK    5  A    between atoms: C_9  and  S_29
REMARK    6  A    between atoms: C_13  and  C_14
REMARK    7  A    between atoms: C_14  and  S_15
REMARK    8  A    between atoms: S_15  and  C_16
REMARK    9  A    between atoms: C_22  and  C_25
REMARK   10  A    between atoms: S_29  and  N_32
REMARK                            x       y       z     vdW  Elec       q    Type
REMARK                         _______ _______ _______ _____ _____    ______ ____
ROOT
ATOM      1  N   UNL     1      -2.154  -0.789  -1.097  0.00  0.00    -0.327 N 
ATOM      2  C   UNL     1      -3.383  -1.248  -0.669  0.00  0.00    +0.069 A 
ATOM      3  C   UNL     1      -4.537  -1.668  -1.316  0.00  0.00    +0.030 A 
ATOM      4  C   UNL     1      -5.626  -2.077  -0.576  0.00  0.00    +0.030 A 
ATOM      5  C   UNL     1      -5.575  -2.071   0.811  0.00  0.00    +0.107 A 
ATOM      6  C   UNL     1      -4.448  -1.661   1.465  0.00  0.00    +0.058 A 
ATOM      7  C   UNL     1      -3.333  -1.242   0.735  0.00  0.00    +0.091 A 
ATOM      8  N   UNL     1      -2.099  -0.795   1.084  0.00  0.00    -0.231 NA
ATOM      9  C   UNL     1      -1.412  -0.526   0.013  0.00  0.00    +0.121 A 
ENDROOT
BRANCH   5  10
ATOM     10  S   UNL     1      -6.978  -2.598   1.738  0.00  0.00    +0.056 S 
ATOM     11  O   UNL     1      -6.875  -1.985   3.015  0.00  0.00    -0.153 OA
ATOM     12  O   UNL     1      -8.110  -2.421   0.896  0.00  0.00    -0.153 OA
BRANCH  10  13
ATOM     13  N   UNL     1      -6.819  -4.229   1.981  0.00  0.00    -0.204 NA
ATOM     14  H   UNL     1      -7.680  -4.598   2.559  0.00  0.00    +0.144 HD
ATOM     15  H   UNL     1      -5.892  -4.428   2.537  0.00  0.00    +0.144 HD
ENDBRANCH  10  13
ENDBRANCH   5  10
BRANCH   1  16
ATOM     16  C   UNL     1      -1.726  -0.619  -2.488  0.00  0.00    +0.123 C 
BRANCH  16  17
ATOM     17  C   UNL     1      -1.077  -1.913  -2.984  0.00  0.00    +0.021 C 
BRANCH  17  19
ATOM     18  C   UNL     1       0.018  -3.029  -4.933  0.00  0.00    +0.004 C 
ATOM     19  C   UNL     1      -0.631  -1.735  -4.436  0.00  0.00    -0.002 C 
ENDBRANCH  17  19
ENDBRANCH  16  17
ENDBRANCH   1  16
BRANCH   9  20
ATOM     20  C   UNL     1       0.002  -0.004   0.002  0.00  0.00    +0.151 C 
BRANCH  20  21
ATOM     21  S   UNL     1      -0.022   1.810   0.012  0.00  0.00    -0.078 S 
BRANCH  21  22
ATOM     22  C   UNL     1       1.681   2.259  -0.002  0.00  0.00    +0.196 A 
ATOM     23  N   UNL     1       2.704   1.434  -0.017  0.00  0.00    -0.122 NA
ATOM     24  N   UNL     1       3.809   2.094  -0.023  0.00  0.00    -0.129 NA
ATOM     25  C   UNL     1       3.554   3.389  -0.013  0.00  0.00    +0.162 A 
ATOM     26  N   UNL     1       2.182   3.527  -0.005  0.00  0.00    -0.277 N 
ATOM     27  C   UNL     1       1.612   4.770  -0.000  0.00  0.00    +0.107 A 
ATOM     28  C   UNL     1       2.384   5.876  -0.006  0.00  0.00    +0.071 A 
ATOM     29  C   UNL     1       3.787   5.766  -0.018  0.00  0.00    +0.017 A 
ATOM     30  C   UNL     1       4.370   4.538  -0.015  0.00  0.00    +0.049 A 
BRANCH  28  31
ATOM     31  C   UNL     1       1.739   7.238  -0.001  0.00  0.00    +0.419 C 
ATOM     32  F   UNL     1       1.551   7.659   1.320  0.00  0.00    -0.166 F 
ATOM     33  F   UNL     1       2.567   8.148  -0.667  0.00  0.00    -0.166 F 
ATOM     34  F   UNL     1       0.502   7.171  -0.650  0.00  0.00    -0.166 F 
ENDBRANCH  28  31
ENDBRANCH  21  22
ENDBRANCH  20  21
ENDBRANCH   9  20
TORSDOF 9
