REMARK  Name = ZINC39668755
REMARK  8 active torsions:
REMARK  status: ('A' for Active; 'I' for Inactive)
REMARK    1  A    between atoms: C_1  and  C_2
REMARK    2  A    between atoms: C_2  and  C_4
REMARK    3  A    between atoms: C_2  and  O_33
REMARK    4  A    between atoms: C_4  and  N_5
REMARK    5  A    between atoms: C_6  and  C_8
REMARK    6  A    between atoms: C_19  and  C_21
REMARK    7  A    between atoms: C_24  and  C_26
REMARK    8  A    between atoms: O_33  and  C_34
REMARK                            x       y       z     vdW  Elec       q    Type
REMARK                         _______ _______ _______ _____ _____    ______ ____
ROOT
ATOM      1  C   UNL     1       2.025  -3.736   1.954  0.00  0.00    +0.100 C 
ATOM      2  C   UNL     1       2.938  -4.080   0.756  0.00  0.00    +0.121 C 
ATOM      3  N   UNL     1       4.312  -4.038   1.308  0.00  0.00    -0.294 N 
ATOM      4  C   UNL     1       4.187  -4.646   2.654  0.00  0.00    +0.115 C 
ATOM      5  C   UNL     1       2.847  -4.113   3.198  0.00  0.00    -0.004 C 
ATOM      6  C   UNL     1       2.131  -5.198   3.996  0.00  0.00    -0.010 C 
ATOM      7  C   UNL     1       2.938  -5.514   5.258  0.00  0.00    -0.082 C 
ATOM      8  N   UNL     1       3.082  -4.298   6.067  0.00  0.00    +0.379 N 
ATOM      9  C   UNL     1       3.853  -3.292   5.326  0.00  0.00    -0.082 C 
ATOM     10  C   UNL     1       3.084  -2.881   4.067  0.00  0.00    -0.010 C 
ATOM     11  C   UNL     1       5.424  -3.556   0.719  0.00  0.00    +0.282 C 
ATOM     12  O   UNL     1       6.503  -3.671   1.271  0.00  0.00    -0.267 OA
ATOM     13  H   UNL     1       2.168  -3.928   6.281  0.00  0.00    -0.086 HD
ATOM     14  H   UNL     1       3.561  -4.521   6.926  0.00  0.00    -0.086 HD
ENDROOT
BRANCH  11  15
ATOM     15  C   UNL     1       5.335  -2.894  -0.584  0.00  0.00    +0.190 A 
ATOM     16  C   UNL     1       6.398  -2.449  -1.341  0.00  0.00    +0.055 A 
ATOM     17  C   UNL     1       5.859  -1.885  -2.501  0.00  0.00    +0.050 A 
ATOM     18  C   UNL     1       4.501  -2.004  -2.413  0.00  0.00    +0.136 A 
ATOM     19  O   UNL     1       4.197  -2.618  -1.257  0.00  0.00    -0.450 OA
BRANCH  18  20
ATOM     20  C   UNL     1       3.529  -1.539  -3.422  0.00  0.00    +0.017 A 
ATOM     21  C   UNL     1       3.976  -1.018  -4.638  0.00  0.00    +0.014 A 
ATOM     22  C   UNL     1       3.064  -0.587  -5.578  0.00  0.00    +0.039 A 
ATOM     23  C   UNL     1       1.705  -0.669  -5.316  0.00  0.00    +0.123 A 
ATOM     24  C   UNL     1       1.255  -1.184  -4.111  0.00  0.00    +0.039 A 
ATOM     25  C   UNL     1       2.158  -1.624  -3.167  0.00  0.00    +0.014 A 
ATOM     26  F   UNL     1       0.815  -0.244  -6.240  0.00  0.00    -0.205 F 
ENDBRANCH  18  20
ENDBRANCH  11  15
BRANCH   1  28
ATOM     27  N   UNL     1       0.622  -1.814   2.630  0.00  0.00    -0.312 N 
ATOM     28  C   UNL     1       1.704  -2.263   1.963  0.00  0.00    +0.218 C 
ATOM     29  O   UNL     1       2.419  -1.483   1.372  0.00  0.00    -0.275 OA
ATOM     30  H   UNL     1       0.009  -2.443   3.041  0.00  0.00    +0.149 HD
BRANCH  27  31
ATOM     31  C   UNL     1       0.371  -0.374   2.732  0.00  0.00    +0.148 C 
BRANCH  31  33
ATOM     32  C   UNL     1      -1.025   1.374   3.845  0.00  0.00    +0.053 C 
ATOM     33  C   UNL     1      -0.840  -0.131   3.635  0.00  0.00    +0.187 C 
BRANCH  33  34
ATOM     34  O   UNL     1      -2.010  -0.674   3.021  0.00  0.00    -0.486 OA
BRANCH  34  35
ATOM     35  C   UNL     1      -3.034  -1.022   3.844  0.00  0.00    +0.139 A 
ATOM     36  C   UNL     1      -4.158  -1.667   3.338  0.00  0.00    +0.049 A 
ATOM     37  C   UNL     1      -5.176  -2.002   4.216  0.00  0.00    +0.023 A 
ATOM     38  C   UNL     1      -5.043  -1.687   5.555  0.00  0.00    +0.111 A 
ATOM     39  N   UNL     1      -3.964  -1.075   6.003  0.00  0.00    -0.260 NA
ATOM     40  C   UNL     1      -2.971  -0.744   5.202  0.00  0.00    +0.156 A 
ENDBRANCH  34  35
ENDBRANCH  33  34
ENDBRANCH  31  33
ENDBRANCH  27  31
ENDBRANCH   1  28
TORSDOF 7
