REMARK  Name = ZINC37140101
REMARK  7 active torsions:
REMARK  status: ('A' for Active; 'I' for Inactive)
REMARK    1  A    between atoms: C_1  and  C_2
REMARK    2  A    between atoms: C_4  and  C_10
REMARK    3  A    between atoms: C_6  and  C_9
REMARK    4  A    between atoms: C_7  and  O_8
REMARK    5  A    between atoms: C_10  and  N_11
REMARK    6  A    between atoms: N_11  and  C_12
REMARK    7  A    between atoms: C_17  and  N_18
REMARK                            x       y       z     vdW  Elec       q    Type
REMARK                         _______ _______ _______ _____ _____    ______ ____
ROOT
ATOM      1  N   UNL     1       1.498  -3.501  -2.724  0.00  0.00    -0.338 N 
ATOM      2  H   UNL     1       2.247  -3.200  -2.186  0.00  0.00    +0.146 HD
ENDROOT
BRANCH   1   3
ATOM      3  C   UNL     1       1.712  -3.944  -4.032  0.00  0.00    +0.058 A 
ATOM      4  C   UNL     1       0.664  -4.489  -4.763  0.00  0.00    +0.026 A 
ATOM      5  C   UNL     1       0.879  -4.926  -6.055  0.00  0.00    +0.017 A 
ATOM      6  C   UNL     1       2.137  -4.821  -6.622  0.00  0.00    +0.020 A 
ATOM      7  C   UNL     1       3.183  -4.279  -5.897  0.00  0.00    +0.050 A 
ATOM      8  C   UNL     1       2.972  -3.834  -4.606  0.00  0.00    +0.148 A 
ATOM      9 BR   UNL     1       2.427  -5.421  -8.392  0.00  0.00    -0.050 Br
BRANCH   8  10
ATOM     10  N   UNL     1       4.090  -3.248  -3.834  0.00  0.00    +0.058 N 
ATOM     11  O   UNL     1       3.889  -2.313  -3.094  0.00  0.00    -0.126 OA
ATOM     12  O   UNL     1       5.205  -3.705  -3.942  0.00  0.00    -0.126 OA
ENDBRANCH   8  10
ENDBRANCH   1   3
BRANCH   1  13
ATOM     13  C   UNL     1       0.144  -3.492  -2.167  0.00  0.00    +0.137 C 
BRANCH  13  17
ATOM     14  C   UNL     1      -0.067   0.332   1.052  0.00  0.00    +0.047 C 
ATOM     15  C   UNL     1       0.085  -1.143   0.787  0.00  0.00    -0.008 A 
ATOM     16  C   UNL     1       0.047  -1.621  -0.508  0.00  0.00    +0.012 A 
ATOM     17  C   UNL     1       0.186  -2.974  -0.752  0.00  0.00    -0.030 A 
ATOM     18  C   UNL     1       0.365  -3.854   0.300  0.00  0.00    +0.012 A 
ATOM     19  C   UNL     1       0.404  -3.382   1.597  0.00  0.00    -0.008 A 
ATOM     20  C   UNL     1       0.269  -2.023   1.844  0.00  0.00    +0.123 A 
ATOM     21  C   UNL     1       0.598  -4.341   2.744  0.00  0.00    +0.047 C 
BRANCH  20  22
ATOM     22  O   UNL     1       0.314  -1.555   3.119  0.00  0.00    -0.506 OA
ATOM     23  H   UNL     1      -0.549  -1.522   3.556  0.00  0.00    +0.292 HD
ENDBRANCH  20  22
ENDBRANCH  13  17
ENDBRANCH   1  13
TORSDOF 5
