REMARK  Name = ZINC36148642
REMARK  4 active torsions:
REMARK  status: ('A' for Active; 'I' for Inactive)
REMARK    1  A    between atoms: C_13  and  C_15
REMARK    2  A    between atoms: C_15  and  C_17
REMARK    3  A    between atoms: C_15  and  C_23
REMARK    4  A    between atoms: C_17  and  C_18
REMARK                            x       y       z     vdW  Elec       q    Type
REMARK                         _______ _______ _______ _____ _____    ______ ____
ROOT
ATOM      1  C   UNL     1       2.643   1.259  -0.522  0.00  0.00    +0.005 A 
ATOM      2  C   UNL     1       1.433   1.939  -0.477  0.00  0.00    +0.018 A 
ATOM      3  C   UNL     1       0.258   1.222  -0.380  0.00  0.00    +0.084 A 
ATOM      4  N   UNL     1       0.272  -0.097  -0.330  0.00  0.00    -0.350 N 
ATOM      5  C   UNL     1       1.404  -0.781  -0.370  0.00  0.00    +0.099 A 
ATOM      6  C   UNL     1       2.626  -0.123  -0.468  0.00  0.00    +0.042 A 
ATOM      7  N   UNL     1       1.372  -2.170  -0.315  0.00  0.00    -0.314 N 
ATOM      8  C   UNL     1       2.603  -2.954  -0.490  0.00  0.00    +0.125 C 
ATOM      9  C   UNL     1       2.776  -3.873   0.725  0.00  0.00    +0.126 C 
ATOM     10  N   UNL     1       1.511  -4.583   0.961  0.00  0.00    -0.298 N 
ATOM     11  C   UNL     1       0.280  -3.799   1.137  0.00  0.00    +0.126 C 
ATOM     12  C   UNL     1       0.108  -2.880  -0.073  0.00  0.00    +0.125 C 
ATOM     13  C   UNL     1       1.480  -5.929   1.015  0.00  0.00    +0.223 C 
ATOM     14  O   UNL     1       2.512  -6.563   0.955  0.00  0.00    -0.275 OA
ATOM     15  H   UNL     1      -0.569  -0.576  -0.262  0.00  0.00    +0.166 HD
ENDROOT
BRANCH  13  16
ATOM     16  C   UNL     1       0.162  -6.648   1.151  0.00  0.00    +0.110 C 
BRANCH  16  17
ATOM     17  C   UNL     1      -0.361  -7.000  -0.218  0.00  0.00    -0.035 A 
ATOM     18  C   UNL     1       0.378  -7.821  -1.050  0.00  0.00    +0.007 A 
ATOM     19  C   UNL     1      -0.100  -8.146  -2.305  0.00  0.00    +0.038 A 
ATOM     20  C   UNL     1      -1.320  -7.648  -2.730  0.00  0.00    +0.123 A 
ATOM     21  C   UNL     1      -2.060  -6.826  -1.896  0.00  0.00    +0.038 A 
ATOM     22  C   UNL     1      -1.582  -6.507  -0.639  0.00  0.00    +0.007 A 
ATOM     23  F   UNL     1      -1.789  -7.964  -3.957  0.00  0.00    -0.205 F 
ENDBRANCH  16  17
BRANCH  16  24
ATOM     24  C   UNL     1       0.360  -7.927   1.966  0.00  0.00    +0.060 C 
BRANCH  24  25
ATOM     25  C   UNL     1       0.731  -7.568   3.382  0.00  0.00    -0.009 A 
ATOM     26  C   UNL     1      -0.070  -7.438   4.467  0.00  0.00    +0.011 A 
ATOM     27  C   UNL     1       0.496  -7.098   5.681  0.00  0.00    +0.008 A 
ATOM     28  C   UNL     1       1.836  -6.904   5.750  0.00  0.00    +0.045 A 
ATOM     29  S   UNL     1       2.341  -7.211   4.066  0.00  0.00    -0.102 S 
ENDBRANCH  24  25
ENDBRANCH  16  24
ENDBRANCH  13  16
TORSDOF 4
