REMARK  Name = ZINC03142401
REMARK  10 active torsions:
REMARK  status: ('A' for Active; 'I' for Inactive)
REMARK    1  A    between atoms: C_1  and  C_2
REMARK    2  A    between atoms: C_2  and  C_3
REMARK    3  A    between atoms: C_2  and  C_4
REMARK    4  A    between atoms: C_2  and  C_5
REMARK    5  A    between atoms: N_7  and  C_8
REMARK    6  A    between atoms: C_8  and  C_10
REMARK    7  A    between atoms: C_8  and  N_14
REMARK    8  A    between atoms: N_14  and  C_15
REMARK    9  A    between atoms: C_15  and  N_17
REMARK   10  A    between atoms: N_17  and  C_18
REMARK                            x       y       z     vdW  Elec       q    Type
REMARK                         _______ _______ _______ _____ _____    ______ ____
ROOT
ATOM      1  C   UNL     1       2.084  -2.684  -3.173  0.00  0.00    +0.211 C 
ENDROOT
BRANCH   1   4
ATOM      2  C   UNL     1       2.034  -0.650  -1.833  0.00  0.00    +0.220 C 
ATOM      3  O   UNL     1       2.481  -0.046  -2.786  0.00  0.00    -0.275 OA
ATOM      4  N   UNL     1       1.800  -1.974  -1.924  0.00  0.00    -0.293 N 
ATOM      5  H   UNL     1       1.442  -2.456  -1.162  0.00  0.00    +0.151 HD
BRANCH   2   7
ATOM      6  C   UNL     1       2.094   1.561  -0.712  0.00  0.00    +0.020 C 
ATOM      7  C   UNL     1       1.742   0.081  -0.548  0.00  0.00    +0.039 C 
ATOM      8  C   UNL     1       2.578  -0.521   0.582  0.00  0.00    +0.020 C 
ATOM      9  C   UNL     1       0.255  -0.055  -0.212  0.00  0.00    +0.020 C 
ENDBRANCH   2   7
ENDBRANCH   1   4
BRANCH   1  10
ATOM     10  C   UNL     1       2.812  -3.993  -2.861  0.00  0.00    +0.225 C 
ATOM     11 CL   UNL     1       1.772  -5.023  -1.808  0.00  0.00    -0.080 Cl
ATOM     12 CL   UNL     1       3.162  -4.868  -4.399  0.00  0.00    -0.080 Cl
ATOM     13 CL   UNL     1       4.359  -3.632  -2.009  0.00  0.00    -0.080 Cl
ENDBRANCH   1  10
BRANCH   1  14
ATOM     14  N   UNL     1       0.827  -2.978  -3.866  0.00  0.00    -0.305 N 
ATOM     15  H   UNL     1       0.250  -3.687  -3.543  0.00  0.00    +0.150 HD
BRANCH  14  16
ATOM     16  C   UNL     1       0.472  -2.262  -4.951  0.00  0.00    +0.136 C 
ATOM     17  S   UNL     1       1.491  -1.010  -5.521  0.00  0.00    -0.019 S 
BRANCH  16  18
ATOM     18  N   UNL     1      -0.684  -2.532  -5.588  0.00  0.00    -0.297 N 
ATOM     19  H   UNL     1      -1.232  -3.280  -5.303  0.00  0.00    +0.154 HD
BRANCH  18  20
ATOM     20  C   UNL     1      -1.096  -1.732  -6.660  0.00  0.00    +0.033 A 
ATOM     21  C   UNL     1      -0.190  -1.377  -7.651  0.00  0.00    +0.025 A 
ATOM     22  C   UNL     1      -0.599  -0.588  -8.708  0.00  0.00    +0.022 A 
ATOM     23  C   UNL     1      -1.910  -0.152  -8.781  0.00  0.00    +0.041 A 
ATOM     24  C   UNL     1      -2.815  -0.505  -7.795  0.00  0.00    +0.022 A 
ATOM     25  C   UNL     1      -2.413  -1.298  -6.739  0.00  0.00    +0.025 A 
ATOM     26 CL   UNL     1      -2.421   0.840 -10.111  0.00  0.00    -0.084 Cl
ENDBRANCH  18  20
ENDBRANCH  16  18
ENDBRANCH  14  16
ENDBRANCH   1  14
TORSDOF 7
