REMARK  Name = ZINC01339368
REMARK  9 active torsions:
REMARK  status: ('A' for Active; 'I' for Inactive)
REMARK    1  A    between atoms: N_9  and  C_10
REMARK    2  A    between atoms: C_10  and  C_11
REMARK    3  A    between atoms: N_13  and  C_14
REMARK    4  A    between atoms: N_13  and  C_21
REMARK    5  A    between atoms: C_14  and  C_15
REMARK    6  A    between atoms: C_21  and  C_23
REMARK    7  A    between atoms: C_21  and  C_28
REMARK    8  A    between atoms: N_30  and  C_31
REMARK    9  A    between atoms: C_31  and  C_32
REMARK                            x       y       z     vdW  Elec       q    Type
REMARK                         _______ _______ _______ _____ _____    ______ ____
ROOT
ATOM      1  C   UNL     1      -4.460   2.616  -1.236  0.00  0.00    +0.238 C 
ATOM      2  O   UNL     1      -3.485   3.061  -1.803  0.00  0.00    -0.274 OA
ATOM      3  N   UNL     1      -5.688   3.078  -1.544  0.00  0.00    -0.280 N 
ENDROOT
BRANCH   1   4
ATOM      4  C   UNL     1      -4.299   1.547  -0.186  0.00  0.00    +0.241 C 
BRANCH   4  13
ATOM      5  C   UNL     1      -1.275  -2.190  -2.337  0.00  0.00    +0.002 A 
ATOM      6  C   UNL     1      -2.633  -1.993  -2.549  0.00  0.00    +0.002 A 
ATOM      7  C   UNL     1      -3.294  -0.973  -1.925  0.00  0.00    +0.029 A 
ATOM      8  C   UNL     1      -2.605  -0.130  -1.059  0.00  0.00    +0.090 A 
ATOM      9  C   UNL     1      -1.230  -0.324  -0.840  0.00  0.00    +0.113 A 
ATOM     10  C   UNL     1      -0.575  -1.374  -1.497  0.00  0.00    +0.032 A 
ATOM     11  N   UNL     1      -0.816   0.623   0.026  0.00  0.00    -0.129 NA
ATOM     12  N   UNL     1      -1.799   1.381   0.362  0.00  0.00    -0.064 NA
ATOM     13  N   UNL     1      -2.963   0.954  -0.294  0.00  0.00    -0.235 N 
ENDBRANCH   4  13
ENDBRANCH   1   4
BRANCH   3  14
ATOM     14  C   UNL     1      -6.856   2.616  -0.789  0.00  0.00    +0.145 C 
BRANCH  14  15
ATOM     15  C   UNL     1      -7.120   3.561   0.355  0.00  0.00    -0.012 A 
ATOM     16  C   UNL     1      -6.392   3.460   1.531  0.00  0.00    +0.008 A 
ATOM     17  C   UNL     1      -6.666   4.354   2.555  0.00  0.00    +0.020 A 
ATOM     18  C   UNL     1      -7.655   5.302   2.374  0.00  0.00    +0.111 A 
ATOM     19  N   UNL     1      -8.331   5.365   1.244  0.00  0.00    -0.263 NA
ATOM     20  C   UNL     1      -8.094   4.534   0.247  0.00  0.00    +0.115 A 
ENDBRANCH  14  15
ENDBRANCH   3  14
BRANCH   3  21
ATOM     21  C   UNL     1      -5.856   4.041  -2.635  0.00  0.00    +0.199 C 
BRANCH  21  22
ATOM     22  C   UNL     1      -6.949   3.568  -3.559  0.00  0.00    +0.019 A 
ATOM     23  C   UNL     1      -6.890   3.311  -4.889  0.00  0.00    +0.013 A 
ATOM     24  C   UNL     1      -8.031   2.881  -5.540  0.00  0.00    +0.008 A 
ATOM     25  C   UNL     1      -9.175   2.728  -4.829  0.00  0.00    +0.045 A 
ATOM     26  S   UNL     1      -8.654   3.193  -3.186  0.00  0.00    -0.099 S 
ENDBRANCH  21  22
BRANCH  21  27
ATOM     27  C   UNL     1      -6.228   5.386  -2.065  0.00  0.00    +0.239 C 
ATOM     28  O   UNL     1      -5.920   5.668  -0.926  0.00  0.00    -0.273 OA
ATOM     29  N   UNL     1      -6.903   6.275  -2.820  0.00  0.00    -0.306 N 
ATOM     30  H   UNL     1      -7.150   6.049  -3.731  0.00  0.00    +0.149 HD
BRANCH  29  31
ATOM     31  C   UNL     1      -7.264   7.582  -2.266  0.00  0.00    +0.178 C 
BRANCH  31  32
ATOM     32  C   UNL     1      -8.008   8.380  -3.306  0.00  0.00    +0.122 A 
ATOM     33  C   UNL     1      -9.340   8.384  -3.490  0.00  0.00    +0.046 A 
ATOM     34  C   UNL     1      -9.602   9.266  -4.564  0.00  0.00    +0.041 A 
ATOM     35  C   UNL     1      -8.414   9.749  -4.971  0.00  0.00    +0.195 A 
ATOM     36  O   UNL     1      -7.453   9.213  -4.201  0.00  0.00    -0.466 OA
ENDBRANCH  31  32
ENDBRANCH  29  31
ENDBRANCH  21  27
ENDBRANCH   3  21
TORSDOF 9
