REMARK  Name = ZINC03547745
REMARK  8 active torsions:
REMARK  status: ('A' for Active; 'I' for Inactive)
REMARK    1  A    between atoms: C_1  and  C_2
REMARK    2  A    between atoms: C_2  and  C_4
REMARK    3  A    between atoms: C_2  and  N_12
REMARK    4  A    between atoms: C_13  and  C_15
REMARK    5  A    between atoms: C_15  and  C_17
REMARK    6  A    between atoms: C_15  and  O_18
REMARK    7  A    between atoms: O_18  and  C_19
REMARK    8  A    between atoms: C_19  and  C_21
REMARK                            x       y       z     vdW  Elec       q    Type
REMARK                         _______ _______ _______ _____ _____    ______ ____
ROOT
ATOM      1  N   UNL     1      -1.150   3.449  -0.557  0.00  0.00    -0.306 N 
ATOM      2  C   UNL     1      -2.196   4.090  -1.116  0.00  0.00    +0.254 C 
ATOM      3  O   UNL     1      -3.288   3.562  -1.140  0.00  0.00    -0.272 OA
ATOM      4  H   UNL     1      -0.277   3.871  -0.538  0.00  0.00    +0.149 HD
ENDROOT
BRANCH   1   6
ATOM      5  C   UNL     1      -1.832   2.246   1.460  0.00  0.00    +0.033 C 
ATOM      6  C   UNL     1      -1.332   2.115   0.020  0.00  0.00    +0.102 C 
BRANCH   6   7
ATOM      7  C   UNL     1      -0.017   1.379   0.010  0.00  0.00    -0.009 A 
ATOM      8  C   UNL     1       1.171   2.087   0.002  0.00  0.00    +0.008 A 
ATOM      9  C   UNL     1       2.377   1.413  -0.013  0.00  0.00    +0.020 A 
ATOM     10  C   UNL     1       2.397   0.029  -0.021  0.00  0.00    +0.042 A 
ATOM     11  C   UNL     1       1.210  -0.679  -0.013  0.00  0.00    +0.040 A 
ATOM     12  C   UNL     1       0.002  -0.004   0.002  0.00  0.00    +0.047 A 
ATOM     13 CL   UNL     1      -1.489  -0.893   0.011  0.00  0.00    -0.083 Cl
ATOM     14 CL   UNL     1       3.913  -0.817  -0.039  0.00  0.00    -0.083 Cl
ENDBRANCH   6   7
ENDBRANCH   1   6
BRANCH   2  15
ATOM     15  C   UNL     1      -2.009   5.462  -1.710  0.00  0.00    +0.259 C 
ATOM     16  C   UNL     1      -1.521   6.425  -0.625  0.00  0.00    +0.062 C 
BRANCH  15  17
ATOM     17  O   UNL     1      -3.273   5.935  -2.243  0.00  0.00    -0.449 OA
BRANCH  17  18
ATOM     18  C   UNL     1      -3.217   6.771  -3.299  0.00  0.00    +0.340 C 
ATOM     19  O   UNL     1      -2.141   7.096  -3.760  0.00  0.00    -0.245 OA
BRANCH  18  20
ATOM     20  C   UNL     1      -4.462   7.292  -3.893  0.00  0.00    +0.063 A 
ATOM     21  C   UNL     1      -5.701   6.915  -3.368  0.00  0.00    +0.019 A 
ATOM     22  C   UNL     1      -6.863   7.407  -3.921  0.00  0.00    +0.050 A 
ATOM     23  C   UNL     1      -6.809   8.268  -5.009  0.00  0.00    +0.166 A 
ATOM     24  C   UNL     1      -5.575   8.645  -5.542  0.00  0.00    +0.167 A 
ATOM     25  C   UNL     1      -4.407   8.160  -4.988  0.00  0.00    +0.064 A 
ATOM     26  O   UNL     1      -5.794   9.487  -6.594  0.00  0.00    -0.453 OA
ATOM     27  C   UNL     1      -7.175   9.299  -6.955  0.00  0.00    +0.466 C 
ATOM     28  O   UNL     1      -7.796   8.876  -5.727  0.00  0.00    -0.453 OA
ENDBRANCH  18  20
ENDBRANCH  17  18
ENDBRANCH  15  17
ENDBRANCH   2  15
TORSDOF 6
