REMARK  Name = ZINC21998630
REMARK  11 active torsions:
REMARK  status: ('A' for Active; 'I' for Inactive)
REMARK    1  A    between atoms: C_1  and  C_2
REMARK    2  A    between atoms: C_2  and  C_3
REMARK    3  A    between atoms: C_3  and  C_4
REMARK    4  A    between atoms: C_4  and  N_5
REMARK    5  A    between atoms: C_9  and  S_28
REMARK    6  A    between atoms: C_13  and  C_14
REMARK    7  A    between atoms: C_14  and  O_15
REMARK    8  A    between atoms: O_15  and  C_16
REMARK    9  A    between atoms: C_16  and  C_18
REMARK   10  A    between atoms: C_21  and  C_23
REMARK   11  A    between atoms: S_28  and  N_31
REMARK                            x       y       z     vdW  Elec       q    Type
REMARK                         _______ _______ _______ _____ _____    ______ ____
ROOT
ATOM      1  N   UNL     1      -1.499   5.321  -4.672  0.00  0.00    -0.325 N 
ATOM      2  C   UNL     1      -1.599   4.316  -3.730  0.00  0.00    +0.069 A 
ATOM      3  C   UNL     1      -2.087   3.017  -3.751  0.00  0.00    +0.030 A 
ATOM      4  C   UNL     1      -2.039   2.251  -2.605  0.00  0.00    +0.030 A 
ATOM      5  C   UNL     1      -1.507   2.771  -1.433  0.00  0.00    +0.107 A 
ATOM      6  C   UNL     1      -1.027   4.049  -1.393  0.00  0.00    +0.058 A 
ATOM      7  C   UNL     1      -1.060   4.842  -2.544  0.00  0.00    +0.091 A 
ATOM      8  N   UNL     1      -0.667   6.113  -2.817  0.00  0.00    -0.229 NA
ATOM      9  C   UNL     1      -0.924   6.392  -4.061  0.00  0.00    +0.149 A 
ENDROOT
BRANCH   5  10
ATOM     10  S   UNL     1      -1.456   1.774   0.019  0.00  0.00    +0.056 S 
ATOM     11  O   UNL     1      -2.472   0.792  -0.128  0.00  0.00    -0.153 OA
ATOM     12  O   UNL     1      -1.413   2.667   1.123  0.00  0.00    -0.153 OA
BRANCH  10  13
ATOM     13  N   UNL     1      -0.011   0.966   0.007  0.00  0.00    -0.204 NA
ATOM     14  H   UNL     1       0.060   0.329   0.902  0.00  0.00    +0.144 HD
ATOM     15  H   UNL     1       0.815   1.692   0.007  0.00  0.00    +0.144 HD
ENDBRANCH  10  13
ENDBRANCH   5  10
BRANCH   1  16
ATOM     16  C   UNL     1      -1.931   5.247  -6.070  0.00  0.00    +0.123 C 
BRANCH  16  17
ATOM     17  C   UNL     1      -3.386   5.705  -6.178  0.00  0.00    +0.021 C 
BRANCH  17  19
ATOM     18  C   UNL     1      -5.293   6.086  -7.747  0.00  0.00    +0.004 C 
ATOM     19  C   UNL     1      -3.838   5.628  -7.638  0.00  0.00    -0.002 C 
ENDBRANCH  17  19
ENDBRANCH  16  17
ENDBRANCH   1  16
BRANCH   9  20
ATOM     20  C   UNL     1      -0.627   7.710  -4.729  0.00  0.00    +0.306 C 
BRANCH  20  21
ATOM     21  O   UNL     1      -1.770   8.594  -4.585  0.00  0.00    -0.452 OA
BRANCH  21  22
ATOM     22  C   UNL     1      -1.667   9.822  -5.132  0.00  0.00    +0.359 C 
ATOM     23  O   UNL     1      -0.649  10.145  -5.712  0.00  0.00    -0.243 OA
BRANCH  22  24
ATOM     24  C   UNL     1      -2.786  10.771  -5.025  0.00  0.00    +0.155 A 
ATOM     25  C   UNL     1      -2.690  12.025  -5.573  0.00  0.00    +0.082 A 
ATOM     26  S   UNL     1      -4.238  12.702  -5.172  0.00  0.00    -0.075 S 
ATOM     27  C   UNL     1      -4.902  11.290  -4.303  0.00  0.00    +0.110 A 
ATOM     28  N   UNL     1      -3.906  10.427  -4.391  0.00  0.00    -0.232 NA
BRANCH  27  29
ATOM     29  C   UNL     1      -6.220  11.130  -3.655  0.00  0.00    +0.014 A 
ATOM     30  C   UNL     1      -7.154  12.166  -3.666  0.00  0.00    +0.018 A 
ATOM     31  C   UNL     1      -8.339  11.950  -3.055  0.00  0.00    +0.046 A 
ATOM     32  S   UNL     1      -8.160  10.281  -2.453  0.00  0.00    -0.104 S 
ATOM     33  C   UNL     1      -6.559   9.960  -3.035  0.00  0.00    +0.055 A 
ENDBRANCH  27  29
ENDBRANCH  22  24
ENDBRANCH  21  22
ENDBRANCH  20  21
ENDBRANCH   9  20
TORSDOF 10
