REMARK  Name = ZINC53067396
REMARK  5 active torsions:
REMARK  status: ('A' for Active; 'I' for Inactive)
REMARK    1  A    between atoms: C_1  and  C_2
REMARK    2  A    between atoms: C_4  and  C_14
REMARK    3  A    between atoms: N_16  and  C_17
REMARK    4  A    between atoms: C_17  and  C_22
REMARK    5  A    between atoms: C_22  and  O_23
REMARK                            x       y       z     vdW  Elec       q    Type
REMARK                         _______ _______ _______ _____ _____    ______ ____
ROOT
ATOM      1  C   UNL     1       1.856   0.189  -1.385  0.00  0.00    +0.258 C 
ATOM      2  O   UNL     1       2.719  -0.652  -1.246  0.00  0.00    -0.272 OA
ATOM      3  N   UNL     1       2.197   1.482  -1.559  0.00  0.00    -0.304 N 
ATOM      4  H   UNL     1       1.509   2.165  -1.589  0.00  0.00    +0.149 HD
ENDROOT
BRANCH   1   7
ATOM      5  C   UNL     1      -0.147   1.836  -0.026  0.00  0.00    +0.056 C 
ATOM      6  C   UNL     1      -0.258   0.311  -0.080  0.00  0.00    +0.220 C 
ATOM      7  C   UNL     1       0.403  -0.210  -1.363  0.00  0.00    +0.299 C 
ATOM      8  O   UNL     1       0.294  -1.638  -1.375  0.00  0.00    -0.472 OA
ATOM      9  C   UNL     1       0.613  -2.285  -0.221  0.00  0.00    +0.163 A 
ATOM     10  C   UNL     1       0.881  -3.646  -0.256  0.00  0.00    +0.049 A 
ATOM     11  C   UNL     1       1.203  -4.318   0.908  0.00  0.00    +0.004 A 
ATOM     12  C   UNL     1       1.259  -3.636   2.109  0.00  0.00    +0.004 A 
ATOM     13  C   UNL     1       0.995  -2.280   2.151  0.00  0.00    +0.049 A 
ATOM     14  C   UNL     1       0.673  -1.599   0.986  0.00  0.00    +0.163 A 
ATOM     15  O   UNL     1       0.422  -0.263   1.041  0.00  0.00    -0.481 OA
ENDBRANCH   1   7
BRANCH   3  16
ATOM     16  C   UNL     1       3.606   1.854  -1.704  0.00  0.00    +0.058 C 
ATOM     17  C   UNL     1       4.414   1.416  -0.457  0.00  0.00    +0.028 C 
ATOM     18  C   UNL     1       4.108   2.542   0.562  0.00  0.00    +0.002 C 
ATOM     19  C   UNL     1       4.078   3.826  -0.292  0.00  0.00    +0.002 C 
ATOM     20  C   UNL     1       3.759   3.389  -1.733  0.00  0.00    +0.028 C 
BRANCH  16  21
ATOM     21  C   UNL     1       4.196   1.234  -2.972  0.00  0.00    +0.181 C 
BRANCH  21  22
ATOM     22  O   UNL     1       4.024  -0.184  -2.932  0.00  0.00    -0.393 OA
ATOM     23  H   UNL     1       4.376  -0.645  -3.707  0.00  0.00    +0.209 HD
ENDBRANCH  21  22
ENDBRANCH  16  21
ENDBRANCH   3  16
TORSDOF 4
