REMARK  Name = ZINC01115405
REMARK  12 active torsions:
REMARK  status: ('A' for Active; 'I' for Inactive)
REMARK    1  A    between atoms: C_1  and  C_2
REMARK    2  A    between atoms: C_2  and  O_3
REMARK    3  A    between atoms: O_3  and  C_4
REMARK    4  A    between atoms: C_4  and  C_6
REMARK    5  A    between atoms: C_7  and  C_29
REMARK    6  A    between atoms: C_8  and  C_26
REMARK    7  A    between atoms: C_10  and  N_11
REMARK    8  A    between atoms: C_12  and  C_14
REMARK    9  A    between atoms: C_15  and  C_25
REMARK   10  A    between atoms: C_18  and  C_24
REMARK   11  A    between atoms: C_19  and  C_23
REMARK   12  A    between atoms: C_26  and  C_28
REMARK                            x       y       z     vdW  Elec       q    Type
REMARK                         _______ _______ _______ _____ _____    ______ ____
ROOT
ATOM      1  N   UNL     1       1.447   3.409   0.007  0.00  0.00    -0.273 N 
ATOM      2  C   UNL     1       2.712   3.874  -0.003  0.00  0.00    +0.284 C 
ATOM      3  O   UNL     1       3.647   3.096  -0.016  0.00  0.00    -0.266 OA
ATOM      4  H   UNL     1       0.702   4.030   0.018  0.00  0.00    +0.156 HD
ENDROOT
BRANCH   2   5
ATOM      5  C   UNL     1       2.962   5.322   0.003  0.00  0.00    +0.194 A 
ATOM      6  C   UNL     1       4.190   5.903  -0.000  0.00  0.00    +0.008 A 
ATOM      7  C   UNL     1       3.955   7.346   0.005  0.00  0.00    +0.024 A 
ATOM      8  C   UNL     1       4.787   8.469   0.002  0.00  0.00    +0.015 A 
ATOM      9  C   UNL     1       4.237   9.719   0.014  0.00  0.00    -0.047 A 
ATOM     10  C   UNL     1       2.858   9.882   0.029  0.00  0.00    -0.044 A 
ATOM     11  C   UNL     1       2.020   8.788   0.032  0.00  0.00    +0.050 A 
ATOM     12  C   UNL     1       2.556   7.505   0.020  0.00  0.00    +0.136 A 
ATOM     13  O   UNL     1       2.007   6.275   0.018  0.00  0.00    -0.450 OA
ATOM     14  C   UNL     1       2.271  11.270   0.042  0.00  0.00    +0.044 C 
ATOM     15  C   UNL     1       5.133  10.931   0.012  0.00  0.00    +0.044 C 
ATOM     16  C   UNL     1       5.524   5.203  -0.010  0.00  0.00    +0.048 C 
ENDBRANCH   2   5
BRANCH   1  21
ATOM     17  C   UNL     1      -0.017   1.379   0.010  0.00  0.00    +0.091 A 
ATOM     18  C   UNL     1       0.002  -0.004   0.002  0.00  0.00    -0.017 A 
ATOM     19  C   UNL     1       1.240  -0.623  -0.013  0.00  0.00    +0.060 A 
ATOM     20  S   UNL     1       2.367   0.758  -0.017  0.00  0.00    -0.069 S 
ATOM     21  C   UNL     1       1.213   2.051   0.002  0.00  0.00    +0.087 A 
ATOM     22  C   UNL     1      -1.274  -0.805   0.010  0.00  0.00    +0.046 C 
BRANCH  19  23
ATOM     23  C   UNL     1       1.536  -2.002  -0.024  0.00  0.00    +0.167 C 
ATOM     24  O   UNL     1       0.634  -2.816  -0.021  0.00  0.00    -0.292 OA
ATOM     25  C   UNL     1       2.970  -2.465  -0.040  0.00  0.00    +0.092 C 
ENDBRANCH  19  23
BRANCH  17  26
ATOM     26  C   UNL     1      -1.284   2.120   0.020  0.00  0.00    +0.342 C 
ATOM     27  O   UNL     1      -1.804   2.421   1.077  0.00  0.00    -0.245 OA
BRANCH  26  28
ATOM     28  O   UNL     1      -1.872   2.466  -1.143  0.00  0.00    -0.461 OA
BRANCH  28  30
ATOM     29  C   UNL     1      -3.635   3.499  -2.467  0.00  0.00    +0.048 C 
ATOM     30  C   UNL     1      -3.123   3.197  -1.057  0.00  0.00    +0.229 C 
ENDBRANCH  28  30
ENDBRANCH  26  28
ENDBRANCH  17  26
ENDBRANCH   1  21
TORSDOF 6
