REMARK  Name = ZINC20605927
REMARK  11 active torsions:
REMARK  status: ('A' for Active; 'I' for Inactive)
REMARK    1  A    between atoms: C_1  and  C_2
REMARK    2  A    between atoms: C_2  and  N_3
REMARK    3  A    between atoms: C_4  and  C_32
REMARK    4  A    between atoms: C_5  and  C_8
REMARK    5  A    between atoms: C_8  and  C_10
REMARK    6  A    between atoms: C_8  and  N_11
REMARK    7  A    between atoms: C_12  and  C_14
REMARK    8  A    between atoms: C_14  and  N_15
REMARK    9  A    between atoms: C_18  and  C_20
REMARK   10  A    between atoms: C_21  and  C_28
REMARK   11  A    between atoms: C_23  and  C_25
REMARK                            x       y       z     vdW  Elec       q    Type
REMARK                         _______ _______ _______ _____ _____    ______ ____
ROOT
ATOM      1  N   UNL     1      -6.758   3.683   6.146  0.00  0.00    -0.237 N 
ATOM      2  C   UNL     1      -7.901   3.881   5.420  0.00  0.00    +0.160 A 
ATOM      3  C   UNL     1      -8.978   3.552   6.267  0.00  0.00    +0.053 A 
ATOM      4  C   UNL     1      -8.393   3.156   7.543  0.00  0.00    +0.070 A 
ATOM      5  N   UNL     1      -7.099   3.246   7.430  0.00  0.00    -0.174 NA
ATOM      6  C   UNL     1      -9.150   2.720   8.771  0.00  0.00    +0.068 C 
ATOM      7  C   UNL     1     -10.287   3.658   5.783  0.00  0.00    +0.069 A 
ATOM      8  C   UNL     1     -10.466   4.077   4.490  0.00  0.00    +0.036 A 
ATOM      9  C   UNL     1      -9.361   4.380   3.707  0.00  0.00    +0.047 A 
ATOM     10  N   UNL     1      -8.136   4.276   4.175  0.00  0.00    -0.232 NA
ENDROOT
BRANCH   7  11
ATOM     11  C   UNL     1     -11.466   3.321   6.659  0.00  0.00    +0.418 C 
ATOM     12  F   UNL     1     -12.650   3.510   5.939  0.00  0.00    -0.166 F 
ATOM     13  F   UNL     1     -11.377   1.986   7.068  0.00  0.00    -0.166 F 
ATOM     14  F   UNL     1     -11.465   4.154   7.783  0.00  0.00    -0.166 F 
ENDBRANCH   7  11
BRANCH   9  15
ATOM     15  C   UNL     1      -9.570   4.839   2.287  0.00  0.00    +0.038 C 
ATOM     16  C   UNL     1     -10.943   4.590   1.659  0.00  0.00    +0.010 C 
ATOM     17  C   UNL     1      -9.735   3.761   1.213  0.00  0.00    +0.010 C 
ENDBRANCH   9  15
BRANCH   1  18
ATOM     18  C   UNL     1      -5.394   3.899   5.658  0.00  0.00    +0.241 C 
BRANCH  18  20
ATOM     19  N   UNL     1      -3.627   2.588   4.528  0.00  0.00    -0.307 N 
ATOM     20  C   UNL     1      -4.871   2.625   5.046  0.00  0.00    +0.235 C 
ATOM     21  O   UNL     1      -5.569   1.634   5.020  0.00  0.00    -0.274 OA
ATOM     22  H   UNL     1      -2.994   3.487   4.551  0.00  0.00    +0.149 HD
BRANCH  19  23
ATOM     23  C   UNL     1      -3.119   1.349   3.933  0.00  0.00    +0.103 C 
ATOM     24  C   UNL     1      -2.530   0.461   5.030  0.00  0.00    +0.033 C 
BRANCH  23  27
ATOM     25  N   UNL     1      -0.698   1.558   1.213  0.00  0.00    -0.269 N 
ATOM     26  C   UNL     1      -1.688   0.915   1.868  0.00  0.00    +0.041 A 
ATOM     27  C   UNL     1      -2.048   1.679   2.925  0.00  0.00    +0.013 A 
ATOM     28  C   UNL     1      -1.252   2.829   2.916  0.00  0.00    +0.140 A 
ATOM     29  N   UNL     1      -0.439   2.755   1.894  0.00  0.00    -0.179 NA
ATOM     30  C   UNL     1      -2.285  -0.416   1.489  0.00  0.00    +0.065 C 
BRANCH  25  32
ATOM     31  C   UNL     1      -0.753   1.593  -1.232  0.00  0.00    +0.029 C 
ATOM     32  C   UNL     1      -0.013   1.086   0.008  0.00  0.00    +0.140 C 
ENDBRANCH  25  32
ENDBRANCH  23  27
ENDBRANCH  19  23
ENDBRANCH  18  20
ENDBRANCH   1  18
TORSDOF 7
