REMARK  Name = ZINC09308846
REMARK  11 active torsions:
REMARK  status: ('A' for Active; 'I' for Inactive)
REMARK    1  A    between atoms: C_1  and  C_2
REMARK    2  A    between atoms: C_2  and  C_3
REMARK    3  A    between atoms: C_3  and  O_4
REMARK    4  A    between atoms: O_4  and  C_5
REMARK    5  A    between atoms: C_8  and  C_11
REMARK    6  A    between atoms: C_18  and  N_39
REMARK    7  A    between atoms: C_19  and  C_37
REMARK    8  A    between atoms: C_20  and  C_22
REMARK    9  A    between atoms: C_25  and  O_28
REMARK   10  A    between atoms: O_28  and  C_29
REMARK   11  A    between atoms: C_29  and  C_30
REMARK                            x       y       z     vdW  Elec       q    Type
REMARK                         _______ _______ _______ _____ _____    ______ ____
ROOT
ATOM      1  C   UNL     1       3.229  -4.415  -5.630  0.00  0.00    +0.074 A 
ATOM      2  C   UNL     1       2.747  -5.463  -6.340  0.00  0.00    +0.054 A 
ATOM      3  C   UNL     1       3.682  -5.777  -7.347  0.00  0.00    +0.245 A 
ATOM      4  N   UNL     1       4.684  -4.950  -7.247  0.00  0.00    -0.135 NA
ATOM      5  N   UNL     1       4.433  -4.074  -6.180  0.00  0.00    -0.273 N 
ATOM      6  H   UNL     1       5.012  -3.354  -5.884  0.00  0.00    +0.189 HD
ATOM      7  O   UNL     1       3.479  -6.794  -8.227  0.00  0.00    -0.421 OA
ATOM      8  C   UNL     1       2.493  -7.670  -7.948  0.00  0.00    +0.201 C 
ATOM      9  C   UNL     1       1.536  -7.473  -7.016  0.00  0.00    +0.098 C 
ATOM     10  C   UNL     1       1.459  -6.228  -6.170  0.00  0.00    +0.102 C 
ENDROOT
BRANCH   1  14
ATOM     11  C   UNL     1       1.341  -2.529  -2.322  0.00  0.00    +0.121 A 
ATOM     12  C   UNL     1       1.908  -1.758  -3.328  0.00  0.00    +0.046 A 
ATOM     13  C   UNL     1       2.521  -2.366  -4.403  0.00  0.00    +0.013 A 
ATOM     14  C   UNL     1       2.572  -3.759  -4.478  0.00  0.00    +0.000 A 
ATOM     15  C   UNL     1       2.002  -4.530  -3.465  0.00  0.00    +0.013 A 
ATOM     16  C   UNL     1       1.395  -3.915  -2.391  0.00  0.00    +0.046 A 
BRANCH  11  17
ATOM     17  O   UNL     1       0.738  -1.926  -1.265  0.00  0.00    -0.492 OA
BRANCH  17  18
ATOM     18  C   UNL     1       0.718  -0.497  -1.257  0.00  0.00    +0.229 C 
BRANCH  18  20
ATOM     19  C   UNL     1      -0.019   1.526   0.010  0.00  0.00    +0.007 C 
ATOM     20  C   UNL     1       0.002  -0.004   0.002  0.00  0.00    +0.038 C 
ENDBRANCH  18  20
ENDBRANCH  17  18
ENDBRANCH  11  17
ENDBRANCH   1  14
BRANCH  10  21
ATOM     21  C   UNL     1       0.300  -5.377  -6.621  0.00  0.00    -0.034 A 
ATOM     22  C   UNL     1       0.241  -4.927  -7.926  0.00  0.00    +0.008 A 
ATOM     23  C   UNL     1      -0.821  -4.147  -8.342  0.00  0.00    +0.046 A 
ATOM     24  C   UNL     1      -1.829  -3.816  -7.449  0.00  0.00    +0.121 A 
ATOM     25  C   UNL     1      -1.768  -4.270  -6.139  0.00  0.00    +0.046 A 
ATOM     26  C   UNL     1      -0.707  -5.054  -5.729  0.00  0.00    +0.008 A 
BRANCH  24  27
ATOM     27  O   UNL     1      -2.874  -3.048  -7.855  0.00  0.00    -0.487 OA
BRANCH  27  28
ATOM     28  C   UNL     1      -3.875  -2.748  -6.881  0.00  0.00    +0.264 C 
BRANCH  28  29
ATOM     29  C   UNL     1      -4.947  -1.893  -7.509  0.00  0.00    -0.010 A 
ATOM     30  C   UNL     1      -4.832  -0.516  -7.488  0.00  0.00    +0.010 A 
ATOM     31  C   UNL     1      -5.814   0.268  -8.064  0.00  0.00    +0.039 A 
ATOM     32  C   UNL     1      -6.912  -0.327  -8.662  0.00  0.00    +0.123 A 
ATOM     33  C   UNL     1      -7.025  -1.706  -8.683  0.00  0.00    +0.039 A 
ATOM     34  C   UNL     1      -6.040  -2.489  -8.111  0.00  0.00    +0.010 A 
ATOM     35  F   UNL     1      -7.872   0.439  -9.226  0.00  0.00    -0.205 F 
ENDBRANCH  28  29
ENDBRANCH  27  28
ENDBRANCH  24  27
ENDBRANCH  10  21
BRANCH   8  36
ATOM     36  N   UNL     1       2.459  -8.842  -8.660  0.00  0.00    -0.328 N 
ATOM     37  H   UNL     1       3.130  -9.018  -9.338  0.00  0.00    +0.145 HD
ATOM     38  H   UNL     1       1.764  -9.496  -8.486  0.00  0.00    +0.145 HD
ENDBRANCH   8  36
BRANCH   9  39
ATOM     39  C   UNL     1       0.551  -8.494  -6.822  0.00  0.00    +0.101 C 
ATOM     40  N   UNL     1      -0.231  -9.303  -6.668  0.00  0.00    -0.191 NA
ENDBRANCH   9  39
TORSDOF 10
