REMARK  Name = ZINC04192548
REMARK  8 active torsions:
REMARK  status: ('A' for Active; 'I' for Inactive)
REMARK    1  A    between atoms: C_1  and  C_2
REMARK    2  A    between atoms: C_2  and  C_4
REMARK    3  A    between atoms: C_2  and  S_10
REMARK    4  A    between atoms: S_10  and  C_11
REMARK    5  A    between atoms: N_13  and  C_20
REMARK    6  A    between atoms: C_20  and  C_21
REMARK    7  A    between atoms: C_21  and  N_22
REMARK    8  A    between atoms: C_23  and  C_25
REMARK                            x       y       z     vdW  Elec       q    Type
REMARK                         _______ _______ _______ _____ _____    ______ ____
ROOT
ATOM      1  C   UNL     1       9.290   1.890   0.692  0.00  0.00    +0.034 A 
ATOM      2  C   UNL     1       8.074   2.338   1.060  0.00  0.00    +0.101 A 
ATOM      3  N   UNL     1       7.281   2.499  -0.053  0.00  0.00    -0.344 N 
ATOM      4  C   UNL     1       7.989   2.158  -1.184  0.00  0.00    +0.050 A 
ATOM      5  C   UNL     1       9.274   1.762  -0.770  0.00  0.00    +0.013 A 
ATOM      6  C   UNL     1      10.217   1.359  -1.717  0.00  0.00    +0.011 A 
ATOM      7  C   UNL     1       9.887   1.351  -3.043  0.00  0.00    +0.001 A 
ATOM      8  C   UNL     1       8.620   1.739  -3.456  0.00  0.00    +0.002 A 
ATOM      9  C   UNL     1       7.674   2.141  -2.539  0.00  0.00    +0.026 A 
ENDROOT
BRANCH   1  10
ATOM     10  S   UNL     1      10.643   1.531   1.762  0.00  0.00    -0.115 S 
BRANCH  10  12
ATOM     11  C   UNL     1       8.870   0.924   3.754  0.00  0.00    +0.024 C 
ATOM     12  C   UNL     1      10.002   1.897   3.419  0.00  0.00    +0.078 C 
BRANCH  12  13
ATOM     13  C   UNL     1      11.109   1.746   4.430  0.00  0.00    -0.034 A 
ATOM     14  C   UNL     1      11.744   0.528   4.584  0.00  0.00    +0.005 A 
ATOM     15  C   UNL     1      12.762   0.391   5.509  0.00  0.00    +0.000 A 
ATOM     16  C   UNL     1      13.139   1.470   6.286  0.00  0.00    +0.000 A 
ATOM     17  C   UNL     1      12.502   2.688   6.135  0.00  0.00    +0.000 A 
ATOM     18  C   UNL     1      11.486   2.825   5.207  0.00  0.00    +0.005 A 
ENDBRANCH  12  13
ENDBRANCH  10  12
ENDBRANCH   1  10
BRANCH   3  19
ATOM     19  C   UNL     1       5.894   2.968  -0.038  0.00  0.00    +0.140 C 
BRANCH  19  20
ATOM     20  C   UNL     1       4.948   1.766  -0.035  0.00  0.00    +0.126 C 
BRANCH  20  21
ATOM     21  N   UNL     1       3.561   2.235  -0.020  0.00  0.00    -0.309 N 
ATOM     22  C   UNL     1       2.548   1.345  -0.015  0.00  0.00    +0.251 C 
ATOM     23  O   UNL     1       2.787   0.152  -0.023  0.00  0.00    -0.270 OA
ATOM     24  H   UNL     1       3.371   3.186  -0.013  0.00  0.00    +0.149 HD
BRANCH  22  25
ATOM     25  C   UNL     1       1.160   1.815   0.001  0.00  0.00    +0.074 A 
ATOM     26  C   UNL     1      -0.013   1.076   0.008  0.00  0.00    +0.021 A 
ATOM     27  C   UNL     1      -1.193   1.776   0.017  0.00  0.00    +0.008 A 
ATOM     28  C   UNL     1      -1.159   3.135   0.030  0.00  0.00    +0.046 A 
ATOM     29  S   UNL     1       0.539   3.487   0.016  0.00  0.00    -0.092 S 
ENDBRANCH  22  25
ENDBRANCH  20  21
ENDBRANCH  19  20
ENDBRANCH   3  19
TORSDOF 7
