REMARK  Name = ZINC12891728
REMARK  7 active torsions:
REMARK  status: ('A' for Active; 'I' for Inactive)
REMARK    1  A    between atoms: C_1  and  O_2
REMARK    2  A    between atoms: O_2  and  C_3
REMARK    3  A    between atoms: C_6  and  N_9
REMARK    4  A    between atoms: C_10  and  C_12
REMARK    5  A    between atoms: N_23  and  C_25
REMARK    6  A    between atoms: C_25  and  C_26
REMARK    7  A    between atoms: C_26  and  C_27
REMARK                            x       y       z     vdW  Elec       q    Type
REMARK                         _______ _______ _______ _____ _____    ______ ____
ROOT
ATOM      1  C   UNL     1      -4.888   0.916   0.245  0.00  0.00    +0.123 C 
ATOM      2  C   UNL     1      -5.131   0.026  -1.035  0.00  0.00    +0.155 C 
ATOM      3  C   UNL     1      -6.178  -0.977  -0.538  0.00  0.00    +0.004 C 
ATOM      4  C   UNL     1      -7.298  -0.277  -0.426  0.00  0.00    +0.008 C 
ATOM      5  C   UNL     1      -6.959   1.122  -0.907  0.00  0.00    +0.116 C 
ATOM      6  C   UNL     1      -6.081   1.837   0.198  0.00  0.00    +0.127 C 
ATOM      7  C   UNL     1      -7.094   2.033   1.251  0.00  0.00    +0.223 C 
ATOM      8  O   UNL     1      -6.907   1.995   2.449  0.00  0.00    -0.275 OA
ATOM      9  N   UNL     1      -8.290   2.266   0.617  0.00  0.00    -0.298 N 
ATOM     10  C   UNL     1      -8.129   2.054  -0.856  0.00  0.00    +0.147 C 
ATOM     11  O   UNL     1      -5.964   0.921  -1.884  0.00  0.00    -0.359 OA
ENDROOT
BRANCH   1  13
ATOM     12  N   UNL     1      -2.428   1.037   0.019  0.00  0.00    -0.285 N 
ATOM     13  C   UNL     1      -3.602   1.691   0.130  0.00  0.00    +0.224 C 
ATOM     14  O   UNL     1      -3.621   2.904   0.137  0.00  0.00    -0.275 OA
ATOM     15  H   UNL     1      -2.418   0.071  -0.063  0.00  0.00    +0.155 HD
BRANCH  12  19
ATOM     16  C   UNL     1       1.158   3.165   0.036  0.00  0.00    +0.120 A 
ATOM     17  C   UNL     1       0.082   3.614   0.787  0.00  0.00    +0.047 A 
ATOM     18  C   UNL     1      -1.107   2.912   0.779  0.00  0.00    +0.027 A 
ATOM     19  C   UNL     1      -1.224   1.753   0.023  0.00  0.00    +0.034 A 
ATOM     20  C   UNL     1      -0.148   1.308  -0.734  0.00  0.00    +0.027 A 
ATOM     21  C   UNL     1       1.040   2.010  -0.724  0.00  0.00    +0.047 A 
BRANCH  16  23
ATOM     22  C   UNL     1       3.395   3.336  -0.752  0.00  0.00    +0.277 C 
ATOM     23  O   UNL     1       2.329   3.856   0.045  0.00  0.00    -0.495 OA
ENDBRANCH  16  23
ENDBRANCH  12  19
ENDBRANCH   1  13
BRANCH   9  24
ATOM     24  C   UNL     1      -9.535   2.663   1.282  0.00  0.00    +0.112 C 
BRANCH  24  25
ATOM     25  C   UNL     1     -10.324   1.412   1.674  0.00  0.00    +0.056 C 
BRANCH  25  26
ATOM     26  C   UNL     1     -11.604   1.820   2.358  0.00  0.00    -0.021 A 
ATOM     27  C   UNL     1     -11.805   1.922   3.681  0.00  0.00    +0.087 A 
ATOM     28  N   UNL     1     -13.090   2.320   3.928  0.00  0.00    -0.360 N 
ATOM     29  H   UNL     1     -13.469   2.464   4.809  0.00  0.00    +0.165 HD
ATOM     30  C   UNL     1     -13.767   2.481   2.740  0.00  0.00    +0.047 A 
ATOM     31  C   UNL     1     -12.866   2.175   1.704  0.00  0.00    +0.003 A 
ATOM     32  C   UNL     1     -13.281   2.252   0.374  0.00  0.00    +0.010 A 
ATOM     33  C   UNL     1     -14.563   2.625   0.084  0.00  0.00    +0.001 A 
ATOM     34  C   UNL     1     -15.456   2.929   1.102  0.00  0.00    +0.002 A 
ATOM     35  C   UNL     1     -15.068   2.859   2.422  0.00  0.00    +0.026 A 
ENDBRANCH  25  26
ENDBRANCH  24  25
ENDBRANCH   9  24
TORSDOF 6
