REMARK  Name = ZINC19645922
REMARK  7 active torsions:
REMARK  status: ('A' for Active; 'I' for Inactive)
REMARK    1  A    between atoms: C_1  and  C_2
REMARK    2  A    between atoms: C_5  and  C_8
REMARK    3  A    between atoms: C_9  and  C_14
REMARK    4  A    between atoms: N_15  and  N_16
REMARK    5  A    between atoms: C_17  and  C_19
REMARK    6  A    between atoms: C_21  and  C_29
REMARK    7  A    between atoms: C_34  and  O_35
REMARK                            x       y       z     vdW  Elec       q    Type
REMARK                         _______ _______ _______ _____ _____    ______ ____
ROOT
ATOM      1  N   UNL     1       1.529   6.628  -0.012  0.00  0.00    -0.203 N 
ATOM      2  C   UNL     1       0.918   7.823  -0.129  0.00  0.00    +0.264 C 
ATOM      3  O   UNL     1      -0.291   7.879  -0.243  0.00  0.00    -0.268 OA
ATOM      4  H   UNL     1       2.623   6.577   0.091  0.00  0.00    +0.178 HD
ENDROOT
BRANCH   2   5
ATOM      5  C   UNL     1       1.717   9.066  -0.119  0.00  0.00    +0.050 A 
ATOM      6  C   UNL     1       3.105   9.033  -0.122  0.00  0.00    +0.042 A 
ATOM      7  C   UNL     1       3.824  10.238  -0.113  0.00  0.00    +0.076 A 
ATOM      8  N   UNL     1       3.227  11.412  -0.100  0.00  0.00    -0.247 NA
ATOM      9  C   UNL     1       1.899  11.538  -0.096  0.00  0.00    +0.072 A 
ATOM     10  C   UNL     1       1.078  10.383  -0.111  0.00  0.00    +0.013 A 
ATOM     11  C   UNL     1      -0.315  10.519  -0.099  0.00  0.00    +0.011 A 
ATOM     12  C   UNL     1      -0.870  11.764  -0.087  0.00  0.00    +0.001 A 
ATOM     13  C   UNL     1      -0.067  12.903  -0.078  0.00  0.00    +0.002 A 
ATOM     14  C   UNL     1       1.290  12.806  -0.082  0.00  0.00    +0.028 A 
BRANCH   7  15
ATOM     15  C   UNL     1       5.304  10.187  -0.117  0.00  0.00    +0.042 A 
ATOM     16  C   UNL     1       5.963   8.959  -0.130  0.00  0.00    +0.013 A 
ATOM     17  C   UNL     1       7.342   8.918  -0.134  0.00  0.00    +0.001 A 
ATOM     18  C   UNL     1       8.075  10.092  -0.125  0.00  0.00    +0.004 A 
ATOM     19  C   UNL     1       7.433  11.315  -0.112  0.00  0.00    +0.046 A 
ATOM     20  C   UNL     1       6.048  11.372  -0.113  0.00  0.00    +0.126 A 
BRANCH  20  21
ATOM     21  O   UNL     1       5.415  12.574  -0.105  0.00  0.00    -0.506 OA
ATOM     22  H   UNL     1       6.002  13.504  -0.102  0.00  0.00    +0.292 HD
ENDBRANCH  20  21
ENDBRANCH   7  15
ENDBRANCH   2   5
BRANCH   1  24
ATOM     23  C   UNL     1       1.361   4.298   0.091  0.00  0.00    +0.142 C 
ATOM     24  N   UNL     1       0.772   5.449  -0.021  0.00  0.00    -0.187 NA
BRANCH  23  26
ATOM     25  C   UNL     1      -0.877   2.946  -0.157  0.00  0.00    +0.101 A 
ATOM     26  C   UNL     1       0.564   3.058   0.082  0.00  0.00    +0.040 A 
ATOM     27  C   UNL     1       1.025   1.788   0.294  0.00  0.00    +0.115 A 
ATOM     28  N   UNL     1      -0.019   0.944   0.200  0.00  0.00    -0.284 N 
ATOM     29  H   UNL     1       0.132  -0.136   0.343  0.00  0.00    +0.188 HD
ATOM     30  N   UNL     1      -1.181   1.669  -0.083  0.00  0.00    -0.173 NA
BRANCH  25  35
ATOM     31  C   UNL     1      -4.518   7.275  -1.239  0.00  0.00    +0.044 C 
ATOM     32  C   UNL     1      -3.565   6.142  -0.956  0.00  0.00    -0.050 A 
ATOM     33  C   UNL     1      -2.349   6.084  -1.612  0.00  0.00    +0.004 A 
ATOM     34  C   UNL     1      -1.472   5.049  -1.357  0.00  0.00    +0.010 A 
ATOM     35  C   UNL     1      -1.815   4.061  -0.435  0.00  0.00    +0.003 A 
ATOM     36  C   UNL     1      -3.044   4.121   0.219  0.00  0.00    +0.010 A 
ATOM     37  C   UNL     1      -3.910   5.164  -0.040  0.00  0.00    +0.004 A 
ENDBRANCH  25  35
ENDBRANCH  23  26
ENDBRANCH   1  24
TORSDOF 6
