REMARK  Name = ZINC12376900
REMARK  4 active torsions:
REMARK  status: ('A' for Active; 'I' for Inactive)
REMARK    1  A    between atoms: C_4  and  C_7
REMARK    2  A    between atoms: C_8  and  N_15
REMARK    3  A    between atoms: N_15  and  N_16
REMARK    4  A    between atoms: C_19  and  C_24
REMARK                            x       y       z     vdW  Elec       q    Type
REMARK                         _______ _______ _______ _____ _____    ______ ____
ROOT
ATOM      1  N   UNL     1       4.628   6.673   1.730  0.00  0.00    -0.194 N 
ATOM      2  C   UNL     1       3.399   6.276   1.265  0.00  0.00    +0.040 C 
ATOM      3  C   UNL     1       2.719   5.296   1.896  0.00  0.00    +0.022 C 
ATOM      4  C   UNL     1       3.312   4.646   3.125  0.00  0.00    +0.063 C 
ATOM      5  C   UNL     1       4.059   5.710   3.936  0.00  0.00    +0.111 C 
ATOM      6  C   UNL     1       4.981   6.465   3.012  0.00  0.00    +0.237 C 
ATOM      7  O   UNL     1       6.042   6.885   3.424  0.00  0.00    -0.274 OA
ATOM      8  C   UNL     1       1.465   4.861   1.436  0.00  0.00    +0.161 C 
ATOM      9  O   UNL     1       0.891   3.964   2.020  0.00  0.00    -0.292 OA
ATOM     10  C   UNL     1       0.823   5.492   0.229  0.00  0.00    +0.080 C 
ATOM     11  C   UNL     1       1.302   6.943   0.114  0.00  0.00    +0.014 C 
ATOM     12  C   UNL     1       2.831   6.949   0.041  0.00  0.00    +0.053 C 
ENDROOT
BRANCH   4  13
ATOM     13  C   UNL     1       2.210   4.053   3.964  0.00  0.00    -0.037 A 
ATOM     14  C   UNL     1       2.206   2.699   4.242  0.00  0.00    +0.004 A 
ATOM     15  C   UNL     1       1.195   2.153   5.012  0.00  0.00    +0.003 A 
ATOM     16  C   UNL     1       0.185   2.961   5.500  0.00  0.00    +0.038 A 
ATOM     17  C   UNL     1       0.191   4.318   5.226  0.00  0.00    +0.124 A 
ATOM     18  C   UNL     1       1.204   4.863   4.455  0.00  0.00    +0.042 A 
ATOM     19  F   UNL     1      -0.793   5.109   5.707  0.00  0.00    -0.205 F 
ENDBRANCH   4  13
BRANCH   1  20
ATOM     20  N   UNL     1       5.527   7.301   0.859  0.00  0.00    -0.255 N 
ATOM     21  H   UNL     1       5.384   8.225   0.598  0.00  0.00    +0.171 HD
BRANCH  20  23
ATOM     22  C   UNL     1       7.644   7.270  -0.440  0.00  0.00    +0.114 A 
ATOM     23  C   UNL     1       6.617   6.606   0.371  0.00  0.00    +0.078 A 
ATOM     24  C   UNL     1       6.786   5.255   0.633  0.00  0.00    +0.098 A 
ATOM     25  C   UNL     1       7.918   4.623   0.096  0.00  0.00    +0.267 A 
ATOM     26  O   UNL     1       8.104   3.433   0.298  0.00  0.00    -0.266 OA
ATOM     27  N   UNL     1       8.801   5.324  -0.635  0.00  0.00    -0.243 N 
ATOM     28  H   UNL     1       9.577   4.863  -0.991  0.00  0.00    +0.192 HD
ATOM     29  N   UNL     1       8.663   6.574  -0.883  0.00  0.00    -0.169 NA
BRANCH  22  33
ATOM     30  C   UNL     1       7.320  11.412  -1.342  0.00  0.00    +0.000 A 
ATOM     31  C   UNL     1       6.929  10.945  -0.101  0.00  0.00    +0.001 A 
ATOM     32  C   UNL     1       7.032   9.601   0.198  0.00  0.00    +0.010 A 
ATOM     33  C   UNL     1       7.531   8.714  -0.755  0.00  0.00    +0.004 A 
ATOM     34  C   UNL     1       7.929   9.192  -2.002  0.00  0.00    +0.010 A 
ATOM     35  C   UNL     1       7.817  10.537  -2.292  0.00  0.00    +0.001 A 
ENDBRANCH  22  33
ENDBRANCH  20  23
ENDBRANCH   1  20
TORSDOF 4
