REMARK  Name = ZINC44327625
REMARK  6 active torsions:
REMARK  status: ('A' for Active; 'I' for Inactive)
REMARK    1  A    between atoms: C_1  and  O_2
REMARK    2  A    between atoms: O_2  and  C_3
REMARK    3  A    between atoms: C_3  and  C_5
REMARK    4  A    between atoms: C_5  and  C_7
REMARK    5  A    between atoms: C_5  and  N_25
REMARK    6  A    between atoms: C_7  and  C_8
REMARK                            x       y       z     vdW  Elec       q    Type
REMARK                         _______ _______ _______ _____ _____    ______ ____
ROOT
ATOM      1  C   UNL     1      -0.666  -4.148  -1.587  0.00  0.00    +0.005 A 
ATOM      2  C   UNL     1      -0.124  -5.009  -2.637  0.00  0.00    -0.010 A 
ATOM      3  C   UNL     1       0.482  -4.734  -3.868  0.00  0.00    +0.009 A 
ATOM      4  C   UNL     1       0.906  -5.769  -4.671  0.00  0.00    +0.001 A 
ATOM      5  C   UNL     1       0.739  -7.088  -4.273  0.00  0.00    +0.001 A 
ATOM      6  C   UNL     1       0.144  -7.384  -3.064  0.00  0.00    +0.009 A 
ATOM      7  C   UNL     1      -0.291  -6.354  -2.236  0.00  0.00    -0.007 A 
ATOM      8  C   UNL     1      -0.947  -6.322  -0.918  0.00  0.00    +0.026 A 
ATOM      9  C   UNL     1      -1.356  -7.293  -0.049  0.00  0.00    +0.023 A 
ATOM     10  C   UNL     1      -1.988  -6.878   1.205  0.00  0.00    +0.018 A 
ATOM     11  C   UNL     1      -2.424  -7.835   2.130  0.00  0.00    +0.011 A 
ATOM     12  C   UNL     1      -3.012  -7.433   3.296  0.00  0.00    +0.001 A 
ATOM     13  C   UNL     1      -3.181  -6.083   3.570  0.00  0.00    +0.004 A 
ATOM     14  C   UNL     1      -2.759  -5.126   2.672  0.00  0.00    +0.047 A 
ATOM     15  C   UNL     1      -2.157  -5.509   1.479  0.00  0.00    +0.136 A 
ATOM     16  O   UNL     1      -1.743  -4.572   0.600  0.00  0.00    -0.455 OA
ATOM     17  C   UNL     1      -1.147  -4.906  -0.570  0.00  0.00    +0.140 A 
ENDROOT
BRANCH   1  18
ATOM     18  C   UNL     1      -0.682  -2.641  -1.627  0.00  0.00    +0.069 C 
BRANCH  18  19
ATOM     19  C   UNL     1       0.657  -2.104  -1.120  0.00  0.00    +0.165 C 
BRANCH  19  20
ATOM     20  N   UNL     1       1.727  -2.505  -2.043  0.00  0.00    -0.318 NA
ATOM     21  H   UNL     1       1.830  -3.509  -2.063  0.00  0.00    +0.119 HD
ATOM     22  H   UNL     1       1.562  -2.140  -2.969  0.00  0.00    +0.119 HD
ENDBRANCH  19  20
BRANCH  19  23
ATOM     23  C   UNL     1       0.598  -0.600  -1.043  0.00  0.00    +0.324 C 
ATOM     24  O   UNL     1       1.088   0.070  -1.921  0.00  0.00    -0.249 OA
BRANCH  23  26
ATOM     25  C   UNL     1      -0.017   1.425   0.010  0.00  0.00    +0.280 C 
ATOM     26  O   UNL     1       0.002  -0.004   0.002  0.00  0.00    -0.467 OA
ENDBRANCH  23  26
ENDBRANCH  19  23
ENDBRANCH  18  19
ENDBRANCH   1  18
TORSDOF 5
