REMARK  Name = ZINC02521980
REMARK  5 active torsions:
REMARK  status: ('A' for Active; 'I' for Inactive)
REMARK    1  A    between atoms: C_8  and  C_13
REMARK    2  A    between atoms: N_14  and  N_15
REMARK    3  A    between atoms: C_16  and  C_18
REMARK    4  A    between atoms: C_18  and  O_19
REMARK    5  A    between atoms: O_19  and  C_20
REMARK                            x       y       z     vdW  Elec       q    Type
REMARK                         _______ _______ _______ _____ _____    ______ ____
ROOT
ATOM      1  C   UNL     1      -0.529   1.435  -4.764  0.00  0.00    +0.143 C 
ATOM      2  N   UNL     1      -0.966   1.736  -3.578  0.00  0.00    -0.187 NA
ENDROOT
BRANCH   1  10
ATOM      3  C   UNL     1      -1.733   2.255 -10.727  0.00  0.00    +0.001 A 
ATOM      4  C   UNL     1      -2.870   3.035 -10.557  0.00  0.00    +0.002 A 
ATOM      5  C   UNL     1      -3.324   3.349  -9.295  0.00  0.00    +0.026 A 
ATOM      6  C   UNL     1      -2.641   2.881  -8.175  0.00  0.00    +0.049 A 
ATOM      7  C   UNL     1      -1.490   2.091  -8.349  0.00  0.00    -0.001 A 
ATOM      8  C   UNL     1      -1.047   1.784  -9.645  0.00  0.00    +0.010 A 
ATOM      9  C   UNL     1      -0.783   1.607  -7.220  0.00  0.00    +0.024 A 
ATOM     10  C   UNL     1      -1.241   1.922  -5.956  0.00  0.00    +0.059 A 
ATOM     11  C   UNL     1      -2.449   2.745  -5.815  0.00  0.00    +0.258 A 
ATOM     12  O   UNL     1      -2.866   3.027  -4.706  0.00  0.00    -0.267 OA
ATOM     13  N   UNL     1      -3.093   3.193  -6.909  0.00  0.00    -0.322 N 
ATOM     14  H   UNL     1      -3.910   3.760  -6.803  0.00  0.00    +0.169 HD
ENDBRANCH   1  10
BRANCH   2  15
ATOM     15  N   UNL     1      -0.288   1.272  -2.443  0.00  0.00    -0.204 N 
ATOM     16  C   UNL     1      -0.742   1.585  -1.213  0.00  0.00    +0.270 C 
ATOM     17  O   UNL     1      -1.736   2.268  -1.088  0.00  0.00    -0.270 OA
ATOM     18  H   UNL     1       0.507   0.726  -2.543  0.00  0.00    +0.177 HD
BRANCH  16  19
ATOM     19  C   UNL     1      -0.013   1.086   0.008  0.00  0.00    +0.326 C 
BRANCH  19  20
ATOM     20  O   UNL     1      -0.682   1.547   1.184  0.00  0.00    -0.481 OA
BRANCH  20  21
ATOM     21  C   UNL     1      -0.149   1.182   2.380  0.00  0.00    +0.141 A 
ATOM     22  C   UNL     1       0.994   0.397   2.421  0.00  0.00    +0.047 A 
ATOM     23  C   UNL     1       1.535   0.028   3.637  0.00  0.00    +0.005 A 
ATOM     24  C   UNL     1       0.938   0.439   4.815  0.00  0.00    +0.022 A 
ATOM     25  C   UNL     1      -0.202   1.222   4.778  0.00  0.00    +0.063 A 
ATOM     26  C   UNL     1      -0.744   1.599   3.562  0.00  0.00    +0.101 A 
ATOM     27 CL   UNL     1      -2.171   2.587   3.515  0.00  0.00    -0.078 Cl
ATOM     28 CL   UNL     1      -0.949   1.737   6.258  0.00  0.00    -0.082 Cl
ENDBRANCH  20  21
ENDBRANCH  19  20
ENDBRANCH  16  19
ENDBRANCH   2  15
TORSDOF 5
