REMARK  Name = ZINC08711726
REMARK  9 active torsions:
REMARK  status: ('A' for Active; 'I' for Inactive)
REMARK    1  A    between atoms: C_1  and  C_2
REMARK    2  A    between atoms: C_4  and  C_32
REMARK    3  A    between atoms: N_5  and  C_7
REMARK    4  A    between atoms: C_10  and  C_13
REMARK    5  A    between atoms: C_13  and  O_15
REMARK    6  A    between atoms: O_15  and  C_16
REMARK    7  A    between atoms: C_16  and  C_17
REMARK    8  A    between atoms: N_22  and  C_23
REMARK    9  A    between atoms: C_29  and  C_31
REMARK                            x       y       z     vdW  Elec       q    Type
REMARK                         _______ _______ _______ _____ _____    ______ ____
ROOT
ATOM      1  O   UNL     1       3.637   3.511  -0.013  0.00  0.00    -0.452 OA
ENDROOT
BRANCH   1   2
ATOM      2  C   UNL     1       3.654   2.164  -0.021  0.00  0.00    +0.340 C 
ATOM      3  O   UNL     1       4.713   1.569  -0.034  0.00  0.00    -0.245 OA
BRANCH   2   7
ATOM      4  C   UNL     1       0.002  -0.004   0.002  0.00  0.00    +0.066 A 
ATOM      5  C   UNL     1      -0.017   1.387   0.010  0.00  0.00    +0.028 A 
ATOM      6  C   UNL     1       1.165   2.093   0.002  0.00  0.00    +0.017 A 
ATOM      7  C   UNL     1       2.385   1.411  -0.013  0.00  0.00    +0.059 A 
ATOM      8  C   UNL     1       2.400   0.013  -0.021  0.00  0.00    +0.017 A 
ATOM      9  C   UNL     1       1.214  -0.686  -0.013  0.00  0.00    +0.028 A 
BRANCH   4  14
ATOM     10  C   UNL     1      -4.694  -1.256   0.974  0.00  0.00    +0.067 C 
ATOM     11  C   UNL     1      -3.282  -1.262   0.447  0.00  0.00    +0.061 A 
ATOM     12  C   UNL     1      -2.716  -2.250  -0.366  0.00  0.00    +0.047 A 
ATOM     13  C   UNL     1      -1.436  -1.896  -0.623  0.00  0.00    +0.042 A 
ATOM     14  N   UNL     1      -1.200  -0.718   0.010  0.00  0.00    -0.237 N 
ATOM     15  N   UNL     1      -2.375  -0.348   0.678  0.00  0.00    -0.171 NA
ATOM     16  C   UNL     1      -0.450  -2.669  -1.461  0.00  0.00    +0.066 C 
ENDBRANCH   4  14
ENDBRANCH   2   7
ENDBRANCH   1   2
BRANCH   1  17
ATOM     17  C   UNL     1       4.923   4.186  -0.022  0.00  0.00    +0.328 C 
BRANCH  17  18
ATOM     18  C   UNL     1       4.707   5.677  -0.012  0.00  0.00    +0.258 C 
ATOM     19  O   UNL     1       3.582   6.127   0.001  0.00  0.00    -0.272 OA
ATOM     20  N   UNL     1       5.766   6.511  -0.017  0.00  0.00    -0.237 N 
ATOM     21  C   UNL     1       5.573   7.845  -0.008  0.00  0.00    +0.306 C 
ATOM     22  O   UNL     1       4.445   8.296   0.005  0.00  0.00    -0.252 OA
ATOM     23  N   UNL     1       6.632   8.679  -0.013  0.00  0.00    -0.296 N 
ATOM     24  H   UNL     1       6.667   6.152  -0.027  0.00  0.00    +0.159 HD
ATOM     25  H   UNL     1       7.533   8.319  -0.024  0.00  0.00    +0.151 HD
BRANCH  23  26
ATOM     26  C   UNL     1       6.423  10.129  -0.004  0.00  0.00    +0.077 C 
ATOM     27  C   UNL     1       6.239  10.608   1.438  0.00  0.00    +0.022 C 
ATOM     28  C   UNL     1       7.488  10.268   2.252  0.00  0.00    +0.002 C 
ATOM     29  C   UNL     1       8.704  10.963   1.635  0.00  0.00    +0.000 C 
ATOM     30  C   UNL     1       8.888  10.484   0.193  0.00  0.00    +0.005 C 
ATOM     31  C   UNL     1       7.638  10.824  -0.621  0.00  0.00    +0.006 C 
ATOM     32  C   UNL     1       7.822  10.345  -2.062  0.00  0.00    +0.009 C 
ENDBRANCH  23  26
ENDBRANCH  17  18
ENDBRANCH   1  17
TORSDOF 6
