REMARK  Name = ZINC00322632
REMARK  9 active torsions:
REMARK  status: ('A' for Active; 'I' for Inactive)
REMARK    1  A    between atoms: C_1  and  C_2
REMARK    2  A    between atoms: C_2  and  C_3
REMARK    3  A    between atoms: C_2  and  N_4
REMARK    4  A    between atoms: N_4  and  C_5
REMARK    5  A    between atoms: C_5  and  C_6
REMARK    6  A    between atoms: C_8  and  C_11
REMARK    7  A    between atoms: C_11  and  O_13
REMARK    8  A    between atoms: O_13  and  C_14
REMARK    9  A    between atoms: N_17  and  C_18
REMARK                            x       y       z     vdW  Elec       q    Type
REMARK                         _______ _______ _______ _____ _____    ______ ____
ROOT
ATOM      1  N   UNL     1       3.606   1.483   0.809  0.00  0.00    -0.277 N 
ATOM      2  C   UNL     1       2.366   0.956   0.821  0.00  0.00    +0.303 C 
ATOM      3  O   UNL     1       1.482   1.468   0.162  0.00  0.00    -0.253 OA
ATOM      4  N   UNL     1       2.105  -0.139   1.562  0.00  0.00    -0.296 N 
ATOM      5  H   UNL     1       2.825  -0.591   2.028  0.00  0.00    +0.151 HD
ENDROOT
BRANCH   4   6
ATOM      6  C   UNL     1       0.734  -0.645   1.665  0.00  0.00    +0.074 C 
ATOM      7  C   UNL     1       0.438  -1.560   0.475  0.00  0.00    +0.022 C 
ATOM      8  C   UNL     1      -0.994  -2.089   0.582  0.00  0.00    +0.002 C 
ATOM      9  C   UNL     1      -1.150  -2.877   1.884  0.00  0.00    +0.000 C 
ATOM     10  C   UNL     1      -0.855  -1.962   3.073  0.00  0.00    +0.002 C 
ATOM     11  C   UNL     1       0.577  -1.433   2.966  0.00  0.00    +0.022 C 
ENDBRANCH   4   6
BRANCH   1  13
ATOM     12  C   UNL     1       3.568   2.542  -1.395  0.00  0.00    +0.028 C 
ATOM     13  C   UNL     1       3.864   2.735   0.094  0.00  0.00    +0.072 C 
ATOM     14  C   UNL     1       2.962   3.837   0.654  0.00  0.00    +0.028 C 
ENDBRANCH   1  13
BRANCH   1  15
ATOM     15  C   UNL     1       4.697   0.803   1.512  0.00  0.00    +0.172 C 
BRANCH  15  16
ATOM     16  C   UNL     1       5.372  -0.165   0.576  0.00  0.00    +0.097 A 
ATOM     17  N   UNL     1       6.381   0.048  -0.229  0.00  0.00    -0.236 NA
ATOM     18  C   UNL     1       6.849  -0.945  -0.988  0.00  0.00    +0.155 A 
ATOM     19  C   UNL     1       6.226  -2.164  -0.891  0.00  0.00    +0.082 A 
ATOM     20  S   UNL     1       4.999  -1.834   0.291  0.00  0.00    -0.078 S 
BRANCH  18  21
ATOM     21  C   UNL     1       7.986  -0.739  -1.898  0.00  0.00    +0.358 C 
ATOM     22  O   UNL     1       8.390  -1.658  -2.583  0.00  0.00    -0.243 OA
BRANCH  21  23
ATOM     23  O   UNL     1       8.580   0.469  -1.972  0.00  0.00    -0.463 OA
ATOM     24  C   UNL     1       9.696   0.599  -2.891  0.00  0.00    +0.280 C 
ENDBRANCH  21  23
ENDBRANCH  18  21
ENDBRANCH  15  16
ENDBRANCH   1  15
TORSDOF 6
