REMARK  Name = ZINC11971145
REMARK  8 active torsions:
REMARK  status: ('A' for Active; 'I' for Inactive)
REMARK    1  A    between atoms: C_1  and  C_2
REMARK    2  A    between atoms: C_6  and  C_8
REMARK    3  A    between atoms: N_10  and  C_11
REMARK    4  A    between atoms: C_11  and  C_12
REMARK    5  A    between atoms: C_13  and  C_32
REMARK    6  A    between atoms: C_15  and  C_17
REMARK    7  A    between atoms: C_22  and  N_23
REMARK    8  A    between atoms: C_24  and  C_26
REMARK                            x       y       z     vdW  Elec       q    Type
REMARK                         _______ _______ _______ _____ _____    ______ ____
ROOT
ATOM      1  C   UNL     1       2.417   0.762  -0.002  0.00  0.00    +0.100 A 
ATOM      2  C   UNL     1       3.007   0.258  -1.100  0.00  0.00    +0.127 A 
ATOM      3  O   UNL     1       3.993  -0.563  -0.684  0.00  0.00    -0.440 OA
ATOM      4  C   UNL     1       3.994  -0.552   0.660  0.00  0.00    +0.229 A 
ATOM      5  N   UNL     1       3.043   0.255   1.071  0.00  0.00    -0.212 NA
ATOM      6  C   UNL     1       2.637   0.555  -2.530  0.00  0.00    +0.088 C 
ENDROOT
BRANCH   4   7
ATOM      7  C   UNL     1       4.913  -1.314   1.529  0.00  0.00    +0.058 A 
ATOM      8  C   UNL     1       4.883  -1.134   2.912  0.00  0.00    +0.015 A 
ATOM      9  C   UNL     1       5.741  -1.852   3.719  0.00  0.00    +0.001 A 
ATOM     10  C   UNL     1       6.640  -2.745   3.161  0.00  0.00    +0.002 A 
ATOM     11  C   UNL     1       6.684  -2.930   1.793  0.00  0.00    +0.024 A 
ATOM     12  C   UNL     1       5.825  -2.219   0.967  0.00  0.00    +0.046 A 
BRANCH  12  13
ATOM     13  N   UNL     1       5.868  -2.404  -0.416  0.00  0.00    -0.283 N 
ATOM     14  C   UNL     1       6.143  -3.621  -0.924  0.00  0.00    +0.246 C 
ATOM     15  O   UNL     1       6.256  -4.576  -0.185  0.00  0.00    -0.273 OA
ATOM     16  H   UNL     1       5.701  -1.656  -1.010  0.00  0.00    +0.155 HD
BRANCH  14  17
ATOM     17  C   UNL     1       6.309  -3.796  -2.412  0.00  0.00    +0.204 C 
ATOM     18  C   UNL     1       7.548  -3.018  -2.896  0.00  0.00    +0.043 C 
ATOM     19  C   UNL     1       8.446  -4.099  -3.545  0.00  0.00    +0.031 C 
ATOM     20  C   UNL     1       7.428  -5.227  -3.849  0.00  0.00    +0.161 C 
ATOM     21  O   UNL     1       6.529  -5.183  -2.719  0.00  0.00    -0.367 OA
ENDBRANCH  14  17
ENDBRANCH  12  13
ENDBRANCH   4   7
BRANCH   1  22
ATOM     22  C   UNL     1       1.261   1.729   0.019  0.00  0.00    +0.163 C 
BRANCH  22  25
ATOM     23  C   UNL     1      -1.174   1.644   0.050  0.00  0.00    +0.244 C 
ATOM     24  O   UNL     1      -1.187   2.860   0.055  0.00  0.00    -0.270 OA
ATOM     25  N   UNL     1       0.000   0.983   0.035  0.00  0.00    -0.306 N 
ATOM     26  H   UNL     1       0.011   0.013   0.032  0.00  0.00    +0.149 HD
BRANCH  23  32
ATOM     27  C   UNL     1      -6.163   1.599   0.101  0.00  0.00    +0.044 C 
ATOM     28  C   UNL     1      -4.848   0.865   0.085  0.00  0.00    -0.050 A 
ATOM     29  C   UNL     1      -4.830  -0.519   0.078  0.00  0.00    +0.003 A 
ATOM     30  C   UNL     1      -3.626  -1.201   0.063  0.00  0.00    +0.001 A 
ATOM     31  C   UNL     1      -2.435  -0.504   0.049  0.00  0.00    +0.013 A 
ATOM     32  C   UNL     1      -2.446   0.891   0.060  0.00  0.00    +0.037 A 
ATOM     33  C   UNL     1      -3.664   1.573   0.076  0.00  0.00    +0.016 A 
ENDBRANCH  23  32
ENDBRANCH  22  25
ENDBRANCH   1  22
TORSDOF 6
