REMARK  Name = ZINC61684004
REMARK  5 active torsions:
REMARK  status: ('A' for Active; 'I' for Inactive)
REMARK    1  A    between atoms: C_1  and  C_2
REMARK    2  A    between atoms: C_2  and  C_3
REMARK    3  A    between atoms: C_2  and  N_4
REMARK    4  A    between atoms: C_6  and  N_9
REMARK    5  A    between atoms: C_15  and  N_18
REMARK                            x       y       z     vdW  Elec       q    Type
REMARK                         _______ _______ _______ _____ _____    ______ ____
ROOT
ATOM      1  N   UNL     1      -4.440  -1.511   1.514  0.00  0.00    -0.319 N 
ATOM      2  C   UNL     1      -4.503  -1.396   2.975  0.00  0.00    +0.141 C 
ATOM      3  C   UNL     1      -5.868  -1.864   3.413  0.00  0.00    -0.024 A 
ATOM      4  C   UNL     1      -6.439  -1.958   4.671  0.00  0.00    +0.005 A 
ATOM      5  C   UNL     1      -7.731  -2.427   4.817  0.00  0.00    +0.002 A 
ATOM      6  C   UNL     1      -8.459  -2.804   3.705  0.00  0.00    +0.023 A 
ATOM      7  C   UNL     1      -7.891  -2.711   2.442  0.00  0.00    +0.030 A 
ATOM      8  C   UNL     1      -6.590  -2.239   2.299  0.00  0.00    -0.005 A 
ATOM      9  C   UNL     1      -5.739  -2.030   1.072  0.00  0.00    +0.142 C 
ENDROOT
BRANCH   1  12
ATOM     10  N   UNL     1      -1.372  -0.511   0.012  0.00  0.00    -0.267 N 
ATOM     11  C   UNL     1      -2.148  -0.699   1.113  0.00  0.00    +0.131 A 
ATOM     12  C   UNL     1      -3.345  -1.179   0.693  0.00  0.00    +0.068 A 
ATOM     13  C   UNL     1      -3.299  -1.288  -0.704  0.00  0.00    +0.157 A 
ATOM     14  N   UNL     1      -2.123  -0.883  -1.110  0.00  0.00    -0.178 NA
BRANCH  10  16
ATOM     15  C   UNL     1      -0.019   1.526   0.010  0.00  0.00    +0.032 C 
ATOM     16  C   UNL     1       0.002  -0.004   0.002  0.00  0.00    +0.101 C 
ATOM     17  C   UNL     1       0.742  -0.511   1.242  0.00  0.00    +0.032 C 
ENDBRANCH  10  16
ENDBRANCH   1  12
BRANCH   7  18
ATOM     18  N   UNL     1      -8.624  -3.091   1.316  0.00  0.00    -0.358 N 
ATOM     19  H   UNL     1      -9.531  -3.421   1.417  0.00  0.00    +0.142 HD
ATOM     20  H   UNL     1      -8.227  -3.026   0.434  0.00  0.00    +0.142 HD
ENDBRANCH   7  18
TORSDOF 3
