REMARK  Name = ZINC49035035
REMARK  10 active torsions:
REMARK  status: ('A' for Active; 'I' for Inactive)
REMARK    1  A    between atoms: C_1  and  C_2
REMARK    2  A    between atoms: C_2  and  O_3
REMARK    3  A    between atoms: O_3  and  C_4
REMARK    4  A    between atoms: C_4  and  C_6
REMARK    5  A    between atoms: N_8  and  C_32
REMARK    6  A    between atoms: C_11  and  N_17
REMARK    7  A    between atoms: C_12  and  N_16
REMARK    8  A    between atoms: N_24  and  O_25
REMARK    9  A    between atoms: O_25  and  C_26
REMARK   10  A    between atoms: C_27  and  C_31
REMARK                            x       y       z     vdW  Elec       q    Type
REMARK                         _______ _______ _______ _____ _____    ______ ____
ROOT
ATOM      1  C   UNL     1       2.320  -1.457  -2.561  0.00  0.00    +0.055 C 
ATOM      2  C   UNL     1       2.308  -2.801  -2.589  0.00  0.00    +0.086 C 
ATOM      3  N   UNL     1       2.803  -3.490  -3.656  0.00  0.00    -0.303 N 
ATOM      4  C   UNL     1       3.658  -2.855  -4.564  0.00  0.00    +0.039 A 
ATOM      5  C   UNL     1       4.446  -3.616  -5.418  0.00  0.00    +0.048 A 
ATOM      6  C   UNL     1       5.298  -2.990  -6.315  0.00  0.00    +0.053 A 
ATOM      7  C   UNL     1       5.360  -1.597  -6.355  0.00  0.00    +0.046 A 
ATOM      8  C   UNL     1       4.570  -0.844  -5.502  0.00  0.00    +0.030 A 
ATOM      9  C   UNL     1       3.718  -1.469  -4.607  0.00  0.00    -0.020 A 
ATOM     10  C   UNL     1       2.855  -0.636  -3.696  0.00  0.00    +0.080 C 
ENDROOT
BRANCH   6  11
ATOM     11  N   UNL     1       6.093  -3.754  -7.177  0.00  0.00    -0.324 N 
ATOM     12  C   UNL     1       7.445  -4.195  -6.790  0.00  0.00    +0.110 C 
ATOM     13  C   UNL     1       7.425  -5.721  -6.744  0.00  0.00    +0.061 C 
ATOM     14  C   UNL     1       6.778  -6.299  -7.978  0.00  0.00    -0.007 C 
ATOM     15  C   UNL     1       5.946  -5.609  -8.768  0.00  0.00    +0.004 C 
ATOM     16  C   UNL     1       5.618  -4.156  -8.501  0.00  0.00    +0.143 C 
ATOM     17  C   UNL     1       5.305  -6.171  -9.897  0.00  0.00    +0.089 C 
ATOM     18  N   UNL     1       4.489  -5.395 -10.545  0.00  0.00    -0.089 NA
ATOM     19  C   UNL     1       5.464  -7.555 -10.424  0.00  0.00    +0.048 C 
ATOM     20  C   UNL     1       5.697  -8.543  -9.276  0.00  0.00    +0.083 C 
ATOM     21  S   UNL     1       7.169  -7.984  -8.368  0.00  0.00    -0.128 S 
ATOM     22  C   UNL     1       4.196  -7.956 -11.181  0.00  0.00    +0.015 C 
BRANCH  18  23
ATOM     23  O   UNL     1       4.544  -3.993 -10.355  0.00  0.00    -0.397 OA
ATOM     24  C   UNL     1       3.591  -3.264 -11.130  0.00  0.00    +0.313 C 
ENDBRANCH  18  23
ENDBRANCH   6  11
BRANCH   7  25
ATOM     25  N   UNL     1       6.221  -0.960  -7.259  0.00  0.00    -0.357 N 
ATOM     26  H   UNL     1       6.774  -1.487  -7.856  0.00  0.00    +0.142 HD
ATOM     27  H   UNL     1       6.265   0.009  -7.287  0.00  0.00    +0.142 HD
ENDBRANCH   7  25
BRANCH   3  28
ATOM     28  C   UNL     1       2.439  -4.896  -3.853  0.00  0.00    +0.079 C 
ATOM     29  C   UNL     1       1.349  -5.476  -2.950  0.00  0.00    +0.024 C 
ATOM     30  C   UNL     1       2.809  -5.883  -2.745  0.00  0.00    +0.024 C 
ENDBRANCH   3  28
BRANCH   1  31
ATOM     31  C   UNL     1       1.804  -0.795  -1.426  0.00  0.00    +0.337 C 
ATOM     32  O   UNL     1       1.365  -1.440  -0.492  0.00  0.00    -0.245 OA
BRANCH  31  33
ATOM     33  O   UNL     1       1.800   0.554  -1.375  0.00  0.00    -0.462 OA
BRANCH  33  35
ATOM     34  C   UNL     1       1.342   2.680  -0.321  0.00  0.00    +0.048 C 
ATOM     35  C   UNL     1       1.263   1.157  -0.196  0.00  0.00    +0.229 C 
ENDBRANCH  33  35
ENDBRANCH  31  33
ENDBRANCH   1  31
TORSDOF 7
