REMARK  Name = ZINC40480874
REMARK  7 active torsions:
REMARK  status: ('A' for Active; 'I' for Inactive)
REMARK    1  A    between atoms: C_1  and  C_2
REMARK    2  A    between atoms: C_2  and  C_3
REMARK    3  A    between atoms: C_3  and  C_4
REMARK    4  A    between atoms: C_4  and  C_5
REMARK    5  A    between atoms: C_4  and  C_6
REMARK    6  A    between atoms: C_4  and  N_20
REMARK    7  A    between atoms: C_15  and  C_17
REMARK                            x       y       z     vdW  Elec       q    Type
REMARK                         _______ _______ _______ _____ _____    ______ ____
ROOT
ATOM      1  C   UNL     1       1.201  -1.986   2.696  0.00  0.00    +0.208 C 
ATOM      2  O   UNL     1       2.008  -1.148   3.037  0.00  0.00    -0.277 OA
ATOM      3  N   UNL     1       0.707  -2.854   3.602  0.00  0.00    -0.272 N 
ATOM      4  C   UNL     1      -0.186  -3.973   3.290  0.00  0.00    +0.118 C 
ATOM      5  C   UNL     1      -0.463  -4.655   4.639  0.00  0.00    +0.056 C 
ATOM      6  C   UNL     1       0.322  -3.841   5.644  0.00  0.00    -0.024 A 
ATOM      7  C   UNL     1       0.977  -2.820   4.968  0.00  0.00    +0.039 A 
ATOM      8  C   UNL     1       1.780  -1.927   5.687  0.00  0.00    +0.024 A 
ATOM      9  C   UNL     1       1.923  -2.062   7.046  0.00  0.00    +0.017 A 
ATOM     10  C   UNL     1       1.262  -3.095   7.719  0.00  0.00    +0.064 A 
ATOM     11  C   UNL     1       0.453  -3.979   6.997  0.00  0.00    +0.020 A 
ENDROOT
BRANCH  10  12
ATOM     12  C   UNL     1       1.410  -3.246   9.176  0.00  0.00    +0.387 C 
ATOM     13  O   UNL     1       2.112  -2.466   9.803  0.00  0.00    -0.241 OA
ATOM     14  O   UNL     1       0.830  -4.152   9.759  0.00  0.00    -0.241 OA
ENDBRANCH  10  12
BRANCH   1  15
ATOM     15  C   UNL     1       0.749  -2.056   1.260  0.00  0.00    +0.005 C 
ATOM     16  C   UNL     1       1.531  -3.152   0.533  0.00  0.00    -0.001 C 
BRANCH  15  17
ATOM     17  N   UNL     1      -0.687  -2.366   1.213  0.00  0.00    +0.387 N 
ATOM     18  H   UNL     1      -1.059  -2.101   0.314  0.00  0.00    -0.089 HD
ATOM     19  H   UNL     1      -0.822  -3.356   1.355  0.00  0.00    -0.089 HD
ATOM     20  H   UNL     1      -1.165  -1.854   1.939  0.00  0.00    -0.089 HD
ENDBRANCH  15  17
BRANCH  15  21
ATOM     21  C   UNL     1       1.002  -0.710   0.579  0.00  0.00    -0.004 C 
BRANCH  21  23
ATOM     22  C   UNL     1       0.685   0.605  -1.522  0.00  0.00    +0.004 C 
ATOM     23  C   UNL     1       0.431  -0.741  -0.840  0.00  0.00    -0.004 C 
ENDBRANCH  21  23
ENDBRANCH  15  21
ENDBRANCH   1  15
TORSDOF 5
