REMARK  Name = ZINC15868653
REMARK  9 active torsions:
REMARK  status: ('A' for Active; 'I' for Inactive)
REMARK    1  A    between atoms: C_1  and  C_2
REMARK    2  A    between atoms: C_5  and  C_7
REMARK    3  A    between atoms: C_7  and  N_8
REMARK    4  A    between atoms: C_9  and  C_11
REMARK    5  A    between atoms: C_11  and  C_13
REMARK    6  A    between atoms: C_11  and  C_14
REMARK    7  A    between atoms: C_20  and  C_22
REMARK    8  A    between atoms: C_27  and  O_32
REMARK    9  A    between atoms: O_32  and  C_33
REMARK                            x       y       z     vdW  Elec       q    Type
REMARK                         _______ _______ _______ _____ _____    ______ ____
ROOT
ATOM      1  C   UNL     1       0.304   3.168  -2.590  0.00  0.00    +0.004 C 
ATOM      2  C   UNL     1       1.531   2.476  -1.991  0.00  0.00    +0.023 C 
ATOM      3  C   UNL     1       1.219   2.046  -0.554  0.00  0.00    +0.108 C 
ATOM      4  N   UNL     1       0.004   1.220  -0.561  0.00  0.00    -0.296 N 
ATOM      5  C   UNL     1      -1.208   1.752  -1.199  0.00  0.00    +0.108 C 
ATOM      6  C   UNL     1      -0.871   2.188  -2.624  0.00  0.00    +0.023 C 
ATOM      7  C   UNL     1       0.002  -0.004   0.002  0.00  0.00    +0.263 C 
ATOM      8  O   UNL     1       1.041  -0.486   0.412  0.00  0.00    -0.268 OA
ENDROOT
BRANCH   7   9
ATOM      9  C   UNL     1      -1.254  -0.756   0.121  0.00  0.00    +0.103 A 
ATOM     10  C   UNL     1      -1.357  -2.108   0.216  0.00  0.00    +0.040 A 
ATOM     11  C   UNL     1      -2.732  -2.430   0.315  0.00  0.00    +0.001 A 
ATOM     12  C   UNL     1      -3.429  -3.641   0.436  0.00  0.00    +0.013 A 
ATOM     13  C   UNL     1      -4.790  -3.637   0.506  0.00  0.00    +0.046 A 
ATOM     14  C   UNL     1      -5.499  -2.437   0.459  0.00  0.00    +0.122 A 
ATOM     15  C   UNL     1      -4.833  -1.232   0.339  0.00  0.00    +0.071 A 
ATOM     16  C   UNL     1      -3.444  -1.216   0.267  0.00  0.00    +0.050 A 
ATOM     17  N   UNL     1      -2.521  -0.203   0.148  0.00  0.00    -0.350 N 
ATOM     18  H   UNL     1      -2.726   0.744   0.092  0.00  0.00    +0.166 HD
BRANCH  14  19
ATOM     19  O   UNL     1      -6.856  -2.453   0.529  0.00  0.00    -0.495 OA
ATOM     20  C   UNL     1      -7.484  -3.731   0.651  0.00  0.00    +0.277 C 
ENDBRANCH  14  19
ENDBRANCH   7   9
BRANCH   1  21
ATOM     21  C   UNL     1       0.624   3.629  -4.014  0.00  0.00    +0.075 C 
ATOM     22  C   UNL     1       1.798   4.610  -3.980  0.00  0.00    +0.017 C 
BRANCH  21  24
ATOM     23  N   UNL     1      -0.534   4.802  -5.858  0.00  0.00    -0.308 N 
ATOM     24  C   UNL     1      -0.584   4.311  -4.604  0.00  0.00    +0.216 C 
ATOM     25  O   UNL     1      -1.600   4.417  -3.950  0.00  0.00    -0.276 OA
ATOM     26  H   UNL     1       0.279   4.717  -6.380  0.00  0.00    +0.149 HD
BRANCH  23  27
ATOM     27  C   UNL     1      -1.708   5.465  -6.432  0.00  0.00    +0.178 C 
BRANCH  27  32
ATOM     28  C   UNL     1      -0.185   8.340 -10.286  0.00  0.00    +0.086 C 
ATOM     29  C   UNL     1      -0.731   7.169  -9.509  0.00  0.00    +0.102 A 
ATOM     30  C   UNL     1      -1.152   6.005 -10.035  0.00  0.00    +0.045 A 
ATOM     31  C   UNL     1      -1.574   5.197  -8.954  0.00  0.00    +0.046 A 
ATOM     32  C   UNL     1      -1.393   5.919  -7.834  0.00  0.00    +0.122 A 
ATOM     33  O   UNL     1      -0.879   7.112  -8.176  0.00  0.00    -0.463 OA
ENDBRANCH  27  32
ENDBRANCH  23  27
ENDBRANCH  21  24
ENDBRANCH   1  21
TORSDOF 6
