REMARK  Name = ZINC00659131
REMARK  6 active torsions:
REMARK  status: ('A' for Active; 'I' for Inactive)
REMARK    1  A    between atoms: C_1  and  C_2
REMARK    2  A    between atoms: C_2  and  C_3
REMARK    3  A    between atoms: C_8  and  N_9
REMARK    4  A    between atoms: C_10  and  C_12
REMARK    5  A    between atoms: C_17  and  C_32
REMARK    6  A    between atoms: C_20  and  C_23
REMARK                            x       y       z     vdW  Elec       q    Type
REMARK                         _______ _______ _______ _____ _____    ______ ____
ROOT
ATOM      1  C   UNL     1      -1.465  -0.278  -4.837  0.00  0.00    +0.149 A 
ATOM      2  C   UNL     1      -2.019  -0.464  -6.125  0.00  0.00    +0.078 A 
ATOM      3  C   UNL     1      -1.081  -0.112  -7.026  0.00  0.00    +0.119 A 
ATOM      4  N   UNL     1       0.035   0.285  -6.345  0.00  0.00    -0.238 N 
ATOM      5  N   UNL     1      -0.234   0.179  -4.981  0.00  0.00    -0.164 NA
ATOM      6  C   UNL     1       1.268   0.736  -6.998  0.00  0.00    +0.215 C 
ATOM      7  C   UNL     1       1.270   0.241  -8.449  0.00  0.00    +0.063 C 
ATOM      8  C   UNL     1      -0.059   0.596  -9.124  0.00  0.00    +0.104 C 
ATOM      9  N   UNL     1      -1.146  -0.116  -8.422  0.00  0.00    -0.322 N 
ATOM     10  H   UNL     1      -1.863  -0.560  -8.902  0.00  0.00    +0.148 HD
ENDROOT
BRANCH   8  11
ATOM     11  C   UNL     1      -0.022   0.171 -10.569  0.00  0.00    -0.024 A 
ATOM     12  C   UNL     1      -0.250  -1.150 -10.906  0.00  0.00    +0.009 A 
ATOM     13  C   UNL     1      -0.217  -1.545 -12.231  0.00  0.00    +0.050 A 
ATOM     14  C   UNL     1       0.045  -0.615 -13.224  0.00  0.00    +0.166 A 
ATOM     15  C   UNL     1       0.275   0.716 -12.885  0.00  0.00    +0.167 A 
ATOM     16  C   UNL     1       0.235   1.105 -11.556  0.00  0.00    +0.055 A 
ATOM     17  O   UNL     1       0.507   1.424 -14.029  0.00  0.00    -0.453 OA
ATOM     18  C   UNL     1       0.820   0.440 -15.033  0.00  0.00    +0.466 C 
ATOM     19  O   UNL     1       0.133  -0.741 -14.581  0.00  0.00    -0.453 OA
ENDBRANCH   8  11
BRANCH   1  21
ATOM     20  N   UNL     1      -1.506  -0.315  -2.391  0.00  0.00    -0.280 N 
ATOM     21  C   UNL     1      -2.148  -0.541  -3.554  0.00  0.00    +0.268 C 
ATOM     22  O   UNL     1      -3.288  -0.962  -3.547  0.00  0.00    -0.268 OA
ATOM     23  H   UNL     1      -0.621   0.082  -2.394  0.00  0.00    +0.155 HD
BRANCH  20  29
ATOM     24  C   UNL     1      -1.349  -1.120  -0.120  0.00  0.00    -0.026 A 
ATOM     25  C   UNL     1      -1.954  -1.447   1.078  0.00  0.00    +0.005 A 
ATOM     26  C   UNL     1      -3.322  -1.314   1.222  0.00  0.00    +0.000 A 
ATOM     27  C   UNL     1      -4.090  -0.853   0.168  0.00  0.00    +0.002 A 
ATOM     28  C   UNL     1      -3.491  -0.525  -1.032  0.00  0.00    +0.023 A 
ATOM     29  C   UNL     1      -2.116  -0.652  -1.179  0.00  0.00    +0.037 A 
BRANCH  24  31
ATOM     30  C   UNL     1       0.820   0.075   0.018  0.00  0.00    +0.009 C 
ATOM     31  C   UNL     1       0.143  -1.265  -0.276  0.00  0.00    +0.033 C 
ENDBRANCH  24  31
ENDBRANCH  20  29
ENDBRANCH   1  21
BRANCH   6  32
ATOM     32  C   UNL     1       2.478   0.166  -6.257  0.00  0.00    +0.412 C 
ATOM     33  F   UNL     1       2.424  -1.232  -6.281  0.00  0.00    -0.168 F 
ATOM     34  F   UNL     1       3.653   0.598  -6.881  0.00  0.00    -0.168 F 
ATOM     35  F   UNL     1       2.465   0.610  -4.930  0.00  0.00    -0.168 F 
ENDBRANCH   6  32
TORSDOF 5
