REMARK  Name = ZINC36253905
REMARK  8 active torsions:
REMARK  status: ('A' for Active; 'I' for Inactive)
REMARK    1  A    between atoms: C_6  and  O_7
REMARK    2  A    between atoms: O_7  and  C_8
REMARK    3  A    between atoms: C_8  and  C_9
REMARK    4  A    between atoms: N_14  and  C_17
REMARK    5  A    between atoms: C_17  and  C_19
REMARK    6  A    between atoms: C_17  and  C_24
REMARK    7  A    between atoms: N_26  and  C_27
REMARK    8  A    between atoms: C_27  and  C_28
REMARK                            x       y       z     vdW  Elec       q    Type
REMARK                         _______ _______ _______ _____ _____    ______ ____
ROOT
ATOM      1  C   UNL     1       1.320  -4.694  -0.920  0.00  0.00    +0.253 C 
ATOM      2  O   UNL     1       1.146  -3.524  -0.649  0.00  0.00    -0.272 OA
ATOM      3  N   UNL     1       0.334  -5.588  -0.710  0.00  0.00    -0.296 N 
ATOM      4  C   UNL     1       0.526  -7.012  -1.026  0.00  0.00    +0.123 C 
ATOM      5  C   UNL     1      -0.644  -7.480  -1.897  0.00  0.00    +0.104 C 
ATOM      6  N   UNL     1      -1.910  -7.158  -1.226  0.00  0.00    -0.288 NA
ATOM      7  C   UNL     1      -2.075  -5.707  -1.066  0.00  0.00    +0.104 C 
ATOM      8  C   UNL     1      -0.961  -5.168  -0.155  0.00  0.00    +0.123 C 
ENDROOT
BRANCH   1   9
ATOM      9  C   UNL     1       2.639  -5.146  -1.490  0.00  0.00    +0.324 C 
BRANCH   9  10
ATOM     10  O   UNL     1       3.514  -4.023  -1.618  0.00  0.00    -0.483 OA
BRANCH  10  16
ATOM     11  C   UNL     1       5.654  -3.216  -2.272  0.00  0.00    +0.047 A 
ATOM     12  C   UNL     1       6.914  -3.459  -2.783  0.00  0.00    +0.023 A 
ATOM     13  C   UNL     1       7.279  -4.744  -3.145  0.00  0.00    +0.041 A 
ATOM     14  C   UNL     1       6.382  -5.787  -2.995  0.00  0.00    +0.023 A 
ATOM     15  C   UNL     1       5.121  -5.548  -2.484  0.00  0.00    +0.047 A 
ATOM     16  C   UNL     1       4.754  -4.261  -2.121  0.00  0.00    +0.121 A 
ATOM     17 CL   UNL     1       8.862  -5.047  -3.788  0.00  0.00    -0.084 Cl
ENDBRANCH  10  16
ENDBRANCH   9  10
ENDBRANCH   1   9
BRANCH   6  18
ATOM     18  C   UNL     1      -3.050  -7.742  -1.944  0.00  0.00    +0.146 C 
BRANCH  18  19
ATOM     19  C   UNL     1      -4.335  -7.493  -1.151  0.00  0.00    +0.015 C 
ATOM     20  C   UNL     1      -4.259  -8.207   0.215  0.00  0.00    +0.005 C 
ATOM     21  C   UNL     1      -5.702  -8.714   0.459  0.00  0.00    +0.000 C 
ATOM     22  C   UNL     1      -6.154  -9.154  -0.957  0.00  0.00    +0.000 C 
ATOM     23  C   UNL     1      -5.539  -8.095  -1.895  0.00  0.00    +0.005 C 
ENDBRANCH  18  19
BRANCH  18  24
ATOM     24  C   UNL     1      -3.168  -7.103  -3.304  0.00  0.00    +0.231 C 
ATOM     25  O   UNL     1      -2.983  -5.911  -3.432  0.00  0.00    -0.274 OA
ATOM     26  N   UNL     1      -3.479  -7.855  -4.378  0.00  0.00    -0.312 N 
ATOM     27  H   UNL     1      -3.699  -8.793  -4.265  0.00  0.00    +0.149 HD
BRANCH  26  28
ATOM     28  C   UNL     1      -3.485  -7.256  -5.715  0.00  0.00    +0.135 C 
BRANCH  28  29
ATOM     29  C   UNL     1      -3.869  -8.318  -6.747  0.00  0.00    +0.135 C 
ATOM     30  C   UNL     1      -3.761  -7.729  -8.170  0.00  0.00    +0.035 C 
ATOM     31  C   UNL     1      -4.994  -8.351  -8.879  0.00  0.00    +0.031 C 
ATOM     32  C   UNL     1      -6.010  -8.403  -7.710  0.00  0.00    +0.160 C 
ATOM     33  O   UNL     1      -5.228  -8.723  -6.547  0.00  0.00    -0.375 OA
ENDBRANCH  28  29
ENDBRANCH  26  28
ENDBRANCH  18  24
ENDBRANCH   6  18
TORSDOF 8
