REMARK  Name = ZINC32229215
REMARK  5 active torsions:
REMARK  status: ('A' for Active; 'I' for Inactive)
REMARK    1  A    between atoms: C_6  and  C_7
REMARK    2  A    between atoms: C_7  and  C_9
REMARK    3  A    between atoms: C_7  and  O_19
REMARK    4  A    between atoms: C_9  and  N_10
REMARK    5  A    between atoms: N_10  and  C_11
REMARK                            x       y       z     vdW  Elec       q    Type
REMARK                         _______ _______ _______ _____ _____    ______ ____
ROOT
ATOM      1  C   UNL     1      -2.244   6.993  -1.166  0.00  0.00    +0.128 C 
ENDROOT
BRANCH   1   7
ATOM      2  C   UNL     1      -1.807   4.824  -2.334  0.00  0.00    +0.010 A 
ATOM      3  C   UNL     1      -1.431   3.493  -2.327  0.00  0.00    +0.050 A 
ATOM      4  C   UNL     1      -1.080   2.877  -1.135  0.00  0.00    +0.162 A 
ATOM      5  C   UNL     1      -1.105   3.601   0.051  0.00  0.00    +0.162 A 
ATOM      6  C   UNL     1      -1.484   4.935   0.037  0.00  0.00    +0.055 A 
ATOM      7  C   UNL     1      -1.833   5.543  -1.154  0.00  0.00    -0.017 A 
ATOM      8  O   UNL     1      -0.757   3.018   1.231  0.00  0.00    -0.485 OA
ATOM      9  C   UNL     1      -0.743   1.587   1.262  0.00  0.00    +0.270 C 
ATOM     10  C   UNL     1      -0.013   1.086   0.008  0.00  0.00    +0.270 C 
ATOM     11  O   UNL     1      -0.716   1.565  -1.143  0.00  0.00    -0.485 OA
ENDBRANCH   1   7
BRANCH   1  12
ATOM     12  O   UNL     1      -3.339   7.170  -2.068  0.00  0.00    -0.389 OA
ATOM     13  H   UNL     1      -3.777   8.169  -2.211  0.00  0.00    +0.210 HD
ENDBRANCH   1  12
BRANCH   1  14
ATOM     14  C   UNL     1      -1.064   7.854  -1.621  0.00  0.00    -0.046 C 
BRANCH  14  15
ATOM     15  N   UNL     1      -1.426   9.274  -1.519  0.00  0.00    +0.384 N 
ATOM     16  H   UNL     1      -2.296   9.477  -2.159  0.00  0.00    -0.085 HD
ATOM     17  H   UNL     1      -1.674   9.514  -0.475  0.00  0.00    -0.085 HD
BRANCH  15  18
ATOM     18  C   UNL     1      -0.314  10.132  -1.948  0.00  0.00    -0.049 C 
ATOM     19  C   UNL     1      -0.351  10.289  -3.477  0.00  0.00    +0.008 C 
ATOM     20  C   UNL     1       0.625  11.435  -3.870  0.00  0.00    +0.164 C 
ATOM     21  S   UNL     1       0.273  12.651  -2.532  0.00  0.00    -0.033 S 
ATOM     22  O   UNL     1      -0.736  13.548  -2.975  0.00  0.00    -0.174 OA
ATOM     23  O   UNL     1       1.503  13.167  -2.042  0.00  0.00    -0.174 OA
ATOM     24  C   UNL     1      -0.445  11.519  -1.272  0.00  0.00    +0.150 C 
ENDBRANCH  15  18
ENDBRANCH  14  15
ENDBRANCH   1  14
TORSDOF 5
