REMARK  Name = ZINC36626802
REMARK  5 active torsions:
REMARK  status: ('A' for Active; 'I' for Inactive)
REMARK    1  A    between atoms: C_1  and  C_2
REMARK    2  A    between atoms: C_12  and  C_14
REMARK    3  A    between atoms: C_14  and  S_15
REMARK    4  A    between atoms: S_15  and  C_16
REMARK    5  A    between atoms: C_16  and  C_17
REMARK                            x       y       z     vdW  Elec       q    Type
REMARK                         _______ _______ _______ _____ _____    ______ ____
ROOT
ATOM      1  S   UNL     1       0.128  -9.439  -0.652  0.00  0.00    -0.144 S 
ENDROOT
BRANCH   1   2
ATOM      2  C   UNL     1       0.122  -8.485   0.891  0.00  0.00    +0.165 C 
BRANCH   2  14
ATOM      3  C   UNL     1      -0.018   1.503   0.010  0.00  0.00    +0.044 C 
ATOM      4  C   UNL     1       0.002  -0.004   0.002  0.00  0.00    -0.049 A 
ATOM      5  C   UNL     1       0.006  -0.698  -1.199  0.00  0.00    +0.005 A 
ATOM      6  C   UNL     1       0.024  -2.068  -1.235  0.00  0.00    +0.029 A 
ATOM      7  C   UNL     1       0.040  -2.822  -0.038  0.00  0.00    +0.080 A 
ATOM      8  C   UNL     1       0.036  -2.081   1.166  0.00  0.00    +0.041 A 
ATOM      9  C   UNL     1       0.023  -0.709   1.191  0.00  0.00    +0.020 A 
ATOM     10  S   UNL     1       0.059  -3.361   2.397  0.00  0.00    -0.052 S 
ATOM     11  C   UNL     1       0.073  -4.752   1.275  0.00  0.00    +0.165 A 
ATOM     12  N   UNL     1       0.059  -4.165   0.101  0.00  0.00    -0.225 NA
ATOM     13  N   UNL     1       0.093  -6.106   1.569  0.00  0.00    -0.264 N 
ATOM     14  C   UNL     1       0.101  -7.012   0.571  0.00  0.00    +0.228 C 
ATOM     15  O   UNL     1       0.090  -6.643  -0.584  0.00  0.00    -0.275 OA
ATOM     16  H   UNL     1       0.101  -6.402   2.493  0.00  0.00    +0.157 HD
ENDBRANCH   2  14
ENDBRANCH   1   2
BRANCH   1  17
ATOM     17  C   UNL     1       0.154 -11.166  -0.100  0.00  0.00    +0.143 C 
BRANCH  17  18
ATOM     18  C   UNL     1       0.161 -12.077  -1.300  0.00  0.00    +0.121 A 
ATOM     19  N   UNL     1       0.175 -13.422  -1.115  0.00  0.00    -0.310 N 
ATOM     20  H   UNL     1       0.179 -13.778  -0.213  0.00  0.00    +0.170 HD
ATOM     21  C   UNL     1       0.182 -14.273  -2.160  0.00  0.00    +0.260 A 
ATOM     22  O   UNL     1       0.194 -15.478  -1.979  0.00  0.00    -0.267 OA
ATOM     23  C   UNL     1       0.174 -13.734  -3.487  0.00  0.00    +0.075 A 
ATOM     24  C   UNL     1       0.179 -14.465  -4.763  0.00  0.00    -0.023 A 
ATOM     25  C   UNL     1       0.171 -13.727  -5.886  0.00  0.00    -0.004 A 
ATOM     26  S   UNL     1       0.154 -12.039  -5.327  0.00  0.00    -0.073 S 
ATOM     27  C   UNL     1       0.160 -12.336  -3.579  0.00  0.00    +0.116 A 
ATOM     28  N   UNL     1       0.149 -11.558  -2.499  0.00  0.00    -0.226 NA
ATOM     29  C   UNL     1       0.183 -14.580  -7.127  0.00  0.00    +0.043 C 
ATOM     30  C   UNL     1       0.634 -15.973  -6.635  0.00  0.00    +0.010 C 
ATOM     31  C   UNL     1       0.189 -15.944  -5.160  0.00  0.00    +0.037 C 
ENDBRANCH  17  18
ENDBRANCH   1  17
TORSDOF 4
