REMARK  Name = ZINC09373839
REMARK  11 active torsions:
REMARK  status: ('A' for Active; 'I' for Inactive)
REMARK    1  A    between atoms: C_1  and  C_2
REMARK    2  A    between atoms: C_2  and  N_54
REMARK    3  A    between atoms: C_3  and  C_4
REMARK    4  A    between atoms: C_3  and  N_54
REMARK    5  A    between atoms: C_5  and  C_6
REMARK    6  A    between atoms: C_5  and  N_54
REMARK    7  A    between atoms: C_6  and  N_7
REMARK    8  A    between atoms: C_8  and  C_24
REMARK    9  A    between atoms: C_10  and  C_15
REMARK   10  A    between atoms: C_11  and  O_14
REMARK   11  A    between atoms: C_15  and  C_17
REMARK                            x       y       z     vdW  Elec       q    Type
REMARK                         _______ _______ _______ _____ _____    ______ ____
ROOT
ATOM      1  N   UNL     1      -4.681   2.164   1.095  0.00  0.00    -0.285 N 
ATOM      2  C   UNL     1      -4.228   1.395  -0.070  0.00  0.00    +0.144 C 
ATOM      3  C   UNL     1      -5.146   1.775  -1.209  0.00  0.00    +0.071 C 
ATOM      4  C   UNL     1      -6.028   2.675  -0.715  0.00  0.00    +0.188 C 
ATOM      5  C   UNL     1      -5.733   2.911   0.714  0.00  0.00    +0.282 C 
ATOM      6  O   UNL     1      -6.350   3.667   1.437  0.00  0.00    -0.267 OA
ENDROOT
BRANCH   2   7
ATOM      7  C   UNL     1      -2.805   1.757  -0.408  0.00  0.00    -0.022 A 
ATOM      8  C   UNL     1      -1.871   0.761  -0.625  0.00  0.00    +0.007 A 
ATOM      9  C   UNL     1      -0.567   1.092  -0.941  0.00  0.00    +0.020 A 
ATOM     10  C   UNL     1      -0.195   2.422  -1.036  0.00  0.00    +0.041 A 
ATOM     11  C   UNL     1      -1.129   3.418  -0.814  0.00  0.00    +0.020 A 
ATOM     12  C   UNL     1      -2.433   3.085  -0.497  0.00  0.00    +0.007 A 
ATOM     13 CL   UNL     1       1.442   2.839  -1.434  0.00  0.00    -0.084 Cl
ENDBRANCH   2   7
BRANCH   4  14
ATOM     14  O   UNL     1      -7.021   3.265  -1.419  0.00  0.00    -0.502 OA
ATOM     15  H   UNL     1      -7.528   3.888  -0.822  0.00  0.00    +0.292 HD
ENDBRANCH   4  14
BRANCH   3  16
ATOM     16  C   UNL     1      -5.091   1.266  -2.583  0.00  0.00    +0.195 C 
ATOM     17  O   UNL     1      -4.809   2.017  -3.498  0.00  0.00    -0.287 OA
BRANCH  16  18
ATOM     18  C   UNL     1      -5.379  -0.157  -2.856  0.00  0.00    +0.022 A 
ATOM     19  C   UNL     1      -5.788  -1.001  -1.821  0.00  0.00    +0.013 A 
ATOM     20  C   UNL     1      -6.059  -2.327  -2.083  0.00  0.00    +0.021 A 
ATOM     21  C   UNL     1      -5.917  -2.825  -3.368  0.00  0.00    +0.041 A 
ATOM     22  C   UNL     1      -5.506  -1.995  -4.397  0.00  0.00    +0.021 A 
ATOM     23  C   UNL     1      -5.237  -0.666  -4.149  0.00  0.00    +0.013 A 
ATOM     24 CL   UNL     1      -6.254  -4.498  -3.689  0.00  0.00    -0.084 Cl
ENDBRANCH  16  18
ENDBRANCH   3  16
BRANCH   1  25
ATOM     25  C   UNL     1      -4.093   2.125   2.436  0.00  0.00    +0.090 C 
BRANCH  25  26
ATOM     26  C   UNL     1      -2.994   3.184   2.542  0.00  0.00    -0.060 C 
BRANCH  26  27
ATOM     27  N   UNL     1      -2.425   3.147   3.905  0.00  0.00    +0.380 N 
ATOM     28  H   UNL     1      -3.190   3.204   4.588  0.00  0.00    -0.082 HD
BRANCH  27  30
ATOM     29  C   UNL     1      -0.535   1.761   3.118  0.00  0.00    -0.017 C 
ATOM     30  C   UNL     1      -1.692   1.880   4.112  0.00  0.00    -0.082 C 
ENDBRANCH  27  30
BRANCH  27  31
ATOM     31  C   UNL     1      -1.516   4.295   4.105  0.00  0.00    -0.082 C 
ATOM     32  C   UNL     1      -1.139   4.373   5.586  0.00  0.00    -0.017 C 
ENDBRANCH  27  31
ENDBRANCH  26  27
ENDBRANCH  25  26
ENDBRANCH   1  25
TORSDOF 9
