REMARK  Name = ZINC06782287
REMARK  5 active torsions:
REMARK  status: ('A' for Active; 'I' for Inactive)
REMARK    1  A    between atoms: C_7  and  C_11
REMARK    2  A    between atoms: C_11  and  C_12
REMARK    3  A    between atoms: C_12  and  N_13
REMARK    4  A    between atoms: C_14  and  C_16
REMARK    5  A    between atoms: C_16  and  N_17
REMARK                            x       y       z     vdW  Elec       q    Type
REMARK                         _______ _______ _______ _____ _____    ______ ____
ROOT
ATOM      1  N   UNL     1      -4.026   0.337   1.728  0.00  0.00    -0.314 N 
ATOM      2  C   UNL     1      -2.898   1.028   1.469  0.00  0.00    +0.233 C 
ATOM      3  O   UNL     1      -2.212   1.433   2.384  0.00  0.00    -0.274 OA
ATOM      4  H   UNL     1      -4.575   0.013   0.996  0.00  0.00    +0.149 HD
ENDROOT
BRANCH   1   5
ATOM      5  C   UNL     1      -4.423   0.075   3.113  0.00  0.00    +0.109 C 
BRANCH   5   6
ATOM      6  C   UNL     1      -5.730  -0.721   3.127  0.00  0.00    +0.056 C 
BRANCH   6  13
ATOM      7  C   UNL     1      -8.130   1.760   6.298  0.00  0.00    +0.001 A 
ATOM      8  C   UNL     1      -8.269   1.098   7.511  0.00  0.00    +0.002 A 
ATOM      9  C   UNL     1      -7.731  -0.157   7.691  0.00  0.00    +0.026 A 
ATOM     10  C   UNL     1      -7.040  -0.769   6.650  0.00  0.00    +0.047 A 
ATOM     11  C   UNL     1      -6.902  -0.094   5.424  0.00  0.00    +0.003 A 
ATOM     12  C   UNL     1      -7.456   1.178   5.263  0.00  0.00    +0.010 A 
ATOM     13  C   UNL     1      -6.139  -0.990   4.552  0.00  0.00    -0.021 A 
ATOM     14  C   UNL     1      -5.878  -2.099   5.262  0.00  0.00    +0.087 A 
ATOM     15  N   UNL     1      -6.404  -1.983   6.520  0.00  0.00    -0.360 N 
ATOM     16  H   UNL     1      -6.341  -2.657   7.214  0.00  0.00    +0.165 HD
ENDBRANCH   6  13
ENDBRANCH   5   6
ENDBRANCH   1   5
BRANCH   2  17
ATOM     17  C   UNL     1      -2.489   1.298   0.044  0.00  0.00    +0.221 C 
BRANCH  17  18
ATOM     18  N   UNL     1      -1.238   2.060   0.031  0.00  0.00    -0.296 N 
ATOM     19  C   UNL     1      -0.017   1.386   0.010  0.00  0.00    +0.069 A 
ATOM     20  C   UNL     1       0.002  -0.004   0.002  0.00  0.00    +0.028 A 
ATOM     21  C   UNL     1       1.206  -0.679  -0.014  0.00  0.00    +0.002 A 
ATOM     22  C   UNL     1       2.399   0.024  -0.021  0.00  0.00    +0.002 A 
ATOM     23  C   UNL     1       2.391   1.405  -0.014  0.00  0.00    +0.028 A 
ATOM     24  C   UNL     1       1.185   2.092   0.002  0.00  0.00    +0.070 A 
ATOM     25  N   UNL     1       1.181   3.491   0.010  0.00  0.00    -0.310 N 
ATOM     26  C   UNL     1       2.183   4.405   0.006  0.00  0.00    +0.092 A 
ATOM     27  C   UNL     1       1.645   5.649   0.019  0.00  0.00    +0.020 A 
ATOM     28  C   UNL     1       0.253   5.515   0.031  0.00  0.00    +0.033 A 
ATOM     29  C   UNL     1      -0.023   4.165   0.025  0.00  0.00    +0.112 A 
ATOM     30  C   UNL     1      -1.275   3.407   0.032  0.00  0.00    +0.276 A 
ATOM     31  O   UNL     1      -2.344   3.990   0.045  0.00  0.00    -0.265 OA
ENDBRANCH  17  18
ENDBRANCH   2  17
TORSDOF 5
