REMARK  Name = ZINC35374336
REMARK  8 active torsions:
REMARK  status: ('A' for Active; 'I' for Inactive)
REMARK    1  A    between atoms: C_1  and  C_2
REMARK    2  A    between atoms: C_5  and  C_8
REMARK    3  A    between atoms: C_17  and  C_21
REMARK    4  A    between atoms: N_23  and  C_24
REMARK    5  A    between atoms: C_24  and  C_25
REMARK    6  A    between atoms: C_25  and  C_26
REMARK    7  A    between atoms: C_31  and  O_32
REMARK    8  A    between atoms: O_32  and  C_33
REMARK                            x       y       z     vdW  Elec       q    Type
REMARK                         _______ _______ _______ _____ _____    ______ ____
ROOT
ATOM      1  C   UNL     1       0.059  -4.251  -0.021  0.00  0.00    +0.247 C 
ATOM      2  O   UNL     1      -0.045  -4.855  -1.071  0.00  0.00    -0.270 OA
ATOM      3  N   UNL     1       0.176  -4.930   1.137  0.00  0.00    -0.298 N 
ATOM      4  C   UNL     1       0.168  -4.220   2.424  0.00  0.00    +0.107 C 
ATOM      5  C   UNL     1      -0.921  -4.829   3.314  0.00  0.00    +0.017 C 
ATOM      6  C   UNL     1      -0.719  -6.334   3.406  0.00  0.00    -0.016 C 
ATOM      7  C   UNL     1      -0.778  -6.989   2.034  0.00  0.00    +0.017 C 
ATOM      8  C   UNL     1       0.306  -6.394   1.136  0.00  0.00    +0.107 C 
ATOM      9  N   UNL     1       0.538  -6.660   4.098  0.00  0.00    +0.397 N 
ATOM     10  C   UNL     1       0.411  -7.524   5.277  0.00  0.00    +0.028 C 
ATOM     11  C   UNL     1      -0.952  -7.287   5.992  0.00  0.00    +0.061 C 
ATOM     12  S   UNL     1      -2.012  -7.063   4.492  0.00  0.00    -0.174 S 
ATOM     13  H   UNL     1       1.152  -7.115   3.439  0.00  0.00    -0.083 HD
ATOM     14  H   UNL     1       0.973  -5.796   4.386  0.00  0.00    -0.083 HD
ENDROOT
BRANCH   1  19
ATOM     15  C   UNL     1       0.056   1.503   0.004  0.00  0.00    +0.044 C 
ATOM     16  C   UNL     1       0.057  -0.004  -0.003  0.00  0.00    -0.050 A 
ATOM     17  C   UNL     1      -0.824  -0.689  -0.820  0.00  0.00    +0.004 A 
ATOM     18  C   UNL     1      -0.828  -2.069  -0.831  0.00  0.00    +0.013 A 
ATOM     19  C   UNL     1       0.059  -2.773  -0.015  0.00  0.00    +0.037 A 
ATOM     20  C   UNL     1       0.945  -2.075   0.807  0.00  0.00    +0.013 A 
ATOM     21  C   UNL     1       0.942  -0.696   0.805  0.00  0.00    +0.004 A 
ENDBRANCH   1  19
BRANCH  10  22
ATOM     22  C   UNL     1       1.532  -7.220   6.237  0.00  0.00    +0.200 C 
ATOM     23  O   UNL     1       2.352  -6.369   5.963  0.00  0.00    -0.278 OA
ATOM     24  N   UNL     1       1.624  -7.894   7.401  0.00  0.00    -0.316 N 
ATOM     25  H   UNL     1       0.968  -8.574   7.620  0.00  0.00    +0.149 HD
BRANCH  24  26
ATOM     26  C   UNL     1       2.713  -7.598   8.335  0.00  0.00    +0.109 C 
BRANCH  26  27
ATOM     27  C   UNL     1       2.586  -8.496   9.567  0.00  0.00    +0.057 C 
BRANCH  27  28
ATOM     28  C   UNL     1       3.707  -8.192  10.528  0.00  0.00    -0.004 A 
ATOM     29  C   UNL     1       4.865  -8.945  10.500  0.00  0.00    +0.007 A 
ATOM     30  C   UNL     1       5.893  -8.667  11.381  0.00  0.00    +0.000 A 
ATOM     31  C   UNL     1       5.766  -7.635  12.292  0.00  0.00    +0.004 A 
ATOM     32  C   UNL     1       4.611  -6.879  12.324  0.00  0.00    +0.046 A 
ATOM     33  C   UNL     1       3.579  -7.152  11.437  0.00  0.00    +0.123 A 
BRANCH  33  34
ATOM     34  O   UNL     1       2.444  -6.406  11.462  0.00  0.00    -0.495 OA
ATOM     35  C   UNL     1       2.382  -5.352  12.425  0.00  0.00    +0.277 C 
ENDBRANCH  33  34
ENDBRANCH  27  28
ENDBRANCH  26  27
ENDBRANCH  24  26
ENDBRANCH  10  22
TORSDOF 6
