REMARK  Name = ZINC33276463
REMARK  7 active torsions:
REMARK  status: ('A' for Active; 'I' for Inactive)
REMARK    1  A    between atoms: C_3  and  C_6
REMARK    2  A    between atoms: N_8  and  C_9
REMARK    3  A    between atoms: C_12  and  C_15
REMARK    4  A    between atoms: C_17  and  C_20
REMARK    5  A    between atoms: C_23  and  N_26
REMARK    6  A    between atoms: N_26  and  S_27
REMARK    7  A    between atoms: S_27  and  C_30
REMARK                            x       y       z     vdW  Elec       q    Type
REMARK                         _______ _______ _______ _____ _____    ______ ____
ROOT
ATOM      1  C   UNL     1       0.592   5.500  -0.160  0.00  0.00    +0.259 A 
ATOM      2  N   UNL     1      -0.613   6.002   0.038  0.00  0.00    -0.187 NA
ATOM      3  C   UNL     1      -0.454   7.342   0.021  0.00  0.00    +0.202 A 
ATOM      4  N   UNL     1       0.816   7.582  -0.191  0.00  0.00    -0.056 NA
ATOM      5  O   UNL     1       1.429   6.541  -0.297  0.00  0.00    -0.332 OA
ENDROOT
BRANCH   1   9
ATOM      6  C   UNL     1       1.621   1.383  -0.347  0.00  0.00    +0.034 A 
ATOM      7  C   UNL     1       0.300   1.759  -0.129  0.00  0.00    +0.024 A 
ATOM      8  C   UNL     1      -0.036   3.093  -0.064  0.00  0.00    +0.015 A 
ATOM      9  C   UNL     1       0.950   4.069  -0.225  0.00  0.00    +0.040 A 
ATOM     10  C   UNL     1       2.276   3.688  -0.449  0.00  0.00    +0.015 A 
ATOM     11  C   UNL     1       2.606   2.353  -0.508  0.00  0.00    +0.024 A 
BRANCH   6  14
ATOM     12  C   UNL     1       1.327  -0.858   0.384  0.00  0.00    +0.284 C 
ATOM     13  O   UNL     1       0.405  -0.496   1.090  0.00  0.00    -0.266 OA
ATOM     14  N   UNL     1       1.959   0.032  -0.408  0.00  0.00    -0.279 N 
ATOM     15  H   UNL     1       2.742  -0.309  -1.102  0.00  0.00    +0.155 HD
BRANCH  12  18
ATOM     16  C   UNL     1       1.913  -4.431   0.842  0.00  0.00    +0.042 A 
ATOM     17  C   UNL     1       1.201  -3.260   1.145  0.00  0.00    +0.054 A 
ATOM     18  C   UNL     1       1.752  -2.261   0.395  0.00  0.00    +0.189 A 
ATOM     19  O   UNL     1       2.751  -2.793  -0.340  0.00  0.00    -0.458 OA
ATOM     20  C   UNL     1       2.854  -4.100  -0.069  0.00  0.00    +0.196 A 
ENDBRANCH  12  18
ENDBRANCH   6  14
ENDBRANCH   1   9
BRANCH   3  21
ATOM     21  C   UNL     1      -1.521   8.356   0.203  0.00  0.00    +0.023 A 
ATOM     22  C   UNL     1      -2.838   7.952   0.416  0.00  0.00    +0.013 A 
ATOM     23  C   UNL     1      -3.828   8.896   0.590  0.00  0.00    +0.025 A 
ATOM     24  C   UNL     1      -3.514  10.250   0.542  0.00  0.00    +0.048 A 
ATOM     25  C   UNL     1      -2.202  10.654   0.323  0.00  0.00    +0.025 A 
ATOM     26  C   UNL     1      -1.209   9.714   0.154  0.00  0.00    +0.013 A 
BRANCH  24  27
ATOM     27  N   UNL     1      -4.518  11.203   0.713  0.00  0.00    -0.216 N 
ATOM     28  H   UNL     1      -4.349  12.066   1.374  0.00  0.00    +0.174 HD
BRANCH  27  29
ATOM     29  S   UNL     1      -5.962  11.036  -0.080  0.00  0.00    +0.079 S 
ATOM     30  O   UNL     1      -6.419   9.716   0.182  0.00  0.00    -0.149 OA
ATOM     31  O   UNL     1      -6.734  12.187   0.236  0.00  0.00    -0.149 OA
BRANCH  29  32
ATOM     32  C   UNL     1      -5.621  11.118  -1.807  0.00  0.00    +0.146 A 
ATOM     33  C   UNL     1      -5.413  10.106  -2.684  0.00  0.00    +0.036 A 
ATOM     34  C   UNL     1      -5.160  10.409  -4.009  0.00  0.00    +0.010 A 
ATOM     35  C   UNL     1      -5.127  11.709  -4.391  0.00  0.00    +0.047 A 
ATOM     36  S   UNL     1      -5.467  12.554  -2.856  0.00  0.00    -0.077 S 
ENDBRANCH  29  32
ENDBRANCH  27  29
ENDBRANCH  24  27
ENDBRANCH   3  21
TORSDOF 7
