REMARK  Name = ZINC39463351
REMARK  6 active torsions:
REMARK  status: ('A' for Active; 'I' for Inactive)
REMARK    1  A    between atoms: C_1  and  C_2
REMARK    2  A    between atoms: C_2  and  C_3
REMARK    3  A    between atoms: C_2  and  S_4
REMARK    4  A    between atoms: S_4  and  C_7
REMARK    5  A    between atoms: C_13  and  C_16
REMARK    6  A    between atoms: C_21  and  O_22
REMARK                            x       y       z     vdW  Elec       q    Type
REMARK                         _______ _______ _______ _____ _____    ______ ____
ROOT
ATOM      1  C   UNL     1       2.069   0.576  -0.405  0.00  0.00    +0.165 A 
ATOM      2  C   UNL     1       2.983   0.059   0.443  0.00  0.00    +0.061 A 
ATOM      3  C   UNL     1       4.305   0.537   0.436  0.00  0.00    +0.025 A 
ATOM      4  C   UNL     1       4.660   1.526  -0.431  0.00  0.00    +0.062 A 
ATOM      5  C   UNL     1       3.694   2.054  -1.308  0.00  0.00    +0.140 A 
ATOM      6  N   UNL     1       2.414   1.563  -1.281  0.00  0.00    -0.277 N 
ATOM      7  C   UNL     1       1.700   2.251  -2.236  0.00  0.00    +0.078 A 
ATOM      8  C   UNL     1       2.566   3.133  -2.817  0.00  0.00    +0.140 A 
ATOM      9  N   UNL     1       3.757   3.000  -2.237  0.00  0.00    -0.235 NA
ATOM     10 BR   UNL     1       5.584  -0.188   1.625  0.00  0.00    -0.050 Br
ENDROOT
BRANCH   7  11
ATOM     11  C   UNL     1       0.272   2.069  -2.569  0.00  0.00    +0.042 A 
ATOM     12  C   UNL     1      -0.163   0.888  -3.171  0.00  0.00    +0.013 A 
ATOM     13  C   UNL     1      -1.498   0.724  -3.479  0.00  0.00    +0.001 A 
ATOM     14  C   UNL     1      -2.408   1.728  -3.193  0.00  0.00    +0.004 A 
ATOM     15  C   UNL     1      -1.988   2.902  -2.596  0.00  0.00    +0.046 A 
ATOM     16  C   UNL     1      -0.652   3.080  -2.276  0.00  0.00    +0.126 A 
BRANCH  16  17
ATOM     17  O   UNL     1      -0.240   4.232  -1.685  0.00  0.00    -0.506 OA
ATOM     18  H   UNL     1       0.019   4.923  -2.309  0.00  0.00    +0.292 HD
ENDBRANCH  16  17
ENDBRANCH   7  11
BRANCH   1  19
ATOM     19  S   UNL     1       0.416  -0.035  -0.384  0.00  0.00    +0.015 S 
ATOM     20  O   UNL     1      -0.344   0.955  -1.063  0.00  0.00    -0.168 OA
ATOM     21  O   UNL     1       0.158  -0.336   0.981  0.00  0.00    -0.168 OA
BRANCH  19  23
ATOM     22  C   UNL     1       1.219  -2.642  -0.578  0.00  0.00    +0.032 C 
ATOM     23  C   UNL     1       0.471  -1.562  -1.362  0.00  0.00    +0.131 C 
ATOM     24  C   UNL     1      -0.955  -2.034  -1.649  0.00  0.00    +0.032 C 
ENDBRANCH  19  23
ENDBRANCH   1  19
TORSDOF 4
