REMARK  Name = ZINC06001750
REMARK  16 active torsions:
REMARK  status: ('A' for Active; 'I' for Inactive)
REMARK    1  A    between atoms: C_1  and  C_2
REMARK    2  A    between atoms: C_5  and  C_8
REMARK    3  A    between atoms: N_13  and  C_14
REMARK    4  A    between atoms: C_16  and  O_38
REMARK    5  A    between atoms: C_18  and  O_34
REMARK    6  A    between atoms: C_20  and  C_29
REMARK    7  A    between atoms: C_23  and  O_25
REMARK    8  A    between atoms: O_25  and  C_26
REMARK    9  A    between atoms: C_26  and  C_28
REMARK   10  A    between atoms: C_29  and  O_30
REMARK   11  A    between atoms: O_30  and  C_31
REMARK   12  A    between atoms: C_31  and  C_33
REMARK   13  A    between atoms: O_34  and  C_35
REMARK   14  A    between atoms: C_35  and  C_37
REMARK   15  A    between atoms: O_38  and  C_39
REMARK   16  A    between atoms: C_39  and  C_41
REMARK                            x       y       z     vdW  Elec       q    Type
REMARK                         _______ _______ _______ _____ _____    ______ ____
ROOT
ATOM      1  C   UNL     1       0.661   0.705   5.179  0.00  0.00    +0.186 C 
ATOM      2  C   UNL     1      -0.817   0.776   4.783  0.00  0.00    +0.246 C 
ATOM      3  C   UNL     1      -0.974   1.750   3.611  0.00  0.00    +0.251 C 
ATOM      4  C   UNL     1      -0.414   3.117   4.014  0.00  0.00    +0.204 C 
ATOM      5  O   UNL     1       0.954   2.974   4.401  0.00  0.00    -0.329 OA
ATOM      6  C   UNL     1       1.157   2.112   5.522  0.00  0.00    +0.335 C 
ENDROOT
BRANCH   1  12
ATOM      7  C   UNL     1       4.147  -2.165   7.385  0.00  0.00    +0.041 A 
ATOM      8  C   UNL     1       4.216  -1.401   6.250  0.00  0.00    +0.129 A 
ATOM      9  N   UNL     1       3.142  -0.736   5.884  0.00  0.00    -0.233 NA
ATOM     10  C   UNL     1       2.024  -0.796   6.585  0.00  0.00    +0.159 A 
ATOM     11  S   UNL     1       2.459  -1.860   7.887  0.00  0.00    -0.052 S 
ATOM     12  N   UNL     1       0.815  -0.166   6.346  0.00  0.00    -0.312 N 
ATOM     13  H   UNL     1       0.069  -0.302   6.952  0.00  0.00    +0.149 HD
BRANCH   7  18
ATOM     14  C   UNL     1       8.182  -5.433   9.863  0.00  0.00    +0.044 C 
ATOM     15  C   UNL     1       7.125  -4.577   9.214  0.00  0.00    -0.050 A 
ATOM     16  C   UNL     1       5.866  -4.490   9.781  0.00  0.00    +0.004 A 
ATOM     17  C   UNL     1       4.894  -3.708   9.191  0.00  0.00    +0.009 A 
ATOM     18  C   UNL     1       5.183  -3.004   8.021  0.00  0.00    -0.010 A 
ATOM     19  C   UNL     1       6.454  -3.101   7.452  0.00  0.00    +0.009 A 
ATOM     20  C   UNL     1       7.419  -3.882   8.055  0.00  0.00    +0.004 A 
ENDBRANCH   7  18
ENDBRANCH   1  12
BRANCH   6  21
ATOM     21  O   UNL     1       2.572   2.062   5.844  0.00  0.00    -0.433 OA
BRANCH  21  22
ATOM     22  C   UNL     1       3.119   3.171   6.365  0.00  0.00    +0.306 C 
ATOM     23  O   UNL     1       2.438   4.152   6.547  0.00  0.00    -0.251 OA
ATOM     24  C   UNL     1       4.582   3.193   6.724  0.00  0.00    +0.136 C 
ENDBRANCH  21  22
ENDBRANCH   6  21
BRANCH   4  25
ATOM     25  C   UNL     1      -0.512   4.079   2.829  0.00  0.00    +0.267 C 
BRANCH  25  26
ATOM     26  O   UNL     1      -0.092   5.405   3.245  0.00  0.00    -0.462 OA
BRANCH  26  27
ATOM     27  C   UNL     1      -0.119   6.373   2.316  0.00  0.00    +0.304 C 
ATOM     28  O   UNL     1      -0.483   6.121   1.191  0.00  0.00    -0.251 OA
ATOM     29  C   UNL     1       0.303   7.774   2.675  0.00  0.00    +0.136 C 
ENDBRANCH  26  27
ENDBRANCH  25  26
ENDBRANCH   4  25
BRANCH   3  30
ATOM     30  O   UNL     1      -0.243   1.247   2.461  0.00  0.00    -0.455 OA
BRANCH  30  31
ATOM     31  C   UNL     1      -0.718   1.572   1.248  0.00  0.00    +0.304 C 
ATOM     32  O   UNL     1      -1.711   2.254   1.150  0.00  0.00    -0.251 OA
ATOM     33  C   UNL     1      -0.013   1.086   0.008  0.00  0.00    +0.136 C 
ENDBRANCH  30  31
ENDBRANCH   3  30
BRANCH   2  34
ATOM     34  O   UNL     1      -1.601   1.245   5.912  0.00  0.00    -0.456 OA
BRANCH  34  35
ATOM     35  C   UNL     1      -2.870   0.817   5.992  0.00  0.00    +0.304 C 
ATOM     36  O   UNL     1      -3.312   0.075   5.147  0.00  0.00    -0.251 OA
ATOM     37  C   UNL     1      -3.744   1.261   7.136  0.00  0.00    +0.136 C 
ENDBRANCH  34  35
ENDBRANCH   2  34
TORSDOF 11
