REMARK  Name = ZINC11439553
REMARK  8 active torsions:
REMARK  status: ('A' for Active; 'I' for Inactive)
REMARK    1  A    between atoms: C_6  and  C_7
REMARK    2  A    between atoms: C_10  and  C_12
REMARK    3  A    between atoms: C_12  and  O_13
REMARK    4  A    between atoms: O_13  and  C_14
REMARK    5  A    between atoms: C_14  and  C_16
REMARK    6  A    between atoms: C_16  and  C_17
REMARK    7  A    between atoms: C_17  and  N_18
REMARK    8  A    between atoms: N_21  and  C_22
REMARK                            x       y       z     vdW  Elec       q    Type
REMARK                         _______ _______ _______ _____ _____    ______ ____
ROOT
ATOM      1  C   UNL     1      -8.629   0.577   1.955  0.00  0.00    +0.139 C 
ENDROOT
BRANCH   1   2
ATOM      2  C   UNL     1      -9.551   0.922   3.096  0.00  0.00    +0.309 C 
ATOM      3  O   UNL     1      -9.156   1.617   4.002  0.00  0.00    -0.251 OA
BRANCH   2   4
ATOM      4  O   UNL     1     -10.810   0.458   3.106  0.00  0.00    -0.455 OA
BRANCH   4   5
ATOM      5  C   UNL     1     -11.642   0.830   4.236  0.00  0.00    +0.329 C 
BRANCH   5   9
ATOM      6  C   UNL     1     -15.075  -0.100   3.545  0.00  0.00    +0.248 A 
ATOM      7  N   UNL     1     -14.622  -1.145   4.197  0.00  0.00    -0.107 NA
ATOM      8  N   UNL     1     -13.388  -0.950   4.506  0.00  0.00    -0.108 NA
ATOM      9  C   UNL     1     -13.011   0.222   4.075  0.00  0.00    +0.255 A 
ATOM     10  O   UNL     1     -14.062   0.785   3.455  0.00  0.00    -0.417 OA
BRANCH   6  16
ATOM     11  C   UNL     1     -16.786   1.248   2.336  0.00  0.00    +0.014 A 
ATOM     12  C   UNL     1     -18.061   1.402   1.833  0.00  0.00    +0.021 A 
ATOM     13  C   UNL     1     -19.001   0.399   2.003  0.00  0.00    +0.041 A 
ATOM     14  C   UNL     1     -18.666  -0.765   2.673  0.00  0.00    +0.021 A 
ATOM     15  C   UNL     1     -17.393  -0.933   3.176  0.00  0.00    +0.014 A 
ATOM     16  C   UNL     1     -16.441   0.074   3.008  0.00  0.00    +0.039 A 
ATOM     17 CL   UNL     1     -20.606   0.604   1.373  0.00  0.00    -0.084 Cl
ENDBRANCH   6  16
ENDBRANCH   5   9
ENDBRANCH   4   5
ENDBRANCH   2   4
ENDBRANCH   1   2
BRANCH   1  18
ATOM     18  C   UNL     1      -7.264   1.227   2.188  0.00  0.00    +0.117 C 
BRANCH  18  19
ATOM     19  N   UNL     1      -6.368   0.892   1.079  0.00  0.00    -0.299 N 
ATOM     20  C   UNL     1      -5.103   1.358   1.069  0.00  0.00    +0.300 C 
ATOM     21  O   UNL     1      -4.706   2.058   1.981  0.00  0.00    -0.253 OA
ATOM     22  N   UNL     1      -4.279   1.049   0.049  0.00  0.00    -0.294 N 
ATOM     23  H   UNL     1      -6.684   0.334   0.351  0.00  0.00    +0.150 HD
ATOM     24  H   UNL     1      -4.595   0.491  -0.679  0.00  0.00    +0.151 HD
BRANCH  22  25
ATOM     25  C   UNL     1      -2.904   1.556   0.038  0.00  0.00    +0.037 C 
ATOM     26  C   UNL     1      -2.188   1.063  -1.221  0.00  0.00    +0.029 C 
ATOM     27  C   UNL     1      -0.753   1.593  -1.232  0.00  0.00    -0.008 C 
ATOM     28  C   UNL     1      -0.013   1.086   0.008  0.00  0.00    +0.007 C 
ATOM     29  C   UNL     1      -0.729   1.579   1.267  0.00  0.00    -0.008 C 
ATOM     30  C   UNL     1      -2.164   1.050   1.278  0.00  0.00    +0.029 C 
ATOM     31  C   UNL     1      -0.750   3.109   1.275  0.00  0.00    +0.007 C 
ATOM     32  C   UNL     1      -1.490   3.616   0.036  0.00  0.00    -0.008 C 
ATOM     33  C   UNL     1      -0.773   3.123  -1.223  0.00  0.00    +0.007 C 
ATOM     34  C   UNL     1      -2.925   3.086   0.047  0.00  0.00    +0.029 C 
ENDBRANCH  22  25
ENDBRANCH  18  19
ENDBRANCH   1  18
TORSDOF 8
