REMARK  Name = ZINC20644333
REMARK  9 active torsions:
REMARK  status: ('A' for Active; 'I' for Inactive)
REMARK    1  A    between atoms: C_6  and  C_7
REMARK    2  A    between atoms: N_9  and  C_10
REMARK    3  A    between atoms: C_10  and  C_11
REMARK    4  A    between atoms: C_18  and  S_29
REMARK    5  A    between atoms: N_19  and  C_22
REMARK    6  A    between atoms: C_22  and  C_23
REMARK    7  A    between atoms: S_29  and  C_30
REMARK    8  A    between atoms: C_30  and  C_31
REMARK    9  A    between atoms: N_33  and  C_34
REMARK                            x       y       z     vdW  Elec       q    Type
REMARK                         _______ _______ _______ _____ _____    ______ ____
ROOT
ATOM      1  C   UNL     1      -0.930   4.270   5.563  0.00  0.00    +0.014 A 
ATOM      2  C   UNL     1      -0.412   4.653   6.768  0.00  0.00    +0.016 A 
ATOM      3  C   UNL     1      -1.268   4.974   7.821  0.00  0.00    +0.065 A 
ATOM      4  C   UNL     1      -2.669   4.905   7.646  0.00  0.00    +0.080 A 
ATOM      5  C   UNL     1      -3.186   4.518   6.407  0.00  0.00    +0.041 A 
ATOM      6  C   UNL     1      -2.315   4.197   5.374  0.00  0.00    +0.039 A 
ATOM      7  N   UNL     1      -3.479   5.223   8.683  0.00  0.00    -0.223 NA
ATOM      8  C   UNL     1      -2.996   5.592   9.843  0.00  0.00    +0.173 A 
ATOM      9  N   UNL     1      -1.657   5.685  10.097  0.00  0.00    -0.285 N 
ATOM     10  C   UNL     1      -0.753   5.392   9.134  0.00  0.00    +0.262 A 
ATOM     11  O   UNL     1       0.443   5.471   9.347  0.00  0.00    -0.267 OA
ENDROOT
BRANCH   6  12
ATOM     12  C   UNL     1      -2.856   3.780   4.060  0.00  0.00    +0.244 C 
ATOM     13  O   UNL     1      -4.057   3.714   3.890  0.00  0.00    -0.270 OA
ATOM     14  N   UNL     1      -2.015   3.472   3.052  0.00  0.00    -0.309 N 
ATOM     15  H   UNL     1      -0.928   3.531   3.205  0.00  0.00    +0.149 HD
BRANCH  14  16
ATOM     16  C   UNL     1      -2.550   3.059   1.752  0.00  0.00    +0.136 C 
BRANCH  16  17
ATOM     17  C   UNL     1      -1.394   2.771   0.793  0.00  0.00    +0.135 C 
ATOM     18  C   UNL     1      -1.928   2.453  -0.626  0.00  0.00    +0.035 C 
ATOM     19  C   UNL     1      -0.778   1.606  -1.224  0.00  0.00    +0.031 C 
ATOM     20  C   UNL     1      -0.013   1.086   0.008  0.00  0.00    +0.160 C 
ATOM     21  O   UNL     1      -0.705   1.559   1.176  0.00  0.00    -0.375 OA
ENDBRANCH  16  17
ENDBRANCH  14  16
ENDBRANCH   6  12
BRANCH   9  22
ATOM     22  C   UNL     1      -1.197   6.106  11.423  0.00  0.00    +0.159 C 
BRANCH  22  23
ATOM     23  C   UNL     1      -1.023   4.875  12.316  0.00  0.00    +0.138 C 
ATOM     24  C   UNL     1      -0.605   5.303  13.745  0.00  0.00    +0.035 C 
ATOM     25  C   UNL     1      -1.107   4.091  14.575  0.00  0.00    +0.031 C 
ATOM     26  C   UNL     1      -2.383   3.677  13.811  0.00  0.00    +0.160 C 
ATOM     27  O   UNL     1      -2.278   4.197  12.480  0.00  0.00    -0.375 OA
ENDBRANCH  22  23
ENDBRANCH   9  22
BRANCH   8  28
ATOM     28  S   UNL     1      -4.126   5.987  11.136  0.00  0.00    -0.078 S 
BRANCH  28  29
ATOM     29  C   UNL     1      -5.695   5.702  10.281  0.00  0.00    +0.173 C 
BRANCH  29  30
ATOM     30  C   UNL     1      -6.838   5.986  11.220  0.00  0.00    +0.224 C 
ATOM     31  O   UNL     1      -6.614   6.346  12.357  0.00  0.00    -0.275 OA
ATOM     32  N   UNL     1      -8.110   5.840  10.798  0.00  0.00    -0.312 N 
ATOM     33  H   UNL     1      -8.313   5.514   9.767  0.00  0.00    +0.149 HD
BRANCH  32  34
ATOM     34  C   UNL     1      -9.221   6.116  11.712  0.00  0.00    +0.073 C 
ATOM     35  C   UNL     1      -9.572   4.847  12.515  0.00  0.00    +0.022 C 
ATOM     36  C   UNL     1     -11.116   4.890  12.637  0.00  0.00    +0.002 C 
ATOM     37  C   UNL     1     -11.553   5.439  11.256  0.00  0.00    +0.002 C 
ATOM     38  C   UNL     1     -10.481   6.492  10.911  0.00  0.00    +0.022 C 
ENDBRANCH  32  34
ENDBRANCH  29  30
ENDBRANCH  28  29
ENDBRANCH   8  28
TORSDOF 9
