REMARK  Name = ZINC39665250
REMARK  11 active torsions:
REMARK  status: ('A' for Active; 'I' for Inactive)
REMARK    1  A    between atoms: C_1  and  C_2
REMARK    2  A    between atoms: C_3  and  C_12
REMARK    3  A    between atoms: C_7  and  O_8
REMARK    4  A    between atoms: O_8  and  C_9
REMARK    5  A    between atoms: C_9  and  C_11
REMARK    6  A    between atoms: C_16  and  C_25
REMARK    7  A    between atoms: N_27  and  C_28
REMARK    8  A    between atoms: C_28  and  C_29
REMARK    9  A    between atoms: C_29  and  C_31
REMARK   10  A    between atoms: C_29  and  O_32
REMARK   11  A    between atoms: O_32  and  C_33
REMARK                            x       y       z     vdW  Elec       q    Type
REMARK                         _______ _______ _______ _____ _____    ______ ____
ROOT
ATOM      1  C   UNL     1       0.261  -0.449  -0.147  0.00  0.00    +0.247 C 
ATOM      2  O   UNL     1       0.180   0.762  -0.084  0.00  0.00    -0.270 OA
ATOM      3  N   UNL     1       0.489  -1.049  -1.332  0.00  0.00    -0.296 N 
ATOM      4  C   UNL     1       0.508  -2.501  -1.627  0.00  0.00    +0.121 C 
ATOM      5  C   UNL     1      -0.177  -2.628  -3.006  0.00  0.00    +0.100 C 
ATOM      6  C   UNL     1       0.005  -1.250  -3.664  0.00  0.00    -0.004 C 
ATOM      7  C   UNL     1       0.772  -0.404  -2.637  0.00  0.00    +0.115 C 
ATOM      8  C   UNL     1      -1.353  -0.617  -3.951  0.00  0.00    -0.010 C 
ATOM      9  C   UNL     1      -1.146   0.726  -4.656  0.00  0.00    -0.082 C 
ATOM     10  N   UNL     1      -0.408   0.515  -5.907  0.00  0.00    +0.379 N 
ATOM     11  C   UNL     1       0.932  -0.007  -5.616  0.00  0.00    -0.082 C 
ATOM     12  C   UNL     1       0.813  -1.381  -4.951  0.00  0.00    -0.010 C 
ATOM     13  H   UNL     1      -0.907  -0.146  -6.483  0.00  0.00    -0.086 HD
ATOM     14  H   UNL     1      -0.326   1.392  -6.399  0.00  0.00    -0.086 HD
ENDROOT
BRANCH   1  17
ATOM     15  C   UNL     1      -1.705   0.304   1.838  0.00  0.00    +0.048 C 
ATOM     16  C   UNL     1      -0.837  -0.911   2.041  0.00  0.00    +0.004 A 
ATOM     17  C   UNL     1       0.108  -1.265   1.077  0.00  0.00    +0.043 A 
ATOM     18  C   UNL     1       0.909  -2.391   1.272  0.00  0.00    +0.013 A 
ATOM     19  C   UNL     1       0.764  -3.151   2.415  0.00  0.00    +0.004 A 
ATOM     20  C   UNL     1      -0.173  -2.799   3.369  0.00  0.00    +0.047 A 
ATOM     21  C   UNL     1      -0.970  -1.677   3.186  0.00  0.00    +0.135 A 
BRANCH  21  22
ATOM     22  O   UNL     1      -1.886  -1.333   4.130  0.00  0.00    -0.426 OA
BRANCH  22  23
ATOM     23  C   UNL     1      -1.534  -0.415   5.045  0.00  0.00    +0.309 C 
ATOM     24  O   UNL     1      -0.415   0.041   5.043  0.00  0.00    -0.251 OA
ATOM     25  C   UNL     1      -2.535   0.046   6.073  0.00  0.00    +0.136 C 
ENDBRANCH  22  23
ENDBRANCH  21  22
ENDBRANCH   1  17
BRANCH   5  26
ATOM     26  C   UNL     1      -1.642  -2.942  -2.838  0.00  0.00    +0.218 C 
ATOM     27  O   UNL     1      -2.249  -2.508  -1.881  0.00  0.00    -0.275 OA
ATOM     28  N   UNL     1      -2.277  -3.704  -3.749  0.00  0.00    -0.312 N 
ATOM     29  H   UNL     1      -1.792  -4.051  -4.514  0.00  0.00    +0.149 HD
BRANCH  28  30
ATOM     30  C   UNL     1      -3.700  -4.009  -3.586  0.00  0.00    +0.148 C 
BRANCH  30  31
ATOM     31  C   UNL     1      -4.172  -4.885  -4.749  0.00  0.00    +0.187 C 
ATOM     32  C   UNL     1      -5.683  -5.100  -4.645  0.00  0.00    +0.053 C 
BRANCH  31  33
ATOM     33  O   UNL     1      -3.506  -6.148  -4.694  0.00  0.00    -0.488 OA
BRANCH  33  34
ATOM     34  C   UNL     1      -3.422  -6.852  -5.854  0.00  0.00    +0.121 A 
ATOM     35  C   UNL     1      -4.002  -6.354  -7.012  0.00  0.00    +0.045 A 
ATOM     36  C   UNL     1      -3.915  -7.071  -8.190  0.00  0.00    +0.004 A 
ATOM     37  C   UNL     1      -3.252  -8.284  -8.215  0.00  0.00    +0.000 A 
ATOM     38  C   UNL     1      -2.675  -8.783  -7.061  0.00  0.00    +0.004 A 
ATOM     39  C   UNL     1      -2.753  -8.066  -5.883  0.00  0.00    +0.045 A 
ENDBRANCH  33  34
ENDBRANCH  31  33
ENDBRANCH  30  31
ENDBRANCH  28  30
ENDBRANCH   5  26
TORSDOF 8
