REMARK  Name = ZINC36660447
REMARK  10 active torsions:
REMARK  status: ('A' for Active; 'I' for Inactive)
REMARK    1  A    between atoms: C_1  and  C_2
REMARK    2  A    between atoms: C_2  and  N_3
REMARK    3  A    between atoms: N_3  and  C_4
REMARK    4  A    between atoms: N_3  and  C_6
REMARK    5  A    between atoms: C_4  and  C_5
REMARK    6  A    between atoms: C_6  and  C_7
REMARK    7  A    between atoms: C_7  and  N_8
REMARK    8  A    between atoms: C_18  and  C_20
REMARK    9  A    between atoms: N_25  and  S_26
REMARK   10  A    between atoms: S_26  and  C_29
REMARK                            x       y       z     vdW  Elec       q    Type
REMARK                         _______ _______ _______ _____ _____    ______ ____
ROOT
ATOM      1  N   UNL     1      -2.294  -3.986   0.334  0.00  0.00    -0.251 N 
ATOM      2  C   UNL     1      -2.273  -4.581   1.585  0.00  0.00    +0.168 A 
ATOM      3  N   UNL     1      -2.454  -4.029   2.762  0.00  0.00    -0.224 NA
ATOM      4  C   UNL     1      -2.406  -4.738   3.911  0.00  0.00    +0.080 A 
ATOM      5  C   UNL     1      -2.582  -4.269   5.234  0.00  0.00    +0.029 A 
ATOM      6  C   UNL     1      -2.501  -5.128   6.298  0.00  0.00    +0.002 A 
ATOM      7  C   UNL     1      -2.245  -6.481   6.120  0.00  0.00    +0.001 A 
ATOM      8  C   UNL     1      -2.068  -6.973   4.840  0.00  0.00    +0.017 A 
ATOM      9  C   UNL     1      -2.148  -6.120   3.768  0.00  0.00    +0.041 A 
ATOM     10  S   UNL     1      -2.002  -6.297   2.006  0.00  0.00    -0.052 S 
ATOM     11  C   UNL     1      -2.189  -4.745  -0.775  0.00  0.00    +0.240 C 
ATOM     12  O   UNL     1      -2.117  -4.219  -1.865  0.00  0.00    -0.273 OA
ENDROOT
BRANCH  11  13
ATOM     13  C   UNL     1      -2.161  -6.248  -0.660  0.00  0.00    +0.166 C 
ATOM     14  C   UNL     1      -3.555  -6.769  -0.251  0.00  0.00    +0.031 C 
ATOM     15  C   UNL     1      -4.184  -7.182  -1.607  0.00  0.00    +0.019 C 
ATOM     16  C   UNL     1      -2.949  -7.724  -2.370  0.00  0.00    +0.110 C 
ATOM     17  N   UNL     1      -1.835  -6.843  -1.964  0.00  0.00    -0.165 NA
BRANCH  17  18
ATOM     18  S   UNL     1      -0.451  -6.569  -2.831  0.00  0.00    +0.062 S 
ATOM     19  O   UNL     1      -0.761  -6.846  -4.190  0.00  0.00    -0.153 OA
ATOM     20  O   UNL     1       0.051  -5.309  -2.407  0.00  0.00    -0.153 OA
BRANCH  18  21
ATOM     21  C   UNL     1       0.728  -7.777  -2.327  0.00  0.00    +0.106 A 
ATOM     22  C   UNL     1       1.577  -7.514  -1.268  0.00  0.00    +0.030 A 
ATOM     23  C   UNL     1       2.502  -8.461  -0.872  0.00  0.00    +0.022 A 
ATOM     24  C   UNL     1       2.579  -9.673  -1.536  0.00  0.00    +0.041 A 
ATOM     25  C   UNL     1       1.728  -9.936  -2.595  0.00  0.00    +0.022 A 
ATOM     26  C   UNL     1       0.800  -8.990  -2.986  0.00  0.00    +0.030 A 
ATOM     27 CL   UNL     1       3.741 -10.864  -1.039  0.00  0.00    -0.084 Cl
ENDBRANCH  18  21
ENDBRANCH  17  18
ENDBRANCH  11  13
BRANCH   1  28
ATOM     28  C   UNL     1      -2.429  -2.533   0.216  0.00  0.00    +0.097 C 
BRANCH  28  29
ATOM     29  C   UNL     1      -1.041  -1.899   0.098  0.00  0.00    -0.059 C 
BRANCH  29  30
ATOM     30  N   UNL     1      -1.180  -0.458  -0.150  0.00  0.00    +0.380 N 
ATOM     31  H   UNL     1      -1.765  -0.310  -0.959  0.00  0.00    -0.082 HD
BRANCH  30  33
ATOM     32  C   UNL     1      -2.053   1.660   0.717  0.00  0.00    -0.017 C 
ATOM     33  C   UNL     1      -1.794   0.183   1.021  0.00  0.00    -0.082 C 
ENDBRANCH  30  33
BRANCH  30  34
ATOM     34  C   UNL     1       0.145   0.128  -0.390  0.00  0.00    -0.082 C 
ATOM     35  C   UNL     1       0.725  -0.438  -1.688  0.00  0.00    -0.017 C 
ENDBRANCH  30  34
ENDBRANCH  29  30
ENDBRANCH  28  29
ENDBRANCH   1  28
TORSDOF 8
