REMARK  Name = ZINC17986770
REMARK  6 active torsions:
REMARK  status: ('A' for Active; 'I' for Inactive)
REMARK    1  A    between atoms: C_1  and  C_2
REMARK    2  A    between atoms: N_13  and  C_16
REMARK    3  A    between atoms: C_16  and  N_17
REMARK    4  A    between atoms: N_17  and  C_18
REMARK    5  A    between atoms: C_21  and  O_24
REMARK    6  A    between atoms: O_24  and  C_25
REMARK                            x       y       z     vdW  Elec       q    Type
REMARK                         _______ _______ _______ _____ _____    ______ ____
ROOT
ATOM      1  N   UNL     1      -1.321  -2.564   6.290  0.00  0.00    -0.328 N 
ATOM      2  H   UNL     1      -0.709  -2.111   6.890  0.00  0.00    +0.148 HD
ENDROOT
BRANCH   1   3
ATOM      3  C   UNL     1      -2.631  -2.095   6.141  0.00  0.00    +0.028 A 
ATOM      4  C   UNL     1      -3.510  -2.748   5.287  0.00  0.00    +0.026 A 
ATOM      5  C   UNL     1      -4.802  -2.285   5.141  0.00  0.00    +0.048 A 
ATOM      6  C   UNL     1      -5.223  -1.168   5.847  0.00  0.00    +0.129 A 
ATOM      7  C   UNL     1      -4.346  -0.515   6.701  0.00  0.00    +0.048 A 
ATOM      8  C   UNL     1      -3.054  -0.981   6.853  0.00  0.00    +0.026 A 
BRANCH   6   9
ATOM      9  O   UNL     1      -6.496  -0.712   5.702  0.00  0.00    -0.456 OA
BRANCH   9  10
ATOM     10  C   UNL     1      -6.863   0.391   6.407  0.00  0.00    +0.129 A 
ATOM     11  C   UNL     1      -6.697   1.654   5.857  0.00  0.00    +0.047 A 
ATOM     12  C   UNL     1      -7.071   2.773   6.576  0.00  0.00    +0.019 A 
ATOM     13  C   UNL     1      -7.610   2.635   7.842  0.00  0.00    +0.018 A 
ATOM     14  C   UNL     1      -7.777   1.377   8.392  0.00  0.00    +0.019 A 
ATOM     15  C   UNL     1      -7.409   0.255   7.675  0.00  0.00    +0.047 A 
ATOM     16 BR   UNL     1      -8.120   4.169   8.823  0.00  0.00    -0.050 Br
ENDBRANCH   9  10
ENDBRANCH   6   9
ENDBRANCH   1   3
BRANCH   1  17
ATOM     17  C   UNL     1      -0.874  -3.741   5.540  0.00  0.00    +0.221 C 
BRANCH  17  27
ATOM     18  C   UNL     1       1.369   1.329   2.050  0.00  0.00    +0.007 C 
ATOM     19  C   UNL     1       1.221  -0.170   1.781  0.00  0.00    -0.013 C 
ATOM     20  C   UNL     1      -0.228  -0.484   1.393  0.00  0.00    +0.004 C 
ATOM     21  C   UNL     1      -0.307  -1.954   0.997  0.00  0.00    +0.014 C 
ATOM     22  C   UNL     1       0.177  -2.877   2.076  0.00  0.00    +0.087 C 
ATOM     23  C   UNL     1       1.397  -2.439   2.873  0.00  0.00    +0.088 C 
ATOM     24  C   UNL     1       1.567  -0.952   3.041  0.00  0.00    +0.016 C 
ATOM     25  C   UNL     1       1.112  -3.067   4.236  0.00  0.00    +0.227 C 
ATOM     26  O   UNL     1       1.930  -3.304   5.098  0.00  0.00    -0.275 OA
ATOM     27  N   UNL     1      -0.208  -3.310   4.308  0.00  0.00    -0.225 N 
ATOM     28  C   UNL     1      -0.855  -3.104   3.159  0.00  0.00    +0.227 C 
ATOM     29  O   UNL     1      -2.058  -3.113   3.014  0.00  0.00    -0.275 OA
ENDBRANCH  17  27
ENDBRANCH   1  17
TORSDOF 5
