REMARK  Name = ZINC33384057
REMARK  7 active torsions:
REMARK  status: ('A' for Active; 'I' for Inactive)
REMARK    1  A    between atoms: C_4  and  C_7
REMARK    2  A    between atoms: C_8  and  C_9
REMARK    3  A    between atoms: C_9  and  N_22
REMARK    4  A    between atoms: N_13  and  C_16
REMARK    5  A    between atoms: N_22  and  C_23
REMARK    6  A    between atoms: C_26  and  S_29
REMARK    7  A    between atoms: S_29  and  N_32
REMARK                            x       y       z     vdW  Elec       q    Type
REMARK                         _______ _______ _______ _____ _____    ______ ____
ROOT
ATOM      1  C   UNL     1       2.369  -2.780   0.081  0.00  0.00    +0.137 C 
ATOM      2  C   UNL     1       2.481  -3.850  -1.025  0.00  0.00    +0.136 C 
ATOM      3  C   UNL     1       2.246  -5.149  -0.286  0.00  0.00    +0.225 C 
ATOM      4  O   UNL     1       2.248  -6.253  -0.787  0.00  0.00    -0.275 OA
ATOM      5  N   UNL     1       2.036  -4.887   1.010  0.00  0.00    -0.237 N 
ATOM      6  C   UNL     1       2.083  -3.587   1.328  0.00  0.00    +0.250 C 
ATOM      7  O   UNL     1       1.922  -3.129   2.439  0.00  0.00    -0.272 OA
ENDROOT
BRANCH   5   8
ATOM      8  C   UNL     1       1.776  -5.936   2.000  0.00  0.00    +0.084 C 
ATOM      9  C   UNL     1       2.964  -6.899   2.046  0.00  0.00    +0.023 C 
ATOM     10  C   UNL     1       2.693  -7.994   3.079  0.00  0.00    +0.002 C 
ATOM     11  C   UNL     1       1.429  -8.762   2.688  0.00  0.00    +0.000 C 
ATOM     12  C   UNL     1       0.241  -7.799   2.642  0.00  0.00    +0.002 C 
ATOM     13  C   UNL     1       0.512  -6.704   1.609  0.00  0.00    +0.023 C 
ENDBRANCH   5   8
BRANCH   1  15
ATOM     14  C   UNL     1       3.830  -0.866  -0.397  0.00  0.00    +0.006 C 
ATOM     15  C   UNL     1       3.667  -2.026   0.222  0.00  0.00    +0.009 C 
BRANCH  14  19
ATOM     16  C   UNL     1       1.052   0.370  -3.363  0.00  0.00    +0.000 A 
ATOM     17  C   UNL     1       1.446   1.256  -2.376  0.00  0.00    +0.001 A 
ATOM     18  C   UNL     1       2.348   0.861  -1.409  0.00  0.00    +0.008 A 
ATOM     19  C   UNL     1       2.863  -0.436  -1.429  0.00  0.00    -0.025 A 
ATOM     20  C   UNL     1       2.462  -1.325  -2.427  0.00  0.00    +0.008 A 
ATOM     21  C   UNL     1       1.560  -0.917  -3.388  0.00  0.00    +0.001 A 
ENDBRANCH  14  19
ENDBRANCH   1  15
BRANCH   1  22
ATOM     22  N   UNL     1       1.267  -1.857  -0.200  0.00  0.00    -0.327 N 
ATOM     23  H   UNL     1       0.755  -1.948  -1.019  0.00  0.00    +0.147 HD
BRANCH  22  24
ATOM     24  C   UNL     1       0.953  -0.846   0.711  0.00  0.00    +0.028 A 
ATOM     25  C   UNL     1       1.781  -0.610   1.801  0.00  0.00    +0.025 A 
ATOM     26  C   UNL     1       1.468   0.391   2.700  0.00  0.00    +0.030 A 
ATOM     27  C   UNL     1       0.332   1.157   2.516  0.00  0.00    +0.106 A 
ATOM     28  C   UNL     1      -0.495   0.925   1.432  0.00  0.00    +0.030 A 
ATOM     29  C   UNL     1      -0.185  -0.071   0.526  0.00  0.00    +0.025 A 
BRANCH  27  30
ATOM     30  S   UNL     1      -0.065   2.432   3.666  0.00  0.00    +0.061 S 
ATOM     31  O   UNL     1      -1.466   2.643   3.571  0.00  0.00    -0.153 OA
ATOM     32  O   UNL     1       0.573   2.089   4.889  0.00  0.00    -0.153 OA
BRANCH  30  33
ATOM     33  N   UNL     1       0.661   3.820   3.127  0.00  0.00    -0.177 NA
ATOM     34  C   UNL     1       2.017   4.269   3.476  0.00  0.00    +0.109 C 
ATOM     35  C   UNL     1       2.249   5.619   2.765  0.00  0.00    +0.018 C 
ATOM     36  C   UNL     1       0.807   6.131   2.512  0.00  0.00    +0.018 C 
ATOM     37  C   UNL     1       0.056   4.807   2.214  0.00  0.00    +0.109 C 
ENDBRANCH  30  33
ENDBRANCH  27  30
ENDBRANCH  22  24
ENDBRANCH   1  22
TORSDOF 7
