REMARK  Name = ZINC01026529
REMARK  6 active torsions:
REMARK  status: ('A' for Active; 'I' for Inactive)
REMARK    1  A    between atoms: C_1  and  C_2
REMARK    2  A    between atoms: C_10  and  S_11
REMARK    3  A    between atoms: S_11  and  C_12
REMARK    4  A    between atoms: C_17  and  N_18
REMARK    5  A    between atoms: N_18  and  S_19
REMARK    6  A    between atoms: S_19  and  C_22
REMARK                            x       y       z     vdW  Elec       q    Type
REMARK                         _______ _______ _______ _____ _____    ______ ____
ROOT
ATOM      1  C   UNL     1       1.976  -2.159  -3.771  0.00  0.00    +0.037 A 
ATOM      2  C   UNL     1       3.024  -1.901  -4.642  0.00  0.00    +0.017 A 
ATOM      3  C   UNL     1       4.325  -1.887  -4.174  0.00  0.00    +0.001 A 
ATOM      4  C   UNL     1       4.586  -2.131  -2.838  0.00  0.00    +0.002 A 
ATOM      5  C   UNL     1       3.547  -2.383  -1.961  0.00  0.00    +0.025 A 
ATOM      6  C   UNL     1       2.240  -2.405  -2.423  0.00  0.00    +0.062 A 
ENDROOT
BRANCH   6   7
ATOM      7  N   UNL     1       1.187  -2.666  -1.538  0.00  0.00    -0.215 N 
ATOM      8  H   UNL     1       0.415  -3.170  -1.838  0.00  0.00    +0.174 HD
BRANCH   7   9
ATOM      9  S   UNL     1       1.260  -2.114   0.022  0.00  0.00    +0.072 S 
ATOM     10  O   UNL     1       2.492  -2.576   0.559  0.00  0.00    -0.150 OA
ATOM     11  O   UNL     1       0.007  -2.418   0.619  0.00  0.00    -0.150 OA
BRANCH   9  12
ATOM     12  C   UNL     1       1.370  -0.357  -0.052  0.00  0.00    +0.109 A 
ATOM     13  C   UNL     1       0.218   0.408  -0.052  0.00  0.00    +0.030 A 
ATOM     14  C   UNL     1       0.303   1.786  -0.109  0.00  0.00    +0.022 A 
ATOM     15  C   UNL     1       1.542   2.400  -0.167  0.00  0.00    +0.041 A 
ATOM     16  C   UNL     1       2.694   1.634  -0.167  0.00  0.00    +0.022 A 
ATOM     17  C   UNL     1       2.607   0.256  -0.110  0.00  0.00    +0.030 A 
ATOM     18 CL   UNL     1       1.650   4.131  -0.240  0.00  0.00    -0.084 Cl
ENDBRANCH   9  12
ENDBRANCH   7   9
ENDBRANCH   6   7
BRANCH   1  19
ATOM     19  S   UNL     1       0.317  -2.177  -4.364  0.00  0.00    -0.067 S 
BRANCH  19  29
ATOM     20  C   UNL     1      -3.138  -7.645  -5.184  0.00  0.00    +0.046 C 
ATOM     21  C   UNL     1      -2.771  -6.185  -5.109  0.00  0.00    -0.017 A 
ATOM     22  C   UNL     1      -3.701  -5.245  -5.363  0.00  0.00    +0.051 A 
ATOM     23  S   UNL     1      -2.797  -3.721  -5.150  0.00  0.00    -0.092 S 
ATOM     24  C   UNL     1      -1.221  -4.418  -4.732  0.00  0.00    +0.070 A 
ATOM     25  C   UNL     1      -1.459  -5.809  -4.774  0.00  0.00    +0.085 A 
ATOM     26  N   UNL     1      -0.391  -6.594  -4.486  0.00  0.00    -0.235 NA
ATOM     27  C   UNL     1       0.774  -6.079  -4.190  0.00  0.00    +0.223 A 
ATOM     28  N   UNL     1       1.011  -4.779  -4.152  0.00  0.00    -0.228 NA
ATOM     29  C   UNL     1       0.029  -3.914  -4.414  0.00  0.00    +0.119 A 
ENDBRANCH  19  29
ENDBRANCH   1  19
TORSDOF 5
