REMARK  Name = ZINC24215211
REMARK  9 active torsions:
REMARK  status: ('A' for Active; 'I' for Inactive)
REMARK    1  A    between atoms: C_1  and  C_2
REMARK    2  A    between atoms: C_3  and  C_14
REMARK    3  A    between atoms: C_4  and  C_13
REMARK    4  A    between atoms: N_5  and  C_7
REMARK    5  A    between atoms: N_21  and  C_22
REMARK    6  A    between atoms: C_22  and  C_23
REMARK    7  A    between atoms: C_23  and  C_24
REMARK    8  A    between atoms: N_26  and  C_27
REMARK    9  A    between atoms: C_28  and  C_32
REMARK                            x       y       z     vdW  Elec       q    Type
REMARK                         _______ _______ _______ _____ _____    ______ ____
ROOT
ATOM      1  C   UNL     1       2.001   1.819   1.220  0.00  0.00    +0.054 C 
ATOM      2  C   UNL     1       1.742   0.421   1.707  0.00  0.00    +0.204 C 
ATOM      3  O   UNL     1       2.410  -0.008   2.623  0.00  0.00    -0.277 OA
ATOM      4  N   UNL     1       0.805  -0.369   1.173  0.00  0.00    -0.318 N 
ATOM      5  C   UNL     1      -0.028   0.039   0.045  0.00  0.00    +0.085 C 
ATOM      6  C   UNL     1       0.005   1.560  -0.108  0.00  0.00    -0.058 C 
ATOM      7  N   UNL     1       1.408   2.005  -0.111  0.00  0.00    +0.391 N 
ATOM      8  H   UNL     1       0.675  -1.365   1.620  0.00  0.00    +0.149 HD
ATOM      9  H   UNL     1       1.970   1.390  -0.830  0.00  0.00    -0.080 HD
ENDROOT
BRANCH   1  12
ATOM     10  C   UNL     1       3.951   0.674  -1.000  0.00  0.00    +0.068 C 
ATOM     11  C   UNL     1       4.349   1.548   0.161  0.00  0.00    +0.063 A 
ATOM     12  C   UNL     1       3.488   2.053   1.141  0.00  0.00    -0.009 A 
ATOM     13  C   UNL     1       4.224   2.793   2.002  0.00  0.00    +0.044 A 
ATOM     14  N   UNL     1       5.510   2.751   1.585  0.00  0.00    -0.237 N 
ATOM     15  N   UNL     1       5.561   1.966   0.425  0.00  0.00    -0.171 NA
ATOM     16  C   UNL     1       3.705   3.529   3.210  0.00  0.00    +0.066 C 
BRANCH  14  17
ATOM     17  C   UNL     1       6.598   3.385   2.200  0.00  0.00    +0.066 A 
ATOM     18  C   UNL     1       7.560   4.022   1.427  0.00  0.00    +0.028 A 
ATOM     19  C   UNL     1       8.628   4.651   2.037  0.00  0.00    +0.002 A 
ATOM     20  C   UNL     1       8.746   4.637   3.415  0.00  0.00    +0.000 A 
ATOM     21  C   UNL     1       7.792   3.999   4.187  0.00  0.00    +0.002 A 
ATOM     22  C   UNL     1       6.719   3.373   3.583  0.00  0.00    +0.028 A 
ENDBRANCH  14  17
ENDBRANCH   1  12
BRANCH   7  23
ATOM     23  C   UNL     1       1.517   3.404  -0.545  0.00  0.00    -0.068 C 
BRANCH  23  24
ATOM     24  C   UNL     1       0.850   4.312   0.490  0.00  0.00    +0.078 C 
BRANCH  24  25
ATOM     25  C   UNL     1       0.961   5.747   0.045  0.00  0.00    +0.216 C 
ATOM     26  O   UNL     1       1.519   6.018  -0.997  0.00  0.00    -0.276 OA
ATOM     27  N   UNL     1       0.440   6.731   0.805  0.00  0.00    -0.279 N 
ATOM     28  H   UNL     1      -0.066   6.486   1.750  0.00  0.00    +0.155 HD
BRANCH  27  29
ATOM     29  C   UNL     1       0.543   8.053   0.395  0.00  0.00    +0.089 A 
ATOM     30  C   UNL     1       0.074   9.194   1.035  0.00  0.00    +0.080 A 
ATOM     31  C   UNL     1       0.322  10.455   0.378  0.00  0.00    +0.028 A 
ATOM     32  C   UNL     1       0.983  10.418  -0.794  0.00  0.00    +0.048 A 
ATOM     33  S   UNL     1       1.292   8.681  -1.034  0.00  0.00    -0.081 S 
BRANCH  30  34
ATOM     34  C   UNL     1      -0.620   9.121   2.285  0.00  0.00    +0.102 C 
ATOM     35  N   UNL     1      -1.172   9.064   3.276  0.00  0.00    -0.191 NA
ENDBRANCH  30  34
ENDBRANCH  27  29
ENDBRANCH  24  25
ENDBRANCH  23  24
ENDBRANCH   7  23
TORSDOF 7
