REMARK  Name = ZINC63747031
REMARK  6 active torsions:
REMARK  status: ('A' for Active; 'I' for Inactive)
REMARK    1  A    between atoms: C_1  and  C_2
REMARK    2  A    between atoms: C_7  and  C_12
REMARK    3  A    between atoms: C_12  and  N_13
REMARK    4  A    between atoms: C_14  and  C_16
REMARK    5  A    between atoms: C_19  and  C_22
REMARK    6  A    between atoms: C_25  and  N_28
REMARK                            x       y       z     vdW  Elec       q    Type
REMARK                         _______ _______ _______ _____ _____    ______ ____
ROOT
ATOM      1  C   UNL     1      -4.783  -4.211   1.530  0.00  0.00    +0.378 C 
ATOM      2  N   UNL     1      -4.927  -3.063   2.439  0.00  0.00    -0.282 N 
ATOM      3  C   UNL     1      -6.219  -3.102   2.931  0.00  0.00    +0.168 C 
ATOM      4  N   UNL     1      -6.873  -4.108   2.448  0.00  0.00    -0.066 NA
ATOM      5  O   UNL     1      -6.063  -4.861   1.561  0.00  0.00    -0.360 OA
ATOM      6  H   UNL     1      -4.246  -2.406   2.653  0.00  0.00    +0.152 HD
ENDROOT
BRANCH   3   7
ATOM      7  C   UNL     1      -6.780  -2.121   3.885  0.00  0.00    +0.018 A 
ATOM      8  C   UNL     1      -5.993  -1.064   4.345  0.00  0.00    +0.013 A 
ATOM      9  C   UNL     1      -6.518  -0.152   5.234  0.00  0.00    +0.024 A 
ATOM     10  C   UNL     1      -7.831  -0.283   5.673  0.00  0.00    +0.030 A 
ATOM     11  C   UNL     1      -8.617  -1.336   5.217  0.00  0.00    +0.024 A 
ATOM     12  C   UNL     1      -8.100  -2.247   4.323  0.00  0.00    +0.013 A 
BRANCH  10  13
ATOM     13  N   UNL     1      -8.359   0.641   6.572  0.00  0.00    -0.330 N 
ATOM     14  C   UNL     1      -9.678   0.403   7.116  0.00  0.00    +0.105 C 
ATOM     15  C   UNL     1     -10.744   1.043   6.193  0.00  0.00    +0.019 C 
ATOM     16  C   UNL     1     -10.696   2.510   6.296  0.00  0.00    +0.002 C 
ATOM     17  C   UNL     1      -9.379   3.129   5.839  0.00  0.00    +0.002 C 
ATOM     18  C   UNL     1      -8.393   3.110   6.981  0.00  0.00    +0.019 C 
ATOM     19  C   UNL     1      -7.548   1.820   6.935  0.00  0.00    +0.105 C 
ENDBRANCH  10  13
ENDBRANCH   3   7
BRANCH   1  21
ATOM     20  N   UNL     1      -2.412  -4.779   1.947  0.00  0.00    -0.307 N 
ATOM     21  C   UNL     1      -3.708  -5.143   2.025  0.00  0.00    +0.276 C 
ATOM     22  O   UNL     1      -4.007  -6.220   2.495  0.00  0.00    -0.270 OA
ATOM     23  H   UNL     1      -2.172  -3.917   1.571  0.00  0.00    +0.149 HD
BRANCH  20  24
ATOM     24  C   UNL     1      -1.366  -5.685   2.429  0.00  0.00    +0.151 C 
BRANCH  24  31
ATOM     25  C   UNL     1       0.812   0.852   1.168  0.00  0.00    +0.044 C 
ATOM     26  C   UNL     1       0.655  -0.642   1.041  0.00  0.00    -0.048 A 
ATOM     27  C   UNL     1       0.741  -1.224  -0.236  0.00  0.00    +0.005 A 
ATOM     28  C   UNL     1       0.612  -2.550  -0.441  0.00  0.00    +0.027 A 
ATOM     29  C   UNL     1       0.372  -3.440   0.704  0.00  0.00    +0.060 A 
ATOM     30  N   UNL     1       0.210  -4.728   0.805  0.00  0.00    -0.362 N 
ATOM     31  C   UNL     1       0.004  -5.036   2.225  0.00  0.00    +0.191 C 
ATOM     32  N   UNL     1       0.067  -3.755   2.940  0.00  0.00    -0.362 N 
ATOM     33  C   UNL     1       0.281  -2.824   2.056  0.00  0.00    +0.060 A 
ATOM     34  C   UNL     1       0.443  -1.367   2.158  0.00  0.00    +0.030 A 
ATOM     35  H   UNL     1       0.223  -5.367   0.075  0.00  0.00    +0.162 HD
ATOM     36  H   UNL     1      -0.033  -3.625   3.896  0.00  0.00    +0.162 HD
ENDBRANCH  24  31
ENDBRANCH  20  24
ENDBRANCH   1  21
TORSDOF 5
