REMARK  Name = ZINC08924213
REMARK  9 active torsions:
REMARK  status: ('A' for Active; 'I' for Inactive)
REMARK    1  A    between atoms: C_1  and  C_2
REMARK    2  A    between atoms: C_5  and  C_8
REMARK    3  A    between atoms: C_9  and  S_18
REMARK    4  A    between atoms: S_18  and  C_19
REMARK    5  A    between atoms: C_19  and  C_20
REMARK    6  A    between atoms: C_20  and  N_21
REMARK    7  A    between atoms: C_22  and  C_24
REMARK    8  A    between atoms: C_28  and  N_31
REMARK    9  A    between atoms: C_29  and  C_30
REMARK                            x       y       z     vdW  Elec       q    Type
REMARK                         _______ _______ _______ _____ _____    ______ ____
ROOT
ATOM      1  C   UNL     1      -4.467   8.332   0.478  0.00  0.00    +0.061 A 
ATOM      2  C   UNL     1      -3.533   8.071   1.435  0.00  0.00    +0.041 A 
ATOM      3  C   UNL     1      -4.228   8.092   2.725  0.00  0.00    +0.014 A 
ATOM      4  C   UNL     1      -3.816   7.905   4.046  0.00  0.00    +0.011 A 
ATOM      5  C   UNL     1      -4.727   7.990   5.060  0.00  0.00    +0.001 A 
ATOM      6  C   UNL     1      -6.062   8.261   4.788  0.00  0.00    +0.002 A 
ATOM      7  C   UNL     1      -6.490   8.450   3.493  0.00  0.00    +0.026 A 
ATOM      8  C   UNL     1      -5.580   8.367   2.444  0.00  0.00    +0.048 A 
ATOM      9  N   UNL     1      -5.702   8.505   1.078  0.00  0.00    -0.353 N 
ATOM     10  H   UNL     1      -6.528   8.698   0.609  0.00  0.00    +0.166 HD
ENDROOT
BRANCH   1  15
ATOM     11  C   UNL     1      -3.442   8.646  -5.174  0.00  0.00    +0.044 C 
ATOM     12  C   UNL     1      -3.710   8.564  -3.693  0.00  0.00    -0.050 A 
ATOM     13  C   UNL     1      -4.809   7.861  -3.231  0.00  0.00    +0.004 A 
ATOM     14  C   UNL     1      -5.061   7.781  -1.877  0.00  0.00    +0.010 A 
ATOM     15  C   UNL     1      -4.204   8.412  -0.972  0.00  0.00    -0.001 A 
ATOM     16  C   UNL     1      -3.100   9.125  -1.446  0.00  0.00    +0.010 A 
ATOM     17  C   UNL     1      -2.857   9.192  -2.803  0.00  0.00    +0.004 A 
ENDBRANCH   1  15
BRANCH   2  18
ATOM     18  S   UNL     1      -1.816   7.774   1.172  0.00  0.00    -0.121 S 
BRANCH  18  19
ATOM     19  C   UNL     1      -1.710   5.975   0.961  0.00  0.00    +0.093 C 
BRANCH  19  20
ATOM     20  C   UNL     1      -0.253   5.575   0.722  0.00  0.00    +0.115 C 
BRANCH  20  21
ATOM     21  N   UNL     1      -0.167   4.122   0.551  0.00  0.00    -0.311 N 
ATOM     22  C   UNL     1       1.028   3.540   0.328  0.00  0.00    +0.244 C 
ATOM     23  O   UNL     1       2.034   4.219   0.267  0.00  0.00    -0.270 OA
ATOM     24  H   UNL     1      -0.969   3.580   0.600  0.00  0.00    +0.149 HD
BRANCH  22  25
ATOM     25  C   UNL     1       1.115   2.074   0.156  0.00  0.00    +0.042 A 
ATOM     26  C   UNL     1      -0.049   1.306   0.091  0.00  0.00    +0.013 A 
ATOM     27  C   UNL     1       0.039  -0.061  -0.070  0.00  0.00    +0.003 A 
ATOM     28  C   UNL     1       1.277  -0.672  -0.166  0.00  0.00    +0.033 A 
ATOM     29  C   UNL     1       2.434   0.084  -0.102  0.00  0.00    +0.130 A 
ATOM     30  C   UNL     1       2.360   1.452   0.059  0.00  0.00    -0.008 A 
ATOM     31  C   UNL     1       3.622   2.274   0.129  0.00  0.00    +0.047 C 
BRANCH  29  32
ATOM     32  N   UNL     1       3.754  -0.577  -0.206  0.00  0.00    +0.057 N 
ATOM     33  O   UNL     1       3.827  -1.793  -0.224  0.00  0.00    -0.126 OA
ATOM     34  O   UNL     1       4.768   0.095  -0.273  0.00  0.00    -0.126 OA
ENDBRANCH  29  32
ENDBRANCH  22  25
ENDBRANCH  20  21
ENDBRANCH  19  20
ENDBRANCH  18  19
ENDBRANCH   2  18
TORSDOF 7
