REMARK  Name = ZINC36205617
REMARK  14 active torsions:
REMARK  status: ('A' for Active; 'I' for Inactive)
REMARK    1  A    between atoms: C_1  and  C_2
REMARK    2  A    between atoms: C_5  and  C_8
REMARK    3  A    between atoms: C_17  and  C_19
REMARK    4  A    between atoms: C_19  and  N_20
REMARK    5  A    between atoms: N_20  and  C_21
REMARK    6  A    between atoms: N_20  and  C_34
REMARK    7  A    between atoms: C_21  and  C_22
REMARK    8  A    between atoms: C_22  and  C_24
REMARK    9  A    between atoms: C_22  and  O_33
REMARK   10  A    between atoms: C_24  and  O_25
REMARK   11  A    between atoms: O_25  and  C_26
REMARK   12  A    between atoms: C_26  and  C_27
REMARK   13  A    between atoms: C_34  and  C_35
REMARK   14  A    between atoms: C_34  and  C_36
REMARK                            x       y       z     vdW  Elec       q    Type
REMARK                         _______ _______ _______ _____ _____    ______ ____
ROOT
ATOM      1  C   UNL     1       4.080  -7.792   2.738  0.00  0.00    -0.003 C 
ENDROOT
BRANCH   1  11
ATOM      2  C   UNL     1       3.438  -4.400  -1.797  0.00  0.00    +0.004 A 
ATOM      3  C   UNL     1       2.735  -4.992  -2.793  0.00  0.00    +0.056 A 
ATOM      4  S   UNL     1       2.354  -6.602  -2.128  0.00  0.00    -0.076 S 
ATOM      5  C   UNL     1       3.139  -6.443  -0.545  0.00  0.00    +0.116 A 
ATOM      6  C   UNL     1       3.683  -5.149  -0.571  0.00  0.00    +0.080 A 
ATOM      7  C   UNL     1       4.394  -4.751   0.607  0.00  0.00    +0.260 A 
ATOM      8  O   UNL     1       4.897  -3.643   0.681  0.00  0.00    -0.267 OA
ATOM      9  N   UNL     1       4.496  -5.618   1.631  0.00  0.00    -0.312 N 
ATOM     10  H   UNL     1       4.976  -5.354   2.431  0.00  0.00    +0.170 HD
ATOM     11  C   UNL     1       3.941  -6.855   1.566  0.00  0.00    +0.094 A 
ATOM     12  N   UNL     1       3.278  -7.243   0.509  0.00  0.00    -0.229 NA
BRANCH   2  17
ATOM     13  C   UNL     1       5.433   0.967  -2.409  0.00  0.00    +0.044 C 
ATOM     14  C   UNL     1       4.911  -0.438  -2.249  0.00  0.00    -0.050 A 
ATOM     15  C   UNL     1       5.142  -1.376  -3.239  0.00  0.00    +0.004 A 
ATOM     16  C   UNL     1       4.666  -2.663  -3.098  0.00  0.00    +0.009 A 
ATOM     17  C   UNL     1       3.952  -3.018  -1.954  0.00  0.00    -0.017 A 
ATOM     18  C   UNL     1       3.722  -2.069  -0.960  0.00  0.00    +0.009 A 
ATOM     19  C   UNL     1       4.207  -0.785  -1.110  0.00  0.00    +0.004 A 
ENDBRANCH   2  17
ENDBRANCH   1  11
BRANCH   1  20
ATOM     20  N   UNL     1       3.246  -8.981   2.517  0.00  0.00    +0.388 N 
ATOM     21  H   UNL     1       3.250  -9.217   1.536  0.00  0.00    -0.081 HD
BRANCH  20  22
ATOM     22  C   UNL     1       1.869  -8.699   2.946  0.00  0.00    -0.074 C 
ATOM     23  C   UNL     1       1.865  -8.324   4.429  0.00  0.00    -0.014 C 
ATOM     24  C   UNL     1       1.306  -7.538   2.125  0.00  0.00    -0.014 C 
ENDBRANCH  20  22
BRANCH  20  25
ATOM     25  C   UNL     1       3.781 -10.106   3.295  0.00  0.00    -0.044 C 
BRANCH  25  26
ATOM     26  C   UNL     1       3.003 -11.378   2.952  0.00  0.00    +0.124 C 
BRANCH  26  27
ATOM     27  O   UNL     1       3.165 -11.677   1.564  0.00  0.00    -0.391 OA
ATOM     28  H   UNL     1       4.083 -11.824   1.299  0.00  0.00    +0.210 HD
ENDBRANCH  26  27
BRANCH  26  29
ATOM     29  C   UNL     1       3.534 -12.543   3.791  0.00  0.00    +0.189 C 
BRANCH  29  30
ATOM     30  O   UNL     1       2.733 -13.702   3.557  0.00  0.00    -0.373 OA
BRANCH  30  31
ATOM     31  C   UNL     1       3.147 -14.853   4.296  0.00  0.00    +0.195 C 
BRANCH  31  32
ATOM     32  C   UNL     1       2.237 -16.011   3.975  0.00  0.00    -0.022 A 
ATOM     33  C   UNL     1       1.094 -16.220   4.724  0.00  0.00    +0.006 A 
ATOM     34  C   UNL     1       0.259 -17.282   4.429  0.00  0.00    +0.000 A 
ATOM     35  C   UNL     1       0.567 -18.134   3.385  0.00  0.00    +0.000 A 
ATOM     36  C   UNL     1       1.709 -17.924   2.636  0.00  0.00    +0.000 A 
ATOM     37  C   UNL     1       2.542 -16.860   2.928  0.00  0.00    +0.006 A 
ENDBRANCH  31  32
ENDBRANCH  30  31
ENDBRANCH  29  30
ENDBRANCH  26  29
ENDBRANCH  25  26
ENDBRANCH  20  25
ENDBRANCH   1  20
TORSDOF 11
