REMARK  Name = ZINC02544563
REMARK  7 active torsions:
REMARK  status: ('A' for Active; 'I' for Inactive)
REMARK    1  A    between atoms: C_1  and  C_2
REMARK    2  A    between atoms: C_5  and  N_8
REMARK    3  A    between atoms: C_9  and  C_18
REMARK    4  A    between atoms: C_12  and  S_13
REMARK    5  A    between atoms: S_13  and  C_14
REMARK    6  A    between atoms: C_14  and  C_15
REMARK    7  A    between atoms: C_15  and  C_17
REMARK                            x       y       z     vdW  Elec       q    Type
REMARK                         _______ _______ _______ _____ _____    ______ ____
ROOT
ATOM      1  N   UNL     1      -1.376  -2.142   0.191  0.00  0.00    -0.270 N 
ATOM      2  C   UNL     1      -1.274  -0.767   0.160  0.00  0.00    +0.169 A 
ATOM      3  N   UNL     1      -2.478  -0.297  -0.071  0.00  0.00    -0.128 NA
ATOM      4  N   UNL     1      -3.315  -1.266  -0.180  0.00  0.00    -0.122 NA
ATOM      5  C   UNL     1      -2.697  -2.417  -0.025  0.00  0.00    +0.197 A 
ENDROOT
BRANCH   1  10
ATOM      6  C   UNL     1       2.813  -5.874   1.049  0.00  0.00    +0.044 C 
ATOM      7  C   UNL     1       1.700  -4.883   0.821  0.00  0.00    -0.050 A 
ATOM      8  C   UNL     1       0.707  -4.730   1.771  0.00  0.00    +0.005 A 
ATOM      9  C   UNL     1      -0.313  -3.822   1.565  0.00  0.00    +0.026 A 
ATOM     10  C   UNL     1      -0.342  -3.064   0.403  0.00  0.00    +0.051 A 
ATOM     11  C   UNL     1       0.653  -3.224  -0.552  0.00  0.00    +0.026 A 
ATOM     12  C   UNL     1       1.675  -4.129  -0.338  0.00  0.00    +0.005 A 
ENDBRANCH   1  10
BRANCH   2  13
ATOM     13  C   UNL     1      -0.041   0.026   0.345  0.00  0.00    +0.022 A 
ATOM     14  C   UNL     1       1.097  -0.538   0.934  0.00  0.00    +0.031 A 
ATOM     15  C   UNL     1       2.226   0.238   1.087  0.00  0.00    +0.111 A 
ATOM     16  N   UNL     1       2.242   1.496   0.686  0.00  0.00    -0.263 NA
ATOM     17  C   UNL     1       1.192   2.067   0.126  0.00  0.00    +0.111 A 
ATOM     18  C   UNL     1       0.022   1.364  -0.065  0.00  0.00    +0.031 A 
ENDBRANCH   2  13
BRANCH   5  19
ATOM     19  S   UNL     1      -3.435  -4.016  -0.091  0.00  0.00    -0.081 S 
BRANCH  19  20
ATOM     20  C   UNL     1      -5.155  -3.556  -0.413  0.00  0.00    +0.107 C 
BRANCH  20  21
ATOM     21  C   UNL     1      -5.998  -4.801  -0.511  0.00  0.00    -0.069 C 
ATOM     22  C   UNL     1      -6.793  -5.134   0.475  0.00  0.00    +0.008 C 
ATOM     23  C   UNL     1      -5.927  -5.663  -1.745  0.00  0.00    +0.039 C 
ENDBRANCH  20  21
ENDBRANCH  19  20
ENDBRANCH   5  19
TORSDOF 5
