REMARK  Name = ZINC63537959
REMARK  6 active torsions:
REMARK  status: ('A' for Active; 'I' for Inactive)
REMARK    1  A    between atoms: C_1  and  C_2
REMARK    2  A    between atoms: C_5  and  C_8
REMARK    3  A    between atoms: C_11  and  C_35
REMARK    4  A    between atoms: C_16  and  C_19
REMARK    5  A    between atoms: N_21  and  C_22
REMARK    6  A    between atoms: C_22  and  C_23
REMARK                            x       y       z     vdW  Elec       q    Type
REMARK                         _______ _______ _______ _____ _____    ______ ____
ROOT
ATOM      1  C   UNL     1       0.059  -4.275  -0.021  0.00  0.00    +0.112 C 
ATOM      2  C   UNL     1       1.490  -4.765   0.212  0.00  0.00    +0.062 C 
ATOM      3  C   UNL     1       1.968  -4.307   1.597  0.00  0.00    +0.198 C 
ATOM      4  N   UNL     1       0.958  -4.743   2.578  0.00  0.00    -0.243 N 
ATOM      5  C   UNL     1      -0.352  -4.970   2.220  0.00  0.00    +0.087 C 
ATOM      6  C   UNL     1      -1.090  -5.467   3.442  0.00  0.00    +0.100 C 
ATOM      7  C   UNL     1       0.069  -5.822   4.407  0.00  0.00    +0.165 C 
ATOM      8  N   UNL     1       1.170  -4.968   3.904  0.00  0.00    -0.226 NA
ATOM      9  N   UNL     1      -0.823  -4.779   1.037  0.00  0.00    -0.369 N 
ATOM     10  H   UNL     1       1.216  -4.099   4.416  0.00  0.00    +0.145 HD
ATOM     11  H   UNL     1      -1.756  -4.966   0.848  0.00  0.00    +0.161 HD
ENDROOT
BRANCH   1  16
ATOM     12  C   UNL     1      -0.018   1.503   0.010  0.00  0.00    +0.044 C 
ATOM     13  C   UNL     1       0.002  -0.004   0.002  0.00  0.00    -0.050 A 
ATOM     14  C   UNL     1       0.006  -0.689  -1.199  0.00  0.00    +0.004 A 
ATOM     15  C   UNL     1       0.025  -2.071  -1.206  0.00  0.00    +0.006 A 
ATOM     16  C   UNL     1       0.040  -2.768  -0.013  0.00  0.00    -0.025 A 
ATOM     17  C   UNL     1       0.037  -2.084   1.188  0.00  0.00    +0.006 A 
ATOM     18  C   UNL     1       0.023  -0.702   1.195  0.00  0.00    +0.004 A 
ENDBRANCH   1  16
BRANCH   7  19
ATOM     19  C   UNL     1      -0.288  -5.463   5.827  0.00  0.00    +0.232 C 
ATOM     20  O   UNL     1       0.134  -4.438   6.317  0.00  0.00    -0.274 OA
ATOM     21  N   UNL     1      -1.075  -6.283   6.551  0.00  0.00    -0.312 N 
ATOM     22  H   UNL     1      -1.412  -7.104   6.159  0.00  0.00    +0.149 HD
BRANCH  21  23
ATOM     23  C   UNL     1      -1.421  -5.935   7.931  0.00  0.00    +0.133 C 
BRANCH  23  24
ATOM     24  C   UNL     1      -2.318  -7.025   8.523  0.00  0.00    +0.120 C 
ATOM     25  C   UNL     1      -2.536  -6.777   9.998  0.00  0.00    +0.009 C 
ATOM     26  C   UNL     1      -2.034  -7.857  10.639  0.00  0.00    -0.003 A 
ATOM     27  C   UNL     1      -1.943  -8.217  12.059  0.00  0.00    +0.029 A 
ATOM     28  C   UNL     1      -1.372  -9.396  12.401  0.00  0.00    +0.042 A 
ATOM     29  C   UNL     1      -0.867 -10.279  11.435  0.00  0.00    +0.022 A 
ATOM     30  C   UNL     1      -0.915 -10.016  10.112  0.00  0.00    +0.027 A 
ATOM     31  C   UNL     1      -1.494  -8.806   9.639  0.00  0.00    +0.043 A 
ATOM     32  N   UNL     1      -1.656  -8.331   8.427  0.00  0.00    -0.376 N 
ATOM     33 CL   UNL     1      -1.262  -9.826  14.080  0.00  0.00    -0.084 Cl
ATOM     34  H   UNL     1      -1.385  -8.769   7.605  0.00  0.00    +0.160 HD
ENDBRANCH  23  24
ENDBRANCH  21  23
ENDBRANCH   7  19
BRANCH   3  35
ATOM     35  C   UNL     1       3.320  -4.948   1.919  0.00  0.00    +0.409 C 
ATOM     36  F   UNL     1       4.259  -4.565   0.956  0.00  0.00    -0.169 F 
ATOM     37  F   UNL     1       3.748  -4.525   3.182  0.00  0.00    -0.169 F 
ATOM     38  F   UNL     1       3.188  -6.341   1.914  0.00  0.00    -0.169 F 
ENDBRANCH   3  35
TORSDOF 5
