REMARK  Name = ZINC01630729
REMARK  11 active torsions:
REMARK  status: ('A' for Active; 'I' for Inactive)
REMARK    1  A    between atoms: C_1  and  C_2
REMARK    2  A    between atoms: C_4  and  C_22
REMARK    3  A    between atoms: C_4  and  C_23
REMARK    4  A    between atoms: C_10  and  O_11
REMARK    5  A    between atoms: C_14  and  C_20
REMARK    6  A    between atoms: C_15  and  O_18
REMARK    7  A    between atoms: O_18  and  C_19
REMARK    8  A    between atoms: C_23  and  C_24
REMARK    9  A    between atoms: C_24  and  C_25
REMARK   10  A    between atoms: C_26  and  C_27
REMARK   11  A    between atoms: C_26  and  C_28
REMARK                            x       y       z     vdW  Elec       q    Type
REMARK                         _______ _______ _______ _____ _____    ______ ____
ROOT
ATOM      1  C   UNL     1      -5.781   1.213   6.417  0.00  0.00    +0.053 C 
ATOM      2  C   UNL     1      -4.552   1.010   7.305  0.00  0.00    +0.181 C 
ATOM      3  C   UNL     1      -3.780  -0.265   6.889  0.00  0.00    +0.037 C 
ATOM      4  C   UNL     1      -2.757   0.293   5.918  0.00  0.00    +0.046 A 
ATOM      5  C   UNL     1      -2.727   1.666   6.102  0.00  0.00    +0.129 A 
ATOM      6  C   UNL     1      -1.870   2.446   5.314  0.00  0.00    +0.058 A 
ATOM      7  C   UNL     1      -1.056   1.849   4.365  0.00  0.00    +0.043 A 
ATOM      8  C   UNL     1      -1.086   0.452   4.190  0.00  0.00    +0.075 A 
ATOM      9  C   UNL     1      -1.946  -0.323   4.973  0.00  0.00    +0.136 A 
ATOM     10  C   UNL     1      -0.213  -0.174   3.182  0.00  0.00    +0.197 C 
ATOM     11  O   UNL     1      -0.231  -1.381   3.026  0.00  0.00    -0.287 OA
ATOM     12  C   UNL     1       0.679   0.657   2.366  0.00  0.00    +0.042 C 
ATOM     13  C   UNL     1       0.718   1.995   2.528  0.00  0.00    +0.174 C 
ATOM     14  C   UNL     1      -0.148   2.662   3.528  0.00  0.00    +0.229 C 
ATOM     15  O   UNL     1      -0.109   3.868   3.662  0.00  0.00    -0.283 OA
ATOM     16  C   UNL     1       1.568   0.006   1.338  0.00  0.00    +0.052 C 
ATOM     17  O   UNL     1      -3.586   2.051   7.085  0.00  0.00    -0.488 OA
ATOM     18  C   UNL     1      -3.094  -0.907   8.097  0.00  0.00    +0.020 C 
ENDROOT
BRANCH   9  19
ATOM     19  O   UNL     1      -1.989  -1.668   4.812  0.00  0.00    -0.506 OA
ATOM     20  H   UNL     1      -1.366  -2.151   5.372  0.00  0.00    +0.292 HD
ENDBRANCH   9  19
BRANCH  13  21
ATOM     21  O   UNL     1       1.554   2.738   1.765  0.00  0.00    -0.491 OA
ATOM     22  C   UNL     1       2.604   3.432   2.441  0.00  0.00    +0.277 C 
ENDBRANCH  13  21
BRANCH   3  23
ATOM     23  C   UNL     1      -4.707  -1.264   6.194  0.00  0.00    +0.019 C 
BRANCH  23  24
ATOM     24  C   UNL     1      -5.665  -1.871   7.221  0.00  0.00    +0.028 C 
BRANCH  24  25
ATOM     25  C   UNL     1      -6.566  -2.868   6.540  0.00  0.00    -0.028 C 
ATOM     26  C   UNL     1      -6.636  -4.099   6.984  0.00  0.00    -0.080 C 
ATOM     27  C   UNL     1      -5.904  -4.487   8.244  0.00  0.00    +0.038 C 
ATOM     28  C   UNL     1      -7.447  -5.125   6.237  0.00  0.00    +0.038 C 
ENDBRANCH  24  25
ENDBRANCH  23  24
ENDBRANCH   3  23
TORSDOF 5
