REMARK  Name = ZINC33693273
REMARK  9 active torsions:
REMARK  status: ('A' for Active; 'I' for Inactive)
REMARK    1  A    between atoms: C_1  and  C_2
REMARK    2  A    between atoms: C_2  and  C_3
REMARK    3  A    between atoms: C_2  and  N_4
REMARK    4  A    between atoms: N_4  and  C_5
REMARK    5  A    between atoms: N_4  and  C_13
REMARK    6  A    between atoms: C_5  and  C_6
REMARK    7  A    between atoms: C_13  and  C_14
REMARK    8  A    between atoms: C_17  and  C_19
REMARK    9  A    between atoms: N_24  and  C_27
REMARK                            x       y       z     vdW  Elec       q    Type
REMARK                         _______ _______ _______ _____ _____    ______ ____
ROOT
ATOM      1  C   UNL     1       1.017   1.873   0.334  0.00  0.00    +0.090 A 
ATOM      2  C   UNL     1       1.875   0.849   0.134  0.00  0.00    +0.043 A 
ATOM      3  C   UNL     1       1.102  -0.300  -0.096  0.00  0.00    +0.055 A 
ATOM      4  C   UNL     1      -0.206   0.086  -0.024  0.00  0.00    +0.190 A 
ATOM      5  O   UNL     1      -0.236   1.409   0.238  0.00  0.00    -0.457 OA
ENDROOT
BRANCH   4   6
ATOM      6  C   UNL     1      -1.372  -0.785  -0.199  0.00  0.00    +0.282 C 
ATOM      7  O   UNL     1      -1.223  -1.987  -0.310  0.00  0.00    -0.267 OA
ATOM      8  N   UNL     1      -2.610  -0.253  -0.237  0.00  0.00    -0.292 N 
ATOM      9  C   UNL     1      -2.806   1.204  -0.255  0.00  0.00    +0.127 C 
ATOM     10  C   UNL     1      -3.744   1.551  -1.422  0.00  0.00    +0.124 C 
ATOM     11  N   UNL     1      -4.976   0.761  -1.304  0.00  0.00    -0.325 N 
ATOM     12  C   UNL     1      -4.700  -0.677  -1.419  0.00  0.00    +0.124 C 
ATOM     13  C   UNL     1      -3.802  -1.116  -0.257  0.00  0.00    +0.127 C 
BRANCH  11  14
ATOM     14  C   UNL     1      -5.924   1.166  -2.250  0.00  0.00    +0.065 A 
ATOM     15  C   UNL     1      -7.191   0.600  -2.251  0.00  0.00    +0.026 A 
ATOM     16  C   UNL     1      -8.127   1.005  -3.184  0.00  0.00    +0.002 A 
ATOM     17  C   UNL     1      -7.799   1.967  -4.122  0.00  0.00    +0.003 A 
ATOM     18  C   UNL     1      -6.536   2.530  -4.128  0.00  0.00    +0.040 A 
ATOM     19  C   UNL     1      -5.596   2.133  -3.194  0.00  0.00    +0.144 A 
ATOM     20  F   UNL     1      -4.362   2.683  -3.200  0.00  0.00    -0.204 F 
ENDBRANCH  11  14
ENDBRANCH   4   6
BRANCH   1  21
ATOM     21  C   UNL     1       1.405   3.301   0.618  0.00  0.00    -0.002 C 
BRANCH  21  22
ATOM     22  N   UNL     1       1.444   4.057  -0.641  0.00  0.00    +0.389 N 
ATOM     23  H   UNL     1       1.904   3.415  -1.407  0.00  0.00    -0.080 HD
BRANCH  22  25
ATOM     24  C   UNL     1       1.906   5.990   0.790  0.00  0.00    -0.013 C 
ATOM     25  C   UNL     1       2.272   5.263  -0.506  0.00  0.00    -0.074 C 
ATOM     26  C   UNL     1       3.749   4.865  -0.468  0.00  0.00    -0.013 C 
ENDBRANCH  22  25
BRANCH  22  27
ATOM     27  C   UNL     1       0.088   4.398  -1.093  0.00  0.00    -0.042 C 
BRANCH  27  28
ATOM     28  C   UNL     1       0.149   4.950  -2.494  0.00  0.00    -0.064 A 
ATOM     29  C   UNL     1       0.302   6.309  -2.694  0.00  0.00    +0.003 A 
ATOM     30  C   UNL     1       0.362   6.815  -3.979  0.00  0.00    +0.015 A 
ATOM     31  C   UNL     1       0.260   5.963  -5.064  0.00  0.00    +0.018 A 
ATOM     32  C   UNL     1       0.102   4.604  -4.862  0.00  0.00    +0.015 A 
ATOM     33  C   UNL     1       0.046   4.098  -3.577  0.00  0.00    +0.003 A 
ATOM     34 BR   UNL     1       0.336   6.656  -6.822  0.00  0.00    -0.050 Br
ENDBRANCH  27  28
ENDBRANCH  22  27
ENDBRANCH  21  22
ENDBRANCH   1  21
TORSDOF 7
