REMARK  Name = ZINC32777386
REMARK  7 active torsions:
REMARK  status: ('A' for Active; 'I' for Inactive)
REMARK    1  A    between atoms: C_1  and  C_2
REMARK    2  A    between atoms: C_2  and  C_4
REMARK    3  A    between atoms: C_2  and  N_12
REMARK    4  A    between atoms: C_13  and  C_15
REMARK    5  A    between atoms: C_15  and  S_16
REMARK    6  A    between atoms: S_16  and  C_17
REMARK    7  A    between atoms: C_21  and  N_26
REMARK                            x       y       z     vdW  Elec       q    Type
REMARK                         _______ _______ _______ _____ _____    ______ ____
ROOT
ATOM      1  N   UNL     1      -5.204   0.885   0.034  0.00  0.00    -0.308 N 
ATOM      2  C   UNL     1      -4.104   1.664   0.032  0.00  0.00    +0.224 C 
ATOM      3  O   UNL     1      -4.216   2.871   0.039  0.00  0.00    -0.275 OA
ATOM      4  H   UNL     1      -5.103  -0.210   0.028  0.00  0.00    +0.149 HD
ENDROOT
BRANCH   1   6
ATOM      5  C   UNL     1      -6.938   1.818   1.485  0.00  0.00    +0.033 C 
ATOM      6  C   UNL     1      -6.535   1.498   0.044  0.00  0.00    +0.103 C 
BRANCH   6   7
ATOM      7  C   UNL     1      -7.533   0.541  -0.556  0.00  0.00    +0.008 A 
ATOM      8  C   UNL     1      -7.284  -0.818  -0.539  0.00  0.00    +0.011 A 
ATOM      9  C   UNL     1      -8.200  -1.697  -1.084  0.00  0.00    +0.039 A 
ATOM     10  C   UNL     1      -9.365  -1.215  -1.658  0.00  0.00    +0.126 A 
ATOM     11  C   UNL     1      -9.613   0.146  -1.681  0.00  0.00    +0.077 A 
ATOM     12  C   UNL     1      -8.697   1.025  -1.130  0.00  0.00    +0.131 A 
ATOM     13  F   UNL     1      -8.937   2.354  -1.152  0.00  0.00    -0.205 F 
ATOM     14  F   UNL     1     -10.259  -2.074  -2.195  0.00  0.00    -0.205 F 
ENDBRANCH   6   7
ENDBRANCH   1   6
BRANCH   2  15
ATOM     15  C   UNL     1      -2.735   1.033   0.022  0.00  0.00    +0.174 C 
BRANCH  15  16
ATOM     16  S   UNL     1      -1.474   2.331   0.022  0.00  0.00    -0.058 S 
BRANCH  16  17
ATOM     17  C   UNL     1      -0.016   1.341   0.009  0.00  0.00    +0.258 A 
ATOM     18  N   UNL     1       1.208   1.807   0.000  0.00  0.00    -0.203 NA
ATOM     19  C   UNL     1       2.074   0.757  -0.014  0.00  0.00    +0.113 A 
ATOM     20  C   UNL     1       3.466   0.656  -0.027  0.00  0.00    +0.064 A 
ATOM     21  C   UNL     1       4.061  -0.586  -0.039  0.00  0.00    +0.128 A 
ATOM     22  C   UNL     1       3.286  -1.735  -0.038  0.00  0.00    +0.036 A 
ATOM     23  C   UNL     1       1.908  -1.650  -0.025  0.00  0.00    +0.051 A 
ATOM     24  C   UNL     1       1.293  -0.409  -0.013  0.00  0.00    +0.156 A 
ATOM     25  O   UNL     1       0.002  -0.004   0.002  0.00  0.00    -0.431 OA
BRANCH  21  26
ATOM     26  N   UNL     1       5.537  -0.694  -0.054  0.00  0.00    +0.056 N 
ATOM     27  O   UNL     1       6.222   0.313  -0.055  0.00  0.00    -0.126 OA
ATOM     28  O   UNL     1       6.067  -1.791  -0.064  0.00  0.00    -0.126 OA
ENDBRANCH  21  26
ENDBRANCH  16  17
ENDBRANCH  15  16
ENDBRANCH   2  15
TORSDOF 6
