REMARK  Name = ZINC64120549
REMARK  5 active torsions:
REMARK  status: ('A' for Active; 'I' for Inactive)
REMARK    1  A    between atoms: C_1  and  N_2
REMARK    2  A    between atoms: C_10  and  C_12
REMARK    3  A    between atoms: N_26  and  C_27
REMARK    4  A    between atoms: C_27  and  C_28
REMARK    5  A    between atoms: C_32  and  O_34
REMARK                            x       y       z     vdW  Elec       q    Type
REMARK                         _______ _______ _______ _____ _____    ______ ____
ROOT
ATOM      1  C   UNL     1       1.244  -0.698   1.958  0.00  0.00    -0.002 C 
ATOM      2  C   UNL     1       2.487  -1.113   1.168  0.00  0.00    +0.096 C 
ATOM      3  C   UNL     1       3.678  -0.863   2.087  0.00  0.00    -0.042 C 
ATOM      4  C   UNL     1       4.521  -0.098   1.409  0.00  0.00    -0.001 A 
ATOM      5  C   UNL     1       5.870   0.398   1.726  0.00  0.00    +0.010 A 
ATOM      6  C   UNL     1       6.454   1.189   0.787  0.00  0.00    +0.001 A 
ATOM      7  C   UNL     1       5.839   1.533  -0.421  0.00  0.00    +0.002 A 
ATOM      8  C   UNL     1       4.603   1.117  -0.797  0.00  0.00    +0.026 A 
ATOM      9  C   UNL     1       3.891   0.274   0.104  0.00  0.00    +0.043 A 
ATOM     10  N   UNL     1       2.705  -0.288  -0.019  0.00  0.00    -0.379 N 
ATOM     11  C   UNL     1       3.695  -1.368   3.509  0.00  0.00    +0.015 C 
ATOM     12  C   UNL     1       2.333  -0.985   4.116  0.00  0.00    -0.073 C 
ATOM     13  N   UNL     1       1.245  -1.423   3.238  0.00  0.00    +0.388 N 
ATOM     14  H   UNL     1       2.083  -0.177  -0.755  0.00  0.00    +0.160 HD
ATOM     15  H   UNL     1       1.348  -2.410   3.057  0.00  0.00    -0.081 HD
ENDROOT
BRANCH   1  25
ATOM     16  C   UNL     1      -0.068   1.143  -0.255  0.00  0.00    +0.131 C 
ATOM     17  N   UNL     1      -0.041  -0.314  -0.102  0.00  0.00    -0.315 N 
ATOM     18  C   UNL     1      -0.030  -1.258  -1.139  0.00  0.00    +0.052 A 
ATOM     19  C   UNL     1      -0.042  -1.084  -2.518  0.00  0.00    +0.025 A 
ATOM     20  C   UNL     1      -0.029  -2.182  -3.355  0.00  0.00    +0.002 A 
ATOM     21  C   UNL     1      -0.004  -3.459  -2.826  0.00  0.00    +0.002 A 
ATOM     22  C   UNL     1       0.008  -3.642  -1.456  0.00  0.00    +0.025 A 
ATOM     23  C   UNL     1      -0.005  -2.543  -0.605  0.00  0.00    +0.050 A 
ATOM     24  N   UNL     1       0.003  -2.476   0.795  0.00  0.00    -0.326 N 
ATOM     25  C   UNL     1      -0.014  -1.055   1.164  0.00  0.00    +0.147 C 
ATOM     26  H   UNL     1       0.019  -3.228   1.406  0.00  0.00    +0.148 HD
ENDBRANCH   1  25
BRANCH  13  27
ATOM     27  C   UNL     1      -0.038  -1.196   3.917  0.00  0.00    -0.042 C 
BRANCH  27  28
ATOM     28  C   UNL     1      -0.091  -2.016   5.180  0.00  0.00    -0.060 A 
ATOM     29  C   UNL     1      -0.594  -3.304   5.147  0.00  0.00    +0.002 A 
ATOM     30  C   UNL     1      -0.644  -4.059   6.304  0.00  0.00    +0.004 A 
ATOM     31  C   UNL     1      -0.191  -3.528   7.497  0.00  0.00    +0.045 A 
ATOM     32  C   UNL     1       0.314  -2.236   7.532  0.00  0.00    +0.117 A 
ATOM     33  C   UNL     1       0.368  -1.483   6.368  0.00  0.00    +0.047 A 
BRANCH  32  34
ATOM     34  O   UNL     1       0.760  -1.712   8.704  0.00  0.00    -0.507 OA
ATOM     35  H   UNL     1       1.698  -1.872   8.875  0.00  0.00    +0.292 HD
ENDBRANCH  32  34
ENDBRANCH  27  28
ENDBRANCH  13  27
TORSDOF 4
