REMARK  Name = ZINC67060381
REMARK  10 active torsions:
REMARK  status: ('A' for Active; 'I' for Inactive)
REMARK    1  A    between atoms: C_1  and  C_2
REMARK    2  A    between atoms: C_2  and  C_3
REMARK    3  A    between atoms: C_3  and  C_5
REMARK    4  A    between atoms: C_3  and  N_6
REMARK    5  A    between atoms: C_7  and  C_9
REMARK    6  A    between atoms: C_12  and  C_15
REMARK    7  A    between atoms: C_15  and  N_16
REMARK    8  A    between atoms: N_19  and  N_20
REMARK    9  A    between atoms: C_21  and  C_23
REMARK   10  A    between atoms: C_27  and  C_29
REMARK                            x       y       z     vdW  Elec       q    Type
REMARK                         _______ _______ _______ _____ _____    ______ ____
ROOT
ATOM      1  N   UNL     1      -6.417   0.272  -6.920  0.00  0.00    -0.294 N 
ATOM      2  C   UNL     1      -7.043   0.383  -8.108  0.00  0.00    +0.316 C 
ATOM      3  O   UNL     1      -7.336   1.481  -8.540  0.00  0.00    -0.251 OA
ATOM      4  N   UNL     1      -7.346  -0.723  -8.816  0.00  0.00    -0.218 N 
ATOM      5  H   UNL     1      -6.184  -0.604  -6.574  0.00  0.00    +0.151 HD
ATOM      6  H   UNL     1      -7.797  -0.643  -9.671  0.00  0.00    +0.174 HD
ENDROOT
BRANCH   4   7
ATOM      7  N   UNL     1      -7.009  -1.988  -8.318  0.00  0.00    -0.229 N 
ATOM      8  C   UNL     1      -7.311  -3.094  -9.027  0.00  0.00    +0.260 C 
ATOM      9  O   UNL     1      -7.876  -2.994 -10.098  0.00  0.00    -0.269 OA
ATOM     10  H   UNL     1      -6.558  -2.068  -7.463  0.00  0.00    +0.173 HD
BRANCH   8  11
ATOM     11  C   UNL     1      -6.955  -4.429  -8.501  0.00  0.00    +0.038 A 
ATOM     12  C   UNL     1      -6.311  -4.548  -7.268  0.00  0.00    +0.013 A 
ATOM     13  C   UNL     1      -5.983  -5.797  -6.782  0.00  0.00    +0.001 A 
ATOM     14  C   UNL     1      -6.289  -6.930  -7.515  0.00  0.00    +0.003 A 
ATOM     15  C   UNL     1      -6.927  -6.819  -8.738  0.00  0.00    -0.050 A 
ATOM     16  C   UNL     1      -7.267  -5.576  -9.232  0.00  0.00    +0.016 A 
ATOM     17  C   UNL     1      -7.256  -8.059  -9.530  0.00  0.00    +0.044 C 
ENDBRANCH   8  11
ENDBRANCH   4   7
BRANCH   1  18
ATOM     18  C   UNL     1      -6.088   1.474  -6.149  0.00  0.00    +0.141 C 
BRANCH  18  22
ATOM     19  C   UNL     1      -4.127   0.349  -2.520  0.00  0.00    +0.037 A 
ATOM     20  C   UNL     1      -3.380   0.599  -3.672  0.00  0.00    +0.013 A 
ATOM     21  C   UNL     1      -4.019   0.961  -4.840  0.00  0.00    +0.006 A 
ATOM     22  C   UNL     1      -5.397   1.077  -4.870  0.00  0.00    -0.030 A 
ATOM     23  C   UNL     1      -6.143   0.832  -3.731  0.00  0.00    +0.006 A 
ATOM     24  C   UNL     1      -5.517   0.463  -2.559  0.00  0.00    +0.013 A 
BRANCH  19  26
ATOM     25  N   UNL     1      -2.105  -0.148  -1.230  0.00  0.00    -0.309 N 
ATOM     26  C   UNL     1      -3.448  -0.040  -1.265  0.00  0.00    +0.244 C 
ATOM     27  O   UNL     1      -4.102  -0.261  -0.264  0.00  0.00    -0.270 OA
ATOM     28  H   UNL     1      -1.584   0.029  -2.029  0.00  0.00    +0.149 HD
BRANCH  25  29
ATOM     29  C   UNL     1      -1.433  -0.534   0.013  0.00  0.00    +0.070 C 
ATOM     30  C   UNL     1      -1.413  -2.059   0.130  0.00  0.00    +0.028 C 
BRANCH  29  32
ATOM     31  C   UNL     1      -0.019   1.526   0.010  0.00  0.00    +0.005 C 
ATOM     32  C   UNL     1       0.002  -0.004   0.002  0.00  0.00    +0.018 C 
ENDBRANCH  29  32
ENDBRANCH  25  29
ENDBRANCH  19  26
ENDBRANCH  18  22
ENDBRANCH   1  18
TORSDOF 7
