REMARK  Name = ZINC06924444
REMARK  7 active torsions:
REMARK  status: ('A' for Active; 'I' for Inactive)
REMARK    1  A    between atoms: C_1  and  C_2
REMARK    2  A    between atoms: C_6  and  N_9
REMARK    3  A    between atoms: C_7  and  C_8
REMARK    4  A    between atoms: C_14  and  C_15
REMARK    5  A    between atoms: C_18  and  O_23
REMARK    6  A    between atoms: C_19  and  O_21
REMARK    7  A    between atoms: O_21  and  C_22
REMARK                            x       y       z     vdW  Elec       q    Type
REMARK                         _______ _______ _______ _____ _____    ______ ____
ROOT
ATOM      1  N   UNL     1      -1.257  -2.901   2.165  0.00  0.00    -0.225 NA
ATOM      2  C   UNL     1      -1.012  -4.192   2.204  0.00  0.00    +0.166 C 
ATOM      3  N   UNL     1      -0.810  -5.058   1.152  0.00  0.00    -0.260 N 
ATOM      4  C   UNL     1      -0.573  -6.341   1.371  0.00  0.00    +0.256 C 
ATOM      5  C   UNL     1      -0.538  -6.784   2.777  0.00  0.00    +0.078 C 
ATOM      6  C   UNL     1      -0.320  -8.024   3.284  0.00  0.00    +0.028 C 
ATOM      7  S   UNL     1      -0.853  -5.248   3.635  0.00  0.00    -0.049 S 
ATOM      8  O   UNL     1      -0.393  -7.120   0.453  0.00  0.00    -0.269 OA
ATOM      9  H   UNL     1      -0.842  -4.724   0.242  0.00  0.00    +0.157 HD
ENDROOT
BRANCH   1  15
ATOM     10  C   UNL     1      -3.311   0.293  -0.925  0.00  0.00    +0.044 C 
ATOM     11  C   UNL     1      -2.212  -0.673  -0.567  0.00  0.00    -0.046 A 
ATOM     12  C   UNL     1      -1.167  -0.889  -1.450  0.00  0.00    +0.004 A 
ATOM     13  C   UNL     1      -0.154  -1.774  -1.129  0.00  0.00    +0.002 A 
ATOM     14  C   UNL     1      -0.177  -2.448   0.074  0.00  0.00    +0.028 A 
ATOM     15  C   UNL     1      -1.227  -2.236   0.970  0.00  0.00    +0.070 A 
ATOM     16  C   UNL     1      -2.245  -1.336   0.642  0.00  0.00    -0.022 A 
ATOM     17  C   UNL     1      -3.379  -1.095   1.604  0.00  0.00    +0.046 C 
ENDBRANCH   1  15
BRANCH   6  18
ATOM     18  C   UNL     1      -0.509  -8.275   4.719  0.00  0.00    -0.020 A 
ATOM     19  C   UNL     1      -1.101  -7.300   5.530  0.00  0.00    +0.012 A 
ATOM     20  C   UNL     1      -1.278  -7.538   6.875  0.00  0.00    +0.050 A 
ATOM     21  C   UNL     1      -0.870  -8.744   7.430  0.00  0.00    +0.158 A 
ATOM     22  C   UNL     1      -0.279  -9.720   6.629  0.00  0.00    +0.162 A 
ATOM     23  C   UNL     1      -0.104  -9.493   5.278  0.00  0.00    +0.057 A 
BRANCH  22  24
ATOM     24  O   UNL     1       0.119 -10.899   7.177  0.00  0.00    -0.491 OA
ATOM     25  C   UNL     1       0.717 -11.854   6.298  0.00  0.00    +0.277 C 
ENDBRANCH  22  24
BRANCH  21  26
ATOM     26  O   UNL     1      -1.046  -8.973   8.758  0.00  0.00    -0.503 OA
ATOM     27  H   UNL     1      -1.894  -9.384   8.976  0.00  0.00    +0.292 HD
ENDBRANCH  21  26
ENDBRANCH   6  18
TORSDOF 4
