REMARK  Name = ZINC12780924
REMARK  11 active torsions:
REMARK  status: ('A' for Active; 'I' for Inactive)
REMARK    1  A    between atoms: C_1  and  C_2
REMARK    2  A    between atoms: C_6  and  C_30
REMARK    3  A    between atoms: C_7  and  O_8
REMARK    4  A    between atoms: O_8  and  C_9
REMARK    5  A    between atoms: C_9  and  C_10
REMARK    6  A    between atoms: C_10  and  C_12
REMARK    7  A    between atoms: C_10  and  O_29
REMARK    8  A    between atoms: C_12  and  N_13
REMARK    9  A    between atoms: C_18  and  C_25
REMARK   10  A    between atoms: C_21  and  C_23
REMARK   11  A    between atoms: C_21  and  C_24
REMARK                            x       y       z     vdW  Elec       q    Type
REMARK                         _______ _______ _______ _____ _____    ______ ____
ROOT
ATOM      1  N   UNL     1       1.066   2.019   0.003  0.00  0.00    -0.222 N 
ATOM      2  C   UNL     1      -0.014   1.207   0.009  0.00  0.00    +0.247 C 
ATOM      3  O   UNL     1       0.002  -0.004   0.002  0.00  0.00    -0.273 OA
ATOM      4  C   UNL     1      -1.210   2.129   0.036  0.00  0.00    +0.113 C 
ATOM      5  C   UNL     1      -2.194   1.702   1.116  0.00  0.00    +0.038 C 
ATOM      6  C   UNL     1      -2.873   0.395   0.698  0.00  0.00    -0.011 C 
ATOM      7  C   UNL     1      -3.653   0.626  -0.593  0.00  0.00    +0.009 C 
ATOM      8  C   UNL     1      -2.739   1.078  -1.726  0.00  0.00    -0.032 C 
ATOM      9  C   UNL     1      -1.869   2.257  -1.323  0.00  0.00    +0.041 C 
ATOM     10  C   UNL     1      -3.636   1.528  -2.900  0.00  0.00    +0.011 C 
ATOM     11  C   UNL     1      -1.889  -0.092  -2.223  0.00  0.00    +0.011 C 
ATOM     12  C   UNL     1      -3.840  -0.045   1.804  0.00  0.00    +0.007 C 
ATOM     13  N   UNL     1      -0.609   3.430   0.400  0.00  0.00    -0.285 N 
ATOM     14  C   UNL     1       0.721   3.284   0.270  0.00  0.00    +0.309 C 
ATOM     15  O   UNL     1       1.519   4.194   0.384  0.00  0.00    -0.252 OA
ATOM     16  H   UNL     1      -1.090   4.224   0.675  0.00  0.00    +0.151 HD
ENDROOT
BRANCH   1  17
ATOM     17  C   UNL     1       2.433   1.570  -0.263  0.00  0.00    +0.152 C 
BRANCH  17  18
ATOM     18  C   UNL     1       2.717   1.660  -1.763  0.00  0.00    +0.170 C 
BRANCH  18  19
ATOM     19  O   UNL     1       2.682   3.028  -2.174  0.00  0.00    -0.387 OA
ATOM     20  H   UNL     1       3.330   3.590  -1.727  0.00  0.00    +0.210 HD
ENDBRANCH  18  19
BRANCH  18  21
ATOM     21  C   UNL     1       4.101   1.075  -2.056  0.00  0.00    +0.262 C 
BRANCH  21  22
ATOM     22  O   UNL     1       4.318   1.051  -3.468  0.00  0.00    -0.489 OA
BRANCH  22  29
ATOM     23  C   UNL     1       6.451   2.877  -3.779  0.00  0.00    +0.047 C 
ATOM     24  C   UNL     1       6.592   1.405  -4.072  0.00  0.00    -0.009 A 
ATOM     25  C   UNL     1       7.802   0.900  -4.507  0.00  0.00    +0.007 A 
ATOM     26  C   UNL     1       7.930  -0.449  -4.781  0.00  0.00    +0.001 A 
ATOM     27  C   UNL     1       6.850  -1.296  -4.617  0.00  0.00    +0.007 A 
ATOM     28  C   UNL     1       5.639  -0.796  -4.177  0.00  0.00    -0.009 A 
ATOM     29  C   UNL     1       5.508   0.557  -3.901  0.00  0.00    +0.126 A 
ATOM     30  C   UNL     1       4.462  -1.720  -3.998  0.00  0.00    +0.047 C 
ENDBRANCH  22  29
ENDBRANCH  21  22
ENDBRANCH  18  21
ENDBRANCH  17  18
ENDBRANCH   1  17
TORSDOF 6
