REMARK  Name = ZINC20704456
REMARK  3 active torsions:
REMARK  status: ('A' for Active; 'I' for Inactive)
REMARK    1  A    between atoms: C_1  and  C_2
REMARK    2  A    between atoms: C_9  and  C_18
REMARK    3  A    between atoms: C_22  and  N_24
REMARK                            x       y       z     vdW  Elec       q    Type
REMARK                         _______ _______ _______ _____ _____    ______ ____
ROOT
ATOM      1  C   UNL     1       4.943   2.095  -3.230  0.00  0.00    +0.045 C 
ATOM      2  C   UNL     1       5.462   1.283  -2.071  0.00  0.00    -0.029 A 
ATOM      3  C   UNL     1       6.704   0.689  -2.152  0.00  0.00    +0.006 A 
ATOM      4  C   UNL     1       7.180  -0.055  -1.089  0.00  0.00    +0.020 A 
ATOM      5  C   UNL     1       6.412  -0.203   0.050  0.00  0.00    +0.046 A 
ATOM      6  C   UNL     1       5.160   0.392   0.141  0.00  0.00    -0.001 A 
ATOM      7  C   UNL     1       4.684   1.138  -0.923  0.00  0.00    +0.036 A 
ATOM      8  N   UNL     1       3.438   1.764  -0.893  0.00  0.00    -0.336 N 
ATOM      9  C   UNL     1       2.504   1.090   0.009  0.00  0.00    +0.105 C 
ATOM     10  C   UNL     1       3.095   1.053   1.419  0.00  0.00    +0.029 C 
ATOM     11  C   UNL     1       4.375   0.190   1.404  0.00  0.00    +0.050 C 
ATOM     12  C   UNL     1       3.865  -1.230   1.492  0.00  0.00    -0.023 C 
ATOM     13  C   UNL     1       2.650  -1.251   1.981  0.00  0.00    -0.030 C 
ATOM     14  C   UNL     1       2.179   0.154   2.297  0.00  0.00    +0.033 C 
ATOM     15 CL   UNL     1       7.018  -1.139   1.380  0.00  0.00    -0.083 Cl
ATOM     16  H   UNL     1       3.119   2.658  -1.449  0.00  0.00    +0.147 HD
ENDROOT
BRANCH   9  17
ATOM     17  C   UNL     1       1.197   1.841   0.031  0.00  0.00    -0.025 A 
ATOM     18  C   UNL     1       1.195   3.224   0.032  0.00  0.00    +0.007 A 
ATOM     19  C   UNL     1      -0.003   3.913   0.052  0.00  0.00    +0.022 A 
ATOM     20  C   UNL     1      -1.200   3.219   0.072  0.00  0.00    +0.071 A 
ATOM     21  C   UNL     1      -1.197   1.835   0.067  0.00  0.00    +0.145 A 
ATOM     22  C   UNL     1       0.002   1.147   0.051  0.00  0.00    +0.039 A 
ATOM     23 CL   UNL     1      -2.705   4.083   0.098  0.00  0.00    -0.081 Cl
BRANCH  21  24
ATOM     24  N   UNL     1      -2.477   1.092   0.082  0.00  0.00    +0.058 N 
ATOM     25  O   UNL     1      -2.474  -0.126   0.082  0.00  0.00    -0.126 OA
ATOM     26  O   UNL     1      -3.533   1.698   0.096  0.00  0.00    -0.126 OA
ENDBRANCH  21  24
ENDBRANCH   9  17
TORSDOF 2
