REMARK  Name = ZINC14479336
REMARK  10 active torsions:
REMARK  status: ('A' for Active; 'I' for Inactive)
REMARK    1  A    between atoms: C_1  and  C_2
REMARK    2  A    between atoms: C_5  and  N_9
REMARK    3  A    between atoms: C_6  and  C_8
REMARK    4  A    between atoms: N_9  and  S_10
REMARK    5  A    between atoms: S_10  and  C_13
REMARK    6  A    between atoms: C_26  and  C_29
REMARK    7  A    between atoms: C_32  and  O_37
REMARK    8  A    between atoms: C_33  and  O_35
REMARK    9  A    between atoms: O_35  and  C_36
REMARK   10  A    between atoms: O_37  and  C_38
REMARK                            x       y       z     vdW  Elec       q    Type
REMARK                         _______ _______ _______ _____ _____    ______ ____
ROOT
ATOM      1  C   UNL     1      -2.282   2.317   2.904  0.00  0.00    +0.109 A 
ATOM      2  C   UNL     1      -1.745   3.565   3.159  0.00  0.00    +0.030 A 
ATOM      3  C   UNL     1      -0.646   4.005   2.450  0.00  0.00    +0.025 A 
ATOM      4  C   UNL     1      -0.072   3.199   1.475  0.00  0.00    +0.031 A 
ATOM      5  C   UNL     1      -0.629   1.942   1.212  0.00  0.00    -0.018 A 
ATOM      6  C   UNL     1      -1.723   1.509   1.931  0.00  0.00    +0.034 A 
ATOM      7  C   UNL     1      -0.002   1.125   0.151  0.00  0.00    +0.049 C 
ATOM      8  C   UNL     1      -0.083  -0.358   0.149  0.00  0.00    -0.023 C 
ATOM      9  C   UNL     1       1.016  -0.841  -0.417  0.00  0.00    -0.030 C 
ATOM     10  C   UNL     1       1.948   0.305  -0.814  0.00  0.00    +0.033 C 
ATOM     11  C   UNL     1       1.531   1.399   0.178  0.00  0.00    +0.029 C 
ATOM     12  C   UNL     1       1.693   2.840  -0.272  0.00  0.00    +0.105 C 
ATOM     13  N   UNL     1       1.053   3.660   0.780  0.00  0.00    -0.336 N 
ATOM     14  H   UNL     1       1.419   4.533   0.993  0.00  0.00    +0.147 HD
ENDROOT
BRANCH  12  15
ATOM     15  C   UNL     1       3.154   3.189  -0.387  0.00  0.00    -0.023 A 
ATOM     16  C   UNL     1       3.879   3.508   0.746  0.00  0.00    +0.009 A 
ATOM     17  C   UNL     1       5.220   3.829   0.645  0.00  0.00    +0.050 A 
ATOM     18  C   UNL     1       5.840   3.831  -0.593  0.00  0.00    +0.162 A 
ATOM     19  C   UNL     1       5.111   3.510  -1.734  0.00  0.00    +0.162 A 
ATOM     20  C   UNL     1       3.768   3.185  -1.626  0.00  0.00    +0.055 A 
BRANCH  19  21
ATOM     21  O   UNL     1       5.716   3.511  -2.952  0.00  0.00    -0.491 OA
ATOM     22  C   UNL     1       4.905   3.171  -4.079  0.00  0.00    +0.277 C 
ENDBRANCH  19  21
BRANCH  18  23
ATOM     23  O   UNL     1       7.160   4.146  -0.694  0.00  0.00    -0.491 OA
ATOM     24  C   UNL     1       7.845   4.464   0.519  0.00  0.00    +0.277 C 
ENDBRANCH  18  23
ENDBRANCH  12  15
BRANCH   1  25
ATOM     25  S   UNL     1      -3.680   1.754   3.819  0.00  0.00    +0.072 S 
ATOM     26  O   UNL     1      -3.655   0.335   3.767  0.00  0.00    -0.150 OA
ATOM     27  O   UNL     1      -3.678   2.472   5.045  0.00  0.00    -0.150 OA
BRANCH  25  28
ATOM     28  N   UNL     1      -5.032   2.235   2.991  0.00  0.00    -0.216 N 
ATOM     29  H   UNL     1      -5.673   2.827   3.413  0.00  0.00    +0.174 HD
BRANCH  28  34
ATOM     30  C   UNL     1      -5.909   0.413  -2.307  0.00  0.00    +0.044 C 
ATOM     31  C   UNL     1      -5.676   0.897  -0.899  0.00  0.00    -0.050 A 
ATOM     32  C   UNL     1      -5.089   0.058   0.031  0.00  0.00    +0.005 A 
ATOM     33  C   UNL     1      -4.870   0.500   1.321  0.00  0.00    +0.025 A 
ATOM     34  C   UNL     1      -5.248   1.786   1.687  0.00  0.00    +0.051 A 
ATOM     35  C   UNL     1      -5.837   2.626   0.750  0.00  0.00    -0.028 A 
ATOM     36  C   UNL     1      -6.049   2.179  -0.539  0.00  0.00    +0.008 A 
ATOM     37  C   UNL     1      -6.243   4.023   1.141  0.00  0.00    +0.046 C 
ENDBRANCH  28  34
ENDBRANCH  25  28
ENDBRANCH   1  25
TORSDOF 6
