REMARK  Name = ZINC13033594
REMARK  15 active torsions:
REMARK  status: ('A' for Active; 'I' for Inactive)
REMARK    1  A    between atoms: C_1  and  C_2
REMARK    2  A    between atoms: C_2  and  O_3
REMARK    3  A    between atoms: O_3  and  C_4
REMARK    4  A    between atoms: C_4  and  C_6
REMARK    5  A    between atoms: C_6  and  N_7
REMARK    6  A    between atoms: C_8  and  C_12
REMARK    7  A    between atoms: C_12  and  N_61
REMARK    8  A    between atoms: C_13  and  C_14
REMARK    9  A    between atoms: C_13  and  N_61
REMARK   10  A    between atoms: C_19  and  C_20
REMARK   11  A    between atoms: C_19  and  N_61
REMARK   12  A    between atoms: C_24  and  O_34
REMARK   13  A    between atoms: C_25  and  O_32
REMARK   14  A    between atoms: O_32  and  C_33
REMARK   15  A    between atoms: O_34  and  C_35
REMARK                            x       y       z     vdW  Elec       q    Type
REMARK                         _______ _______ _______ _____ _____    ______ ____
ROOT
ATOM      1  N   UNL     1      -5.714   4.021  -0.946  0.00  0.00    +0.392 N 
ATOM      2  H   UNL     1      -5.829   3.094  -1.373  0.00  0.00    -0.080 HD
ENDROOT
BRANCH   1   3
ATOM      3  C   UNL     1      -6.780   4.915  -1.447  0.00  0.00    +0.001 C 
BRANCH   3   5
ATOM      4  N   UNL     1      -6.756   5.066  -3.992  0.00  0.00    -0.220 N 
ATOM      5  C   UNL     1      -7.149   4.486  -2.843  0.00  0.00    +0.136 A 
ATOM      6  N   UNL     1      -7.920   3.479  -3.175  0.00  0.00    -0.115 NA
ATOM      7  N   UNL     1      -7.992   3.439  -4.460  0.00  0.00    -0.023 NA
ATOM      8  N   UNL     1      -7.287   4.395  -4.958  0.00  0.00    -0.043 NA
BRANCH   4   9
ATOM      9  C   UNL     1      -5.885   6.236  -4.123  0.00  0.00    +0.267 C 
BRANCH   9  10
ATOM     10  C   UNL     1      -4.471   5.784  -4.386  0.00  0.00    +0.329 C 
ATOM     11  O   UNL     1      -4.237   4.615  -4.577  0.00  0.00    -0.249 OA
BRANCH  10  12
ATOM     12  O   UNL     1      -3.473   6.681  -4.408  0.00  0.00    -0.464 OA
BRANCH  12  14
ATOM     13  C   UNL     1      -1.140   7.335  -4.654  0.00  0.00    +0.048 C 
ATOM     14  C   UNL     1      -2.137   6.175  -4.667  0.00  0.00    +0.229 C 
ENDBRANCH  12  14
ENDBRANCH  10  12
ENDBRANCH   9  10
ENDBRANCH   4   9
ENDBRANCH   3   5
ENDBRANCH   1   3
BRANCH   1  15
ATOM     15  C   UNL     1      -4.388   4.559  -1.315  0.00  0.00    -0.002 C 
BRANCH  15  16
ATOM     16  C   UNL     1      -4.177   5.916  -0.695  0.00  0.00    +0.089 A 
ATOM     17  C   UNL     1      -3.521   6.162   0.454  0.00  0.00    +0.042 A 
ATOM     18  C   UNL     1      -3.564   7.561   0.658  0.00  0.00    +0.041 A 
ATOM     19  C   UNL     1      -4.243   8.085  -0.378  0.00  0.00    +0.195 A 
ATOM     20  O   UNL     1      -4.607   7.085  -1.197  0.00  0.00    -0.470 OA
ENDBRANCH  15  16
ENDBRANCH   1  15
BRANCH   1  21
ATOM     21  C   UNL     1      -5.814   3.888   0.523  0.00  0.00    -0.036 C 
BRANCH  21  22
ATOM     22  C   UNL     1      -5.046   2.664   0.951  0.00  0.00    +0.001 A 
ATOM     23  C   UNL     1      -3.783   2.792   1.430  0.00  0.00    +0.017 A 
ATOM     24  C   UNL     1      -3.062   1.585   1.832  0.00  0.00    +0.002 A 
ATOM     25  C   UNL     1      -1.749   1.656   2.316  0.00  0.00    +0.059 A 
ATOM     26  C   UNL     1      -1.097   0.501   2.687  0.00  0.00    +0.162 A 
ATOM     27  C   UNL     1      -1.739  -0.737   2.581  0.00  0.00    +0.163 A 
ATOM     28  C   UNL     1      -3.034  -0.818   2.104  0.00  0.00    +0.075 A 
ATOM     29  C   UNL     1      -3.704   0.337   1.720  0.00  0.00    +0.053 A 
ATOM     30  N   UNL     1      -4.996   0.277   1.236  0.00  0.00    -0.322 N 
ATOM     31  H   UNL     1      -5.439  -0.583   1.163  0.00  0.00    +0.169 HD
ATOM     32  C   UNL     1      -5.647   1.392   0.864  0.00  0.00    +0.251 A 
ATOM     33  O   UNL     1      -6.787   1.301   0.440  0.00  0.00    -0.268 OA
BRANCH  27  34
ATOM     34  O   UNL     1      -1.085  -1.869   2.950  0.00  0.00    -0.491 OA
ATOM     35  C   UNL     1      -1.796  -3.101   2.817  0.00  0.00    +0.277 C 
ENDBRANCH  27  34
BRANCH  26  36
ATOM     36  O   UNL     1       0.178   0.565   3.158  0.00  0.00    -0.491 OA
ATOM     37  C   UNL     1       0.775   1.861   3.240  0.00  0.00    +0.277 C 
ENDBRANCH  26  36
ENDBRANCH  21  22
ENDBRANCH   1  21
TORSDOF 12
