REMARK  Name = ZINC31057729
REMARK  11 active torsions:
REMARK  status: ('A' for Active; 'I' for Inactive)
REMARK    1  A    between atoms: C_1  and  C_2
REMARK    2  A    between atoms: C_2  and  C_4
REMARK    3  A    between atoms: C_2  and  N_14
REMARK    4  A    between atoms: C_4  and  C_5
REMARK    5  A    between atoms: C_5  and  C_6
REMARK    6  A    between atoms: C_5  and  C_7
REMARK    7  A    between atoms: C_5  and  C_8
REMARK    8  A    between atoms: C_15  and  C_17
REMARK    9  A    between atoms: N_22  and  C_24
REMARK   10  A    between atoms: C_24  and  C_25
REMARK   11  A    between atoms: C_27  and  C_30
REMARK                            x       y       z     vdW  Elec       q    Type
REMARK                         _______ _______ _______ _____ _____    ______ ____
ROOT
ATOM      1  C   UNL     1      -3.954   8.103  -2.412  0.00  0.00    +0.058 C 
ATOM      2  C   UNL     1      -2.583   8.256  -3.078  0.00  0.00    +0.009 C 
ATOM      3  C   UNL     1      -1.745   7.005  -2.798  0.00  0.00    -0.018 C 
ATOM      4  C   UNL     1      -1.618   6.811  -1.285  0.00  0.00    -0.078 C 
ATOM      5  N   UNL     1      -2.955   6.669  -0.694  0.00  0.00    +0.386 N 
ATOM      6  C   UNL     1      -3.763   7.877  -0.910  0.00  0.00    -0.065 C 
ATOM      7  H   UNL     1      -3.459   5.834  -1.203  0.00  0.00    -0.081 HD
ENDROOT
BRANCH   1   9
ATOM      8  N   UNL     1      -5.058   9.753  -3.887  0.00  0.00    -0.313 N 
ATOM      9  C   UNL     1      -4.763   9.354  -2.633  0.00  0.00    +0.215 C 
ATOM     10  O   UNL     1      -5.150  10.002  -1.684  0.00  0.00    -0.276 OA
ATOM     11  H   UNL     1      -4.707   9.165  -4.748  0.00  0.00    +0.149 HD
BRANCH   8  13
ATOM     12  C   UNL     1      -4.918  12.186  -4.090  0.00  0.00    +0.028 C 
ATOM     13  C   UNL     1      -5.845  10.970  -4.102  0.00  0.00    +0.071 C 
BRANCH  13  14
ATOM     14  C   UNL     1      -6.557  10.884  -5.454  0.00  0.00    +0.033 C 
BRANCH  14  15
ATOM     15  C   UNL     1      -7.606   9.772  -5.409  0.00  0.00    -0.008 C 
ATOM     16  C   UNL     1      -6.909   8.419  -5.245  0.00  0.00    +0.016 C 
ATOM     17  C   UNL     1      -8.548  10.007  -4.226  0.00  0.00    +0.016 C 
BRANCH  15  18
ATOM     18  C   UNL     1      -8.399   9.776  -6.690  0.00  0.00    -0.042 A 
ATOM     19  C   UNL     1      -8.118  10.707  -7.673  0.00  0.00    +0.004 A 
ATOM     20  C   UNL     1      -8.842  10.708  -8.851  0.00  0.00    +0.000 A 
ATOM     21  C   UNL     1      -9.854   9.786  -9.041  0.00  0.00    +0.000 A 
ATOM     22  C   UNL     1     -10.138   8.859  -8.056  0.00  0.00    +0.000 A 
ATOM     23  C   UNL     1      -9.411   8.854  -6.881  0.00  0.00    +0.004 A 
ENDBRANCH  15  18
ENDBRANCH  14  15
ENDBRANCH  13  14
ENDBRANCH   8  13
ENDBRANCH   1   9
BRANCH   5  24
ATOM     24  C   UNL     1      -2.868   6.343   0.735  0.00  0.00    +0.022 C 
BRANCH  24  25
ATOM     25  C   UNL     1      -2.249   4.979   0.903  0.00  0.00    +0.211 A 
ATOM     26  N   UNL     1      -0.973   4.716   1.036  0.00  0.00    -0.192 NA
ATOM     27  C   UNL     1      -0.890   3.369   1.151  0.00  0.00    +0.209 A 
ATOM     28  N   UNL     1      -2.113   2.901   1.090  0.00  0.00    -0.056 NA
ATOM     29  O   UNL     1      -2.900   3.813   0.948  0.00  0.00    -0.340 OA
BRANCH  27  30
ATOM     30  C   UNL     1       0.345   2.578   1.320  0.00  0.00    +0.060 A 
ATOM     31  C   UNL     1       0.491   1.221   1.447  0.00  0.00    +0.019 A 
ATOM     32  C   UNL     1       1.757   0.702   1.590  0.00  0.00    +0.008 A 
ATOM     33  C   UNL     1       2.822   1.546   1.601  0.00  0.00    +0.046 A 
ATOM     34  S   UNL     1       2.038   3.138   1.405  0.00  0.00    -0.093 S 
ENDBRANCH  27  30
ENDBRANCH  24  25
ENDBRANCH   5  24
TORSDOF 8
