REMARK  Name = ZINC36051393
REMARK  10 active torsions:
REMARK  status: ('A' for Active; 'I' for Inactive)
REMARK    1  A    between atoms: C_1  and  C_2
REMARK    2  A    between atoms: C_5  and  N_8
REMARK    3  A    between atoms: C_10  and  C_31
REMARK    4  A    between atoms: C_14  and  C_16
REMARK    5  A    between atoms: C_16  and  N_17
REMARK    6  A    between atoms: N_17  and  C_18
REMARK    7  A    between atoms: C_18  and  C_19
REMARK    8  A    between atoms: C_19  and  O_20
REMARK    9  A    between atoms: O_20  and  C_21
REMARK   10  A    between atoms: C_22  and  C_24
REMARK                            x       y       z     vdW  Elec       q    Type
REMARK                         _______ _______ _______ _____ _____    ______ ____
ROOT
ATOM      1  N   UNL     1      -0.105  -4.524  -0.088  0.00  0.00    -0.287 N 
ATOM      2  C   UNL     1      -0.927  -5.407  -0.746  0.00  0.00    +0.122 A 
ATOM      3  C   UNL     1      -0.516  -6.654  -0.405  0.00  0.00    +0.091 A 
ATOM      4  N   UNL     1       0.530  -6.533   0.441  0.00  0.00    -0.214 NA
ATOM      5  C   UNL     1       0.787  -5.263   0.632  0.00  0.00    +0.207 A 
ATOM      6  N   UNL     1       1.797  -4.754   1.436  0.00  0.00    -0.254 N 
ATOM      7  C   UNL     1       2.618  -5.592   2.099  0.00  0.00    +0.237 C 
ATOM      8  O   UNL     1       2.474  -6.792   1.993  0.00  0.00    -0.274 OA
ATOM      9  H   UNL     1       1.913  -3.794   1.521  0.00  0.00    +0.158 HD
ENDROOT
BRANCH   1  14
ATOM     10  C   UNL     1      -0.361   1.141  -0.336  0.00  0.00    +0.044 C 
ATOM     11  C   UNL     1      -0.293  -0.363  -0.270  0.00  0.00    -0.050 A 
ATOM     12  C   UNL     1      -0.288  -1.106  -1.437  0.00  0.00    +0.005 A 
ATOM     13  C   UNL     1      -0.226  -2.484  -1.380  0.00  0.00    +0.026 A 
ATOM     14  C   UNL     1      -0.168  -3.125  -0.149  0.00  0.00    +0.049 A 
ATOM     15  C   UNL     1      -0.172  -2.377   1.020  0.00  0.00    +0.026 A 
ATOM     16  C   UNL     1      -0.230  -0.998   0.957  0.00  0.00    +0.005 A 
ENDBRANCH   1  14
BRANCH   3  17
ATOM     17  C   UNL     1      -1.112  -7.928  -0.877  0.00  0.00    +0.002 A 
ATOM     18  C   UNL     1      -2.192  -7.910  -1.758  0.00  0.00    +0.011 A 
ATOM     19  C   UNL     1      -2.743  -9.097  -2.195  0.00  0.00    +0.020 A 
ATOM     20  C   UNL     1      -2.225 -10.305  -1.760  0.00  0.00    +0.041 A 
ATOM     21  C   UNL     1      -1.152 -10.328  -0.885  0.00  0.00    +0.020 A 
ATOM     22  C   UNL     1      -0.591  -9.146  -0.446  0.00  0.00    +0.011 A 
ATOM     23 CL   UNL     1      -2.923 -11.795  -2.312  0.00  0.00    -0.084 Cl
ENDBRANCH   3  17
BRANCH   7  24
ATOM     24  C   UNL     1       3.715  -5.040   2.973  0.00  0.00    +0.204 C 
BRANCH  24  25
ATOM     25  N   UNL     1       4.461  -6.146   3.578  0.00  0.00    -0.286 N 
ATOM     26  C   UNL     1       4.075  -6.647   4.768  0.00  0.00    +0.250 C 
ATOM     27  O   UNL     1       4.741  -7.508   5.310  0.00  0.00    -0.270 OA
BRANCH  26  28
ATOM     28  C   UNL     1       2.843  -6.151   5.414  0.00  0.00    +0.072 A 
ATOM     29  C   UNL     1       2.709  -4.795   5.721  0.00  0.00    +0.016 A 
ATOM     30  C   UNL     1       1.556  -4.338   6.324  0.00  0.00    +0.001 A 
ATOM     31  C   UNL     1       0.531  -5.219   6.626  0.00  0.00    +0.003 A 
ATOM     32  C   UNL     1       0.655  -6.562   6.326  0.00  0.00    +0.039 A 
ATOM     33  C   UNL     1       1.802  -7.035   5.716  0.00  0.00    +0.135 A 
ATOM     34  F   UNL     1       1.921  -8.348   5.418  0.00  0.00    -0.205 F 
ENDBRANCH  26  28
BRANCH  25  35
ATOM     35  C   UNL     1       5.626  -6.706   2.890  0.00  0.00    +0.136 C 
BRANCH  35  36
ATOM     36  C   UNL     1       6.865  -5.873   3.225  0.00  0.00    +0.178 C 
BRANCH  36  37
ATOM     37  O   UNL     1       7.156  -5.990   4.619  0.00  0.00    -0.381 OA
ATOM     38  C   UNL     1       8.302  -5.246   5.038  0.00  0.00    +0.194 C 
ENDBRANCH  36  37
ENDBRANCH  35  36
ENDBRANCH  25  35
ENDBRANCH  24  25
ENDBRANCH   7  24
TORSDOF 8
