REMARK  Name = ZINC39738699
REMARK  9 active torsions:
REMARK  status: ('A' for Active; 'I' for Inactive)
REMARK    1  A    between atoms: C_1  and  C_2
REMARK    2  A    between atoms: C_2  and  C_4
REMARK    3  A    between atoms: C_2  and  N_17
REMARK    4  A    between atoms: N_6  and  C_7
REMARK    5  A    between atoms: C_7  and  C_8
REMARK    6  A    between atoms: N_17  and  C_18
REMARK    7  A    between atoms: C_18  and  C_19
REMARK    8  A    between atoms: C_19  and  C_21
REMARK    9  A    between atoms: C_19  and  C_27
REMARK                            x       y       z     vdW  Elec       q    Type
REMARK                         _______ _______ _______ _____ _____    ______ ____
ROOT
ATOM      1  N   UNL     1       0.690  -0.478  -1.207  0.00  0.00    +0.387 N 
ATOM      2  H   UNL     1       1.608  -0.063  -1.256  0.00  0.00    -0.085 HD
ATOM      3  H   UNL     1       0.776  -1.482  -1.172  0.00  0.00    -0.085 HD
ENDROOT
BRANCH   1   5
ATOM      4  C   UNL     1      -0.019   1.526   0.010  0.00  0.00    -0.004 C 
ATOM      5  C   UNL     1       0.002  -0.004   0.002  0.00  0.00    +0.013 C 
BRANCH   5   6
ATOM      6  C   UNL     1       0.731  -0.503   1.223  0.00  0.00    +0.199 C 
ATOM      7  O   UNL     1       1.725  -1.187   1.099  0.00  0.00    -0.278 OA
ATOM      8  N   UNL     1       0.278  -0.191   2.453  0.00  0.00    -0.313 N 
ATOM      9  H   UNL     1      -0.517   0.356   2.553  0.00  0.00    +0.149 HD
BRANCH   8  10
ATOM     10  C   UNL     1       0.986  -0.676   3.640  0.00  0.00    +0.139 C 
BRANCH  10  11
ATOM     11  C   UNL     1       0.281  -0.190   4.880  0.00  0.00    -0.027 A 
ATOM     12  C   UNL     1       0.633   1.023   5.443  0.00  0.00    +0.009 A 
ATOM     13  C   UNL     1      -0.012   1.473   6.580  0.00  0.00    +0.050 A 
ATOM     14  C   UNL     1      -1.012   0.709   7.159  0.00  0.00    +0.166 A 
ATOM     15  C   UNL     1      -1.366  -0.513   6.591  0.00  0.00    +0.167 A 
ATOM     16  C   UNL     1      -0.720  -0.955   5.448  0.00  0.00    +0.054 A 
ATOM     17  O   UNL     1      -2.365  -1.067   7.338  0.00  0.00    -0.453 OA
ATOM     18  C   UNL     1      -2.337  -0.368   8.597  0.00  0.00    +0.466 C 
ATOM     19  O   UNL     1      -1.789   0.920   8.261  0.00  0.00    -0.453 OA
ENDBRANCH  10  11
ENDBRANCH   8  10
ENDBRANCH   5   6
ENDBRANCH   1   5
BRANCH   1  20
ATOM     20  C   UNL     1      -0.086  -0.093  -2.394  0.00  0.00    -0.072 C 
BRANCH  20  21
ATOM     21  C   UNL     1       0.630  -0.587  -3.652  0.00  0.00    +0.018 C 
BRANCH  21  22
ATOM     22  C   UNL     1      -0.098  -0.087  -4.873  0.00  0.00    -0.020 A 
ATOM     23  C   UNL     1       0.451   0.772  -5.925  0.00  0.00    +0.003 A 
ATOM     24  C   UNL     1       1.696   1.362  -6.144  0.00  0.00    +0.010 A 
ATOM     25  C   UNL     1       1.897   2.131  -7.256  0.00  0.00    +0.001 A 
ATOM     26  C   UNL     1       0.871   2.330  -8.170  0.00  0.00    +0.002 A 
ATOM     27  C   UNL     1      -0.366   1.757  -7.973  0.00  0.00    +0.026 A 
ATOM     28  C   UNL     1      -0.592   0.970  -6.849  0.00  0.00    +0.047 A 
ATOM     29  N   UNL     1      -1.687   0.278  -6.380  0.00  0.00    -0.360 N 
ATOM     30  C   UNL     1      -1.372  -0.350  -5.206  0.00  0.00    +0.087 A 
ATOM     31  H   UNL     1      -2.551   0.238  -6.819  0.00  0.00    +0.165 HD
ENDBRANCH  21  22
BRANCH  21  32
ATOM     32  C   UNL     1       0.651  -2.116  -3.661  0.00  0.00    +0.060 C 
ATOM     33  C   UNL     1       1.379  -2.669  -4.915  0.00  0.00    +0.042 C 
ATOM     34  C   UNL     1       0.684  -3.885  -5.438  0.00  0.00    -0.019 C 
ATOM     35  C   UNL     1      -0.561  -4.134  -5.081  0.00  0.00    +0.036 C 
ATOM     36  S   UNL     1      -1.025  -2.813  -3.974  0.00  0.00    -0.129 S 
ENDBRANCH  21  32
ENDBRANCH  20  21
ENDBRANCH   1  20
TORSDOF 8
