REMARK  Name = ZINC12897669
REMARK  10 active torsions:
REMARK  status: ('A' for Active; 'I' for Inactive)
REMARK    1  A    between atoms: C_1  and  C_2
REMARK    2  A    between atoms: C_2  and  C_4
REMARK    3  A    between atoms: C_2  and  N_16
REMARK    4  A    between atoms: C_4  and  C_6
REMARK    5  A    between atoms: C_9  and  C_12
REMARK    6  A    between atoms: C_12  and  C_13
REMARK    7  A    between atoms: C_12  and  C_14
REMARK    8  A    between atoms: C_12  and  C_15
REMARK    9  A    between atoms: C_19  and  C_23
REMARK   10  A    between atoms: C_19  and  C_24
REMARK                            x       y       z     vdW  Elec       q    Type
REMARK                         _______ _______ _______ _____ _____    ______ ____
ROOT
ATOM      1  C   UNL     1       1.514   2.569  -1.392  0.00  0.00    +0.037 C 
ATOM      2  C   UNL     1       1.280   1.980   0.001  0.00  0.00    +0.153 C 
ENDROOT
BRANCH   2   3
ATOM      3  N   UNL     1       2.386   1.081   0.343  0.00  0.00    -0.214 N 
ATOM      4  C   UNL     1       3.198   1.250   1.405  0.00  0.00    +0.247 C 
ATOM      5  O   UNL     1       3.152   2.140   2.227  0.00  0.00    -0.273 OA
ATOM      6  C   UNL     1       4.178   0.095   1.359  0.00  0.00    +0.107 C 
ATOM      7  N   UNL     1       3.767  -0.661   0.164  0.00  0.00    -0.285 N 
ATOM      8  C   UNL     1       2.711  -0.011  -0.358  0.00  0.00    +0.310 C 
ATOM      9  O   UNL     1       2.121  -0.374  -1.357  0.00  0.00    -0.252 OA
ATOM     10  C   UNL     1       5.610   0.611   1.203  0.00  0.00    +0.041 C 
ATOM     11  C   UNL     1       4.050  -0.770   2.615  0.00  0.00    +0.041 C 
ATOM     12  H   UNL     1       4.175  -1.472  -0.177  0.00  0.00    +0.151 HD
ENDBRANCH   2   3
BRANCH   2  13
ATOM     13  C   UNL     1      -0.014   1.208   0.009  0.00  0.00    +0.184 C 
ATOM     14  O   UNL     1       0.002  -0.004   0.002  0.00  0.00    -0.290 OA
BRANCH  13  15
ATOM     15  C   UNL     1      -1.299   1.927   0.019  0.00  0.00    +0.019 A 
ATOM     16  C   UNL     1      -1.322   3.325   0.032  0.00  0.00    +0.012 A 
ATOM     17  C   UNL     1      -2.529   3.991   0.035  0.00  0.00    +0.005 A 
ATOM     18  C   UNL     1      -3.716   3.279   0.037  0.00  0.00    -0.042 A 
ATOM     19  C   UNL     1      -3.702   1.895   0.030  0.00  0.00    +0.005 A 
ATOM     20  C   UNL     1      -2.502   1.215   0.021  0.00  0.00    +0.012 A 
BRANCH  18  21
ATOM     21  C   UNL     1      -5.031   4.015   0.046  0.00  0.00    -0.013 C 
ATOM     22  C   UNL     1      -5.823   3.628   1.297  0.00  0.00    +0.015 C 
ATOM     23  C   UNL     1      -4.772   5.523   0.053  0.00  0.00    +0.015 C 
ATOM     24  C   UNL     1      -5.834   3.641  -1.202  0.00  0.00    +0.015 C 
ENDBRANCH  18  21
ENDBRANCH  13  15
ENDBRANCH   2  13
TORSDOF 4
