REMARK  Name = ZINC34774288
REMARK  8 active torsions:
REMARK  status: ('A' for Active; 'I' for Inactive)
REMARK    1  A    between atoms: C_1  and  C_2
REMARK    2  A    between atoms: C_2  and  C_4
REMARK    3  A    between atoms: C_4  and  N_5
REMARK    4  A    between atoms: C_13  and  C_25
REMARK    5  A    between atoms: C_18  and  S_20
REMARK    6  A    between atoms: S_20  and  C_21
REMARK    7  A    between atoms: C_21  and  C_22
REMARK    8  A    between atoms: C_22  and  C_24
REMARK                            x       y       z     vdW  Elec       q    Type
REMARK                         _______ _______ _______ _____ _____    ______ ____
ROOT
ATOM      1  N   UNL     1      -3.590  -1.014  -0.690  0.00  0.00    +0.384 N 
ATOM      2  C   UNL     1      -4.809  -1.552  -1.306  0.00  0.00    -0.059 C 
ATOM      3  C   UNL     1      -4.545  -1.845  -2.787  0.00  0.00    +0.088 C 
ATOM      4  N   UNL     1      -4.035  -0.620  -3.421  0.00  0.00    -0.318 N 
ATOM      5  C   UNL     1      -2.913   0.079  -2.775  0.00  0.00    +0.088 C 
ATOM      6  C   UNL     1      -3.254   0.281  -1.295  0.00  0.00    -0.059 C 
ATOM      7  C   UNL     1      -4.594  -0.138  -4.590  0.00  0.00    +0.134 A 
ATOM      8  C   UNL     1      -4.335  -0.786  -5.829  0.00  0.00    +0.055 A 
ATOM      9  C   UNL     1      -3.519  -1.963  -6.109  0.00  0.00    +0.002 A 
ATOM     10  C   UNL     1      -3.422  -2.400  -7.387  0.00  0.00    +0.056 A 
ATOM     11  S   UNL     1      -4.431  -1.246  -8.298  0.00  0.00    -0.076 S 
ATOM     12  C   UNL     1      -4.956  -0.212  -6.957  0.00  0.00    +0.115 A 
ATOM     13  N   UNL     1      -5.723   0.856  -6.852  0.00  0.00    -0.214 NA
ATOM     14  C   UNL     1      -5.930   1.420  -5.669  0.00  0.00    +0.191 A 
ATOM     15  N   UNL     1      -5.379   0.926  -4.567  0.00  0.00    -0.206 NA
ATOM     16  H   UNL     1      -2.829  -1.660  -0.836  0.00  0.00    -0.081 HD
ENDROOT
BRANCH   9  17
ATOM     17  C   UNL     1      -2.808  -2.667  -5.016  0.00  0.00    -0.017 A 
ATOM     18  C   UNL     1      -1.855  -1.994  -4.253  0.00  0.00    +0.008 A 
ATOM     19  C   UNL     1      -1.197  -2.654  -3.236  0.00  0.00    +0.001 A 
ATOM     20  C   UNL     1      -1.481  -3.982  -2.972  0.00  0.00    +0.000 A 
ATOM     21  C   UNL     1      -2.426  -4.655  -3.725  0.00  0.00    +0.001 A 
ATOM     22  C   UNL     1      -3.095  -4.004  -4.741  0.00  0.00    +0.008 A 
ENDBRANCH   9  17
BRANCH   1  23
ATOM     23  C   UNL     1      -3.810  -0.837   0.752  0.00  0.00    -0.048 C 
BRANCH  23  25
ATOM     24  C   UNL     1      -2.824  -3.024   1.780  0.00  0.00    +0.036 C 
ATOM     25  C   UNL     1      -4.014  -2.183   1.398  0.00  0.00    -0.096 C 
ATOM     26  C   UNL     1      -5.227  -2.621   1.628  0.00  0.00    +0.005 C 
ENDBRANCH  23  25
ENDBRANCH   1  23
BRANCH  14  27
ATOM     27  S   UNL     1      -6.958   2.846  -5.558  0.00  0.00    -0.082 S 
BRANCH  27  28
ATOM     28  C   UNL     1      -7.479   3.146  -7.270  0.00  0.00    +0.107 C 
BRANCH  28  29
ATOM     29  C   UNL     1      -8.377   4.355  -7.317  0.00  0.00    -0.069 C 
ATOM     30  C   UNL     1      -7.920   5.492  -7.782  0.00  0.00    +0.008 C 
ATOM     31  C   UNL     1      -9.800   4.257  -6.830  0.00  0.00    +0.039 C 
ENDBRANCH  28  29
ENDBRANCH  27  28
ENDBRANCH  14  27
TORSDOF 6
