REMARK  Name = ZINC14606320
REMARK  7 active torsions:
REMARK  status: ('A' for Active; 'I' for Inactive)
REMARK    1  A    between atoms: C_1  and  C_2
REMARK    2  A    between atoms: C_2  and  C_34
REMARK    3  A    between atoms: C_6  and  C_26
REMARK    4  A    between atoms: N_8  and  C_16
REMARK    5  A    between atoms: C_16  and  C_17
REMARK    6  A    between atoms: N_19  and  C_20
REMARK    7  A    between atoms: C_20  and  C_21
REMARK                            x       y       z     vdW  Elec       q    Type
REMARK                         _______ _______ _______ _____ _____    ______ ____
ROOT
ATOM      1  C   UNL     1       0.390   4.108   0.364  0.00  0.00    +0.011 C 
ATOM      2  C   UNL     1       1.276   3.258   1.277  0.00  0.00    -0.023 C 
ATOM      3  C   UNL     1       0.716   1.838   1.366  0.00  0.00    +0.058 C 
ATOM      4  C   UNL     1       0.712   1.196   0.001  0.00  0.00    +0.017 C 
ATOM      5  C   UNL     1       1.624   1.522  -0.950  0.00  0.00    +0.040 C 
ATOM      6  C   UNL     1       1.737   0.982  -2.372  0.00  0.00    +0.175 C 
ATOM      7  N   UNL     1       0.693   0.030  -2.690  0.00  0.00    -0.306 N 
ATOM      8  C   UNL     1       0.663  -1.124  -1.912  0.00  0.00    +0.052 A 
ATOM      9  C   UNL     1       1.122  -2.343  -2.398  0.00  0.00    +0.025 A 
ATOM     10  C   UNL     1       0.993  -3.463  -1.590  0.00  0.00    +0.002 A 
ATOM     11  C   UNL     1       0.423  -3.361  -0.334  0.00  0.00    +0.002 A 
ATOM     12  C   UNL     1      -0.011  -2.133   0.143  0.00  0.00    +0.025 A 
ATOM     13  C   UNL     1       0.137  -1.020  -0.674  0.00  0.00    +0.052 A 
ATOM     14  N   UNL     1      -0.242   0.256  -0.246  0.00  0.00    -0.316 N 
ATOM     15  C   UNL     1       2.617   2.482  -0.641  0.00  0.00    +0.163 C 
ATOM     16  O   UNL     1       3.443   2.762  -1.488  0.00  0.00    -0.292 OA
ATOM     17  C   UNL     1       2.689   3.166   0.690  0.00  0.00    +0.086 C 
ATOM     18  C   UNL     1       1.333   3.882   2.673  0.00  0.00    +0.011 C 
ATOM     19  H   UNL     1      -1.181   0.472  -0.129  0.00  0.00    +0.152 HD
ENDROOT
BRANCH   6  20
ATOM     20  C   UNL     1       3.076   0.308  -2.532  0.00  0.00    +0.130 A 
ATOM     21  C   UNL     1       4.121   0.789  -3.228  0.00  0.00    +0.047 A 
ATOM     22  C   UNL     1       5.164  -0.158  -3.110  0.00  0.00    +0.041 A 
ATOM     23  C   UNL     1       4.691  -1.166  -2.354  0.00  0.00    +0.195 A 
ATOM     24  O   UNL     1       3.425  -0.878  -2.007  0.00  0.00    -0.466 OA
ENDBRANCH   6  20
BRANCH   7  25
ATOM     25  C   UNL     1       0.701  -0.300  -4.122  0.00  0.00    +0.201 C 
BRANCH  25  26
ATOM     26  C   UNL     1      -0.608  -0.947  -4.495  0.00  0.00    +0.231 C 
ATOM     27  O   UNL     1      -1.507  -1.009  -3.682  0.00  0.00    -0.274 OA
ATOM     28  N   UNL     1      -0.780  -1.456  -5.731  0.00  0.00    -0.309 N 
ATOM     29  H   UNL     1      -0.062  -1.406  -6.380  0.00  0.00    +0.149 HD
BRANCH  28  30
ATOM     30  C   UNL     1      -2.053  -2.085  -6.093  0.00  0.00    +0.146 C 
BRANCH  30  31
ATOM     31  C   UNL     1      -1.986  -2.568  -7.519  0.00  0.00    +0.007 A 
ATOM     32  C   UNL     1      -1.583  -3.772  -7.994  0.00  0.00    +0.013 A 
ATOM     33  C   UNL     1      -1.607  -3.997  -9.358  0.00  0.00    +0.008 A 
ATOM     34  C   UNL     1      -2.033  -3.006 -10.180  0.00  0.00    +0.045 A 
ATOM     35  S   UNL     1      -2.425  -1.707  -9.020  0.00  0.00    -0.100 S 
ENDBRANCH  30  31
ENDBRANCH  28  30
ENDBRANCH  25  26
ENDBRANCH   7  25
TORSDOF 5
