REMARK  Name = ZINC49951041
REMARK  3 active torsions:
REMARK  status: ('A' for Active; 'I' for Inactive)
REMARK    1  A    between atoms: C_1  and  C_2
REMARK    2  A    between atoms: C_5  and  C_7
REMARK    3  A    between atoms: C_13  and  C_15
REMARK                            x       y       z     vdW  Elec       q    Type
REMARK                         _______ _______ _______ _____ _____    ______ ____
ROOT
ATOM      1  C   UNL     1       1.434  -1.989   0.869  0.00  0.00    +0.222 C 
ATOM      2  O   UNL     1       1.456  -2.425  -0.263  0.00  0.00    -0.275 OA
ATOM      3  N   UNL     1       2.066  -2.650   1.858  0.00  0.00    -0.263 N 
ATOM      4  C   UNL     1       2.744  -3.833   1.582  0.00  0.00    +0.188 A 
ATOM      5  N   UNL     1       2.888  -4.459   0.431  0.00  0.00    -0.126 NA
ATOM      6  N   UNL     1       3.540  -5.538   0.334  0.00  0.00    -0.144 NA
ATOM      7  C   UNL     1       4.092  -6.052   1.415  0.00  0.00    +0.110 A 
ATOM      8  S   UNL     1       3.603  -4.836   2.630  0.00  0.00    -0.035 S 
ATOM      9  H   UNL     1       2.049  -2.301   2.763  0.00  0.00    +0.157 HD
ENDROOT
BRANCH   7  10
ATOM     10  C   UNL     1       4.909  -7.307   1.578  0.00  0.00    +0.022 C 
ATOM     11  C   UNL     1       4.076  -8.518   1.151  0.00  0.00    +0.017 C 
ATOM     12  C   UNL     1       4.906  -9.792   1.317  0.00  0.00    -0.010 C 
ATOM     13  C   UNL     1       6.160  -9.702   0.444  0.00  0.00    +0.007 C 
ATOM     14  C   UNL     1       6.992  -8.492   0.871  0.00  0.00    -0.010 C 
ATOM     15  C   UNL     1       6.162  -7.217   0.705  0.00  0.00    +0.017 C 
ATOM     16  C   UNL     1       7.402  -8.646   2.337  0.00  0.00    +0.007 C 
ATOM     17  C   UNL     1       6.149  -8.736   3.210  0.00  0.00    -0.010 C 
ATOM     18  C   UNL     1       5.316  -9.947   2.783  0.00  0.00    +0.007 C 
ATOM     19  C   UNL     1       5.319  -7.462   3.044  0.00  0.00    +0.017 C 
ENDBRANCH   7  10
BRANCH   1  23
ATOM     20  C   UNL     1      -0.019   1.526   0.010  0.00  0.00    +0.008 C 
ATOM     21  C   UNL     1       0.002  -0.004   0.002  0.00  0.00    -0.002 C 
ATOM     22  C   UNL     1      -0.828  -0.728   1.065  0.00  0.00    +0.017 C 
ATOM     23  C   UNL     1       0.700  -0.708   1.168  0.00  0.00    +0.078 C 
ENDBRANCH   1  23
TORSDOF 2
