REMARK  Name = ZINC66596765
REMARK  10 active torsions:
REMARK  status: ('A' for Active; 'I' for Inactive)
REMARK    1  A    between atoms: C_1  and  C_2
REMARK    2  A    between atoms: C_5  and  C_9
REMARK    3  A    between atoms: C_6  and  C_8
REMARK    4  A    between atoms: C_9  and  C_10
REMARK    5  A    between atoms: C_10  and  C_12
REMARK    6  A    between atoms: C_10  and  N_13
REMARK    7  A    between atoms: N_16  and  C_17
REMARK    8  A    between atoms: N_20  and  C_23
REMARK    9  A    between atoms: C_23  and  C_24
REMARK   10  A    between atoms: N_26  and  C_27
REMARK                            x       y       z     vdW  Elec       q    Type
REMARK                         _______ _______ _______ _____ _____    ______ ____
ROOT
ATOM      1  N   UNL     1      -2.143  -4.420  -1.074  0.00  0.00    -0.297 N 
ATOM      2  C   UNL     1      -3.484  -4.311  -0.997  0.00  0.00    +0.300 C 
ATOM      3  O   UNL     1      -4.053  -4.532   0.055  0.00  0.00    -0.253 OA
ATOM      4  N   UNL     1      -4.196  -3.958  -2.086  0.00  0.00    -0.297 N 
ATOM      5  H   UNL     1      -1.690  -4.245  -1.914  0.00  0.00    +0.151 HD
ATOM      6  H   UNL     1      -3.742  -3.782  -2.925  0.00  0.00    +0.151 HD
ENDROOT
BRANCH   4   7
ATOM      7  C   UNL     1      -5.653  -3.839  -2.002  0.00  0.00    +0.071 C 
ATOM      8  C   UNL     1      -6.293  -5.213  -2.223  0.00  0.00    +0.004 C 
ATOM      9  C   UNL     1      -7.816  -5.069  -2.213  0.00  0.00    -0.076 C 
ATOM     10  N   UNL     1      -8.231  -4.156  -3.285  0.00  0.00    +0.385 N 
ATOM     11  C   UNL     1      -7.680  -2.817  -3.041  0.00  0.00    -0.076 C 
ATOM     12  C   UNL     1      -6.152  -2.875  -3.082  0.00  0.00    +0.004 C 
ATOM     13  H   UNL     1      -7.892  -4.502  -4.170  0.00  0.00    -0.081 HD
BRANCH  10  14
ATOM     14  C   UNL     1      -9.698  -4.081  -3.321  0.00  0.00    +0.019 C 
BRANCH  14  15
ATOM     15  C   UNL     1     -10.129  -3.242  -4.497  0.00  0.00    +0.196 C 
ATOM     16  O   UNL     1      -9.297  -2.755  -5.232  0.00  0.00    -0.278 OA
ATOM     17  N   UNL     1     -11.440  -3.034  -4.731  0.00  0.00    -0.320 N 
ATOM     18  C   UNL     1     -11.859  -2.219  -5.874  0.00  0.00    +0.128 C 
ATOM     19  H   UNL     1     -12.106  -3.424  -4.143  0.00  0.00    +0.148 HD
ENDBRANCH  14  15
ENDBRANCH  10  14
ENDBRANCH   4   7
BRANCH   1  20
ATOM     20  C   UNL     1      -1.370  -4.804   0.109  0.00  0.00    +0.076 C 
ATOM     21  C   UNL     1      -1.341  -6.330   0.226  0.00  0.00    +0.028 C 
BRANCH  20  22
ATOM     22  C   UNL     1       0.059  -4.275  -0.021  0.00  0.00    +0.057 C 
BRANCH  22  27
ATOM     23  C   UNL     1      -0.018   1.503   0.010  0.00  0.00    +0.044 C 
ATOM     24  C   UNL     1       0.002  -0.004   0.002  0.00  0.00    -0.050 A 
ATOM     25  C   UNL     1       0.006  -0.689  -1.199  0.00  0.00    +0.003 A 
ATOM     26  C   UNL     1       0.025  -2.071  -1.207  0.00  0.00    +0.004 A 
ATOM     27  C   UNL     1       0.040  -2.768  -0.013  0.00  0.00    -0.043 A 
ATOM     28  C   UNL     1       0.037  -2.084   1.188  0.00  0.00    -0.047 A 
ATOM     29  C   UNL     1       0.023  -0.702   1.195  0.00  0.00    +0.007 A 
ATOM     30  C   UNL     1       0.054  -2.845   2.489  0.00  0.00    +0.044 C 
ENDBRANCH  22  27
ENDBRANCH  20  22
ENDBRANCH   1  20
TORSDOF 6
