REMARK  Name = ZINC40386744
REMARK  6 active torsions:
REMARK  status: ('A' for Active; 'I' for Inactive)
REMARK    1  A    between atoms: C_4  and  C_7
REMARK    2  A    between atoms: C_7  and  N_8
REMARK    3  A    between atoms: C_9  and  N_28
REMARK    4  A    between atoms: C_11  and  C_22
REMARK    5  A    between atoms: N_17  and  C_18
REMARK    6  A    between atoms: C_18  and  C_19
REMARK                            x       y       z     vdW  Elec       q    Type
REMARK                         _______ _______ _______ _____ _____    ______ ____
ROOT
ATOM      1  N   UNL     1       4.623  -1.142   1.319  0.00  0.00    -0.244 N 
ATOM      2  C   UNL     1       4.985  -0.127   2.123  0.00  0.00    +0.126 A 
ATOM      3  C   UNL     1       4.748  -0.525   3.433  0.00  0.00    +0.086 A 
ATOM      4  C   UNL     1       4.906   0.054   4.712  0.00  0.00    +0.089 A 
ATOM      5  N   UNL     1       4.556  -0.660   5.773  0.00  0.00    -0.214 NA
ATOM      6  C   UNL     1       4.066  -1.892   5.667  0.00  0.00    +0.218 A 
ATOM      7  N   UNL     1       3.885  -2.507   4.516  0.00  0.00    -0.193 NA
ATOM      8  C   UNL     1       4.201  -1.892   3.360  0.00  0.00    +0.188 A 
ATOM      9  N   UNL     1       4.142  -2.209   2.086  0.00  0.00    -0.149 NA
ATOM     10  N   UNL     1       3.727  -2.563   6.828  0.00  0.00    -0.313 N 
ATOM     11  H   UNL     1       3.849  -2.135   7.689  0.00  0.00    +0.149 HD
ENDROOT
BRANCH   4  12
ATOM     12  C   UNL     1       5.449   1.423   4.863  0.00  0.00    +0.001 A 
ATOM     13  C   UNL     1       4.983   2.456   4.049  0.00  0.00    +0.010 A 
ATOM     14  C   UNL     1       5.493   3.729   4.195  0.00  0.00    +0.001 A 
ATOM     15  C   UNL     1       6.466   3.983   5.146  0.00  0.00    +0.000 A 
ATOM     16  C   UNL     1       6.932   2.963   5.956  0.00  0.00    +0.001 A 
ATOM     17  C   UNL     1       6.425   1.687   5.824  0.00  0.00    +0.010 A 
ENDBRANCH   4  12
BRANCH   2  18
ATOM     18  N   UNL     1       5.500   1.091   1.719  0.00  0.00    -0.343 N 
ATOM     19  H   UNL     1       5.379   1.390   0.804  0.00  0.00    +0.144 HD
ATOM     20  H   UNL     1       5.982   1.647   2.351  0.00  0.00    +0.144 HD
ENDBRANCH   2  18
BRANCH   1  21
ATOM     21  C   UNL     1       4.714  -1.130  -0.143  0.00  0.00    +0.180 C 
BRANCH  21  25
ATOM     22  C   UNL     1       1.081   0.402  -1.785  0.00  0.00    +0.000 A 
ATOM     23  C   UNL     1       2.119   1.263  -1.482  0.00  0.00    +0.000 A 
ATOM     24  C   UNL     1       3.295   0.767  -0.950  0.00  0.00    +0.005 A 
ATOM     25  C   UNL     1       3.432  -0.590  -0.722  0.00  0.00    -0.026 A 
ATOM     26  C   UNL     1       2.393  -1.450  -1.024  0.00  0.00    +0.005 A 
ATOM     27  C   UNL     1       1.218  -0.954  -1.557  0.00  0.00    +0.000 A 
ENDBRANCH  21  25
ENDBRANCH   1  21
BRANCH  10  28
ATOM     28  C   UNL     1       3.184  -3.922   6.756  0.00  0.00    +0.108 C 
BRANCH  28  29
ATOM     29  C   UNL     1       2.896  -4.431   8.170  0.00  0.00    +0.006 C 
ATOM     30  C   UNL     1       3.692  -5.642   8.660  0.00  0.00    +0.005 C 
ATOM     31  C   UNL     1       2.212  -5.793   8.305  0.00  0.00    +0.005 C 
ENDBRANCH  28  29
ENDBRANCH  10  28
TORSDOF 6
