REMARK  Name = ZINC09259593
REMARK  5 active torsions:
REMARK  status: ('A' for Active; 'I' for Inactive)
REMARK    1  A    between atoms: C_1  and  O_2
REMARK    2  A    between atoms: O_2  and  C_3
REMARK    3  A    between atoms: C_6  and  N_9
REMARK    4  A    between atoms: C_13  and  C_14
REMARK    5  A    between atoms: N_17  and  C_23
REMARK                            x       y       z     vdW  Elec       q    Type
REMARK                         _______ _______ _______ _____ _____    ______ ____
ROOT
ATOM      1  C   UNL     1      -6.803   0.743  -0.744  0.00  0.00    +0.036 C 
ATOM      2  C   UNL     1      -5.685   1.410  -1.129  0.00  0.00    +0.034 C 
ATOM      3  C   UNL     1      -4.393   1.312  -0.341  0.00  0.00    +0.155 C 
ATOM      4  N   UNL     1      -3.245   2.075  -0.858  0.00  0.00    -0.251 N 
ATOM      5  C   UNL     1      -3.403   2.812  -1.973  0.00  0.00    +0.313 C 
ATOM      6  O   UNL     1      -2.452   3.443  -2.390  0.00  0.00    -0.252 OA
ATOM      7  N   UNL     1      -4.558   2.882  -2.644  0.00  0.00    -0.236 N 
ATOM      8  C   UNL     1      -5.676   2.233  -2.284  0.00  0.00    +0.249 C 
ATOM      9  O   UNL     1      -6.687   2.353  -2.951  0.00  0.00    -0.270 OA
ATOM     10  H   UNL     1      -4.589   3.436  -3.439  0.00  0.00    +0.159 HD
ENDROOT
BRANCH   4  11
ATOM     11  C   UNL     1      -2.011   2.040  -0.198  0.00  0.00    +0.038 A 
ATOM     12  C   UNL     1      -0.868   1.644  -0.880  0.00  0.00    +0.024 A 
ATOM     13  C   UNL     1       0.349   1.615  -0.228  0.00  0.00    +0.017 A 
ATOM     14  C   UNL     1       0.428   1.970   1.107  0.00  0.00    +0.018 A 
ATOM     15  C   UNL     1      -0.710   2.361   1.790  0.00  0.00    +0.017 A 
ATOM     16  C   UNL     1      -1.929   2.396   1.141  0.00  0.00    +0.024 A 
ATOM     17 BR   UNL     1       2.095   1.923   1.999  0.00  0.00    -0.050 Br
ENDBRANCH   4  11
BRANCH   1  22
ATOM     18  N   UNL     1      -7.901  -0.602   1.046  0.00  0.00    -0.316 N 
ATOM     19  C   UNL     1      -7.504  -1.192   2.203  0.00  0.00    +0.092 A 
ATOM     20  C   UNL     1      -6.181  -0.957   2.385  0.00  0.00    +0.020 A 
ATOM     21  C   UNL     1      -5.727  -0.192   1.307  0.00  0.00    +0.027 A 
ATOM     22  C   UNL     1      -6.811   0.019   0.473  0.00  0.00    +0.047 A 
BRANCH  18  26
ATOM     23  C   UNL     1     -11.766  -0.670  -0.522  0.00  0.00    +0.120 A 
ATOM     24  C   UNL     1     -11.092   0.536  -0.391  0.00  0.00    +0.047 A 
ATOM     25  C   UNL     1      -9.814   0.560   0.133  0.00  0.00    +0.030 A 
ATOM     26  C   UNL     1      -9.200  -0.624   0.519  0.00  0.00    +0.047 A 
ATOM     27  C   UNL     1      -9.873  -1.831   0.383  0.00  0.00    +0.030 A 
ATOM     28  C   UNL     1     -11.152  -1.853  -0.137  0.00  0.00    +0.047 A 
BRANCH  23  30
ATOM     29  C   UNL     1     -13.552   0.546  -1.514  0.00  0.00    +0.277 C 
ATOM     30  O   UNL     1     -13.025  -0.692  -1.033  0.00  0.00    -0.495 OA
ENDBRANCH  23  30
ENDBRANCH  18  26
ENDBRANCH   1  22
TORSDOF 4
