REMARK  Name = ZINC39421133
REMARK  5 active torsions:
REMARK  status: ('A' for Active; 'I' for Inactive)
REMARK    1  A    between atoms: C_1  and  C_2
REMARK    2  A    between atoms: C_8  and  C_32
REMARK    3  A    between atoms: C_10  and  C_13
REMARK    4  A    between atoms: C_18  and  C_21
REMARK    5  A    between atoms: C_27  and  C_31
REMARK                            x       y       z     vdW  Elec       q    Type
REMARK                         _______ _______ _______ _____ _____    ______ ____
ROOT
ATOM      1  C   UNL     1       0.385  -5.591   2.111  0.00  0.00    +0.257 C 
ATOM      2  O   UNL     1       1.193  -6.187   1.430  0.00  0.00    -0.272 OA
ATOM      3  N   UNL     1       0.144  -5.991   3.375  0.00  0.00    -0.298 N 
ATOM      4  C   UNL     1      -0.836  -5.283   4.210  0.00  0.00    +0.108 C 
ATOM      5  C   UNL     1      -0.162  -4.878   5.525  0.00  0.00    +0.030 C 
ATOM      6  C   UNL     1       0.447  -6.118   6.185  0.00  0.00    +0.058 C 
ATOM      7  C   UNL     1       1.510  -6.719   5.262  0.00  0.00    +0.030 C 
ATOM      8  C   UNL     1       0.851  -7.148   3.942  0.00  0.00    +0.108 C 
ENDROOT
BRANCH   1  17
ATOM      9  C   UNL     1      -0.018   1.503   0.010  0.00  0.00    +0.044 C 
ATOM     10  C   UNL     1       0.002  -0.004   0.002  0.00  0.00    -0.050 A 
ATOM     11  C   UNL     1       0.006  -0.691  -1.198  0.00  0.00    +0.007 A 
ATOM     12  C   UNL     1       0.029  -2.070  -1.211  0.00  0.00    +0.046 A 
ATOM     13  C   UNL     1       0.048  -2.783  -0.015  0.00  0.00    +0.125 A 
ATOM     14  C   UNL     1       0.037  -2.082   1.184  0.00  0.00    +0.001 A 
ATOM     15  C   UNL     1       0.023  -0.705   1.195  0.00  0.00    +0.011 A 
ATOM     16  C   UNL     1       0.038  -3.109   2.300  0.00  0.00    +0.069 C 
ATOM     17  C   UNL     1      -0.348  -4.403   1.544  0.00  0.00    +0.266 C 
ATOM     18  O   UNL     1       0.084  -4.127   0.201  0.00  0.00    -0.479 OA
ATOM     19  C   UNL     1       1.428  -3.234   2.926  0.00  0.00    +0.017 C 
ENDBRANCH   1  17
BRANCH   6  20
ATOM     20  C   UNL     1       1.081  -5.729   7.495  0.00  0.00    +0.111 A 
ATOM     21  H   UNL     1       2.986  -5.096   6.923  0.00  0.00    +0.167 HD
ATOM     22  N   UNL     1       0.501  -5.811   8.657  0.00  0.00    -0.232 NA
ATOM     23  C   UNL     1       1.353  -5.381   9.623  0.00  0.00    +0.089 A 
ATOM     24  C   UNL     1       1.252  -5.258  11.011  0.00  0.00    +0.030 A 
ATOM     25  C   UNL     1       2.311  -4.780  11.731  0.00  0.00    +0.005 A 
ATOM     26  C   UNL     1       3.490  -4.413  11.098  0.00  0.00    -0.048 A 
ATOM     27  C   UNL     1       3.611  -4.525   9.729  0.00  0.00    +0.031 A 
ATOM     28  C   UNL     1       2.547  -5.010   8.981  0.00  0.00    +0.066 A 
ATOM     29  N   UNL     1       2.345  -5.247   7.636  0.00  0.00    -0.342 N 
ATOM     30  C   UNL     1       4.644  -3.888  11.911  0.00  0.00    +0.044 C 
ENDBRANCH   6  20
TORSDOF 2
