REMARK  Name = ZINC60385506
REMARK  10 active torsions:
REMARK  status: ('A' for Active; 'I' for Inactive)
REMARK    1  A    between atoms: C_1  and  C_2
REMARK    2  A    between atoms: C_2  and  C_4
REMARK    3  A    between atoms: C_2  and  O_17
REMARK    4  A    between atoms: N_6  and  C_7
REMARK    5  A    between atoms: C_10  and  S_13
REMARK    6  A    between atoms: S_13  and  N_16
REMARK    7  A    between atoms: O_17  and  C_18
REMARK    8  A    between atoms: C_18  and  C_20
REMARK    9  A    between atoms: C_22  and  N_27
REMARK   10  A    between atoms: C_25  and  N_26
REMARK                            x       y       z     vdW  Elec       q    Type
REMARK                         _______ _______ _______ _____ _____    ______ ____
ROOT
ATOM      1  C   UNL     1      -0.677   1.308  -0.417  0.00  0.00    +0.062 C 
ATOM      2  C   UNL     1      -0.576  -0.217  -0.466  0.00  0.00    +0.259 C 
ENDROOT
BRANCH   2   3
ATOM      3  C   UNL     1      -1.952  -0.807  -0.641  0.00  0.00    +0.258 C 
ATOM      4  O   UNL     1      -2.226  -1.415  -1.654  0.00  0.00    -0.271 OA
ATOM      5  N   UNL     1      -2.877  -0.658   0.327  0.00  0.00    -0.282 N 
ATOM      6  H   UNL     1      -2.640  -0.228   1.163  0.00  0.00    +0.155 HD
BRANCH   5   7
ATOM      7  C   UNL     1      -4.181  -1.124   0.126  0.00  0.00    +0.034 A 
ATOM      8  C   UNL     1      -5.259  -0.425   0.653  0.00  0.00    +0.025 A 
ATOM      9  C   UNL     1      -6.545  -0.887   0.453  0.00  0.00    +0.030 A 
ATOM     10  C   UNL     1      -6.760  -2.045  -0.272  0.00  0.00    +0.105 A 
ATOM     11  C   UNL     1      -5.689  -2.744  -0.798  0.00  0.00    +0.030 A 
ATOM     12  C   UNL     1      -4.401  -2.283  -0.606  0.00  0.00    +0.025 A 
BRANCH  10  13
ATOM     13  S   UNL     1      -8.402  -2.632  -0.525  0.00  0.00    +0.056 S 
ATOM     14  O   UNL     1      -8.301  -4.028  -0.770  0.00  0.00    -0.153 OA
ATOM     15  O   UNL     1      -9.191  -2.099   0.530  0.00  0.00    -0.153 OA
BRANCH  13  16
ATOM     16  N   UNL     1      -8.957  -1.945  -1.926  0.00  0.00    -0.204 NA
ATOM     17  H   UNL     1      -9.604  -2.416  -2.474  0.00  0.00    +0.144 HD
ATOM     18  H   UNL     1      -8.635  -1.071  -2.198  0.00  0.00    +0.144 HD
ENDBRANCH  13  16
ENDBRANCH  10  13
ENDBRANCH   5   7
ENDBRANCH   2   3
BRANCH   2  19
ATOM     19  O   UNL     1       0.252  -0.605  -1.564  0.00  0.00    -0.449 OA
BRANCH  19  20
ATOM     20  C   UNL     1       1.572  -0.730  -1.321  0.00  0.00    +0.342 C 
ATOM     21  O   UNL     1       2.007  -0.515  -0.206  0.00  0.00    -0.245 OA
BRANCH  20  22
ATOM     22  C   UNL     1       2.486  -1.126  -2.405  0.00  0.00    +0.082 A 
ATOM     23  C   UNL     1       2.010  -1.265  -3.712  0.00  0.00    +0.049 A 
ATOM     24  C   UNL     1       2.870  -1.636  -4.721  0.00  0.00    +0.127 A 
ATOM     25  C   UNL     1       4.208  -1.873  -4.449  0.00  0.00    +0.034 A 
ATOM     26  C   UNL     1       4.695  -1.741  -3.165  0.00  0.00    +0.026 A 
ATOM     27  C   UNL     1       3.844  -1.362  -2.134  0.00  0.00    +0.039 A 
BRANCH  27  28
ATOM     28  N   UNL     1       4.332  -1.222  -0.842  0.00  0.00    -0.357 N 
ATOM     29  H   UNL     1       3.754  -0.887  -0.139  0.00  0.00    +0.142 HD
ATOM     30  H   UNL     1       5.251  -1.459  -0.642  0.00  0.00    +0.142 HD
ENDBRANCH  27  28
BRANCH  24  31
ATOM     31  N   UNL     1       2.363  -1.782  -6.104  0.00  0.00    +0.056 N 
ATOM     32  O   UNL     1       1.196  -1.576  -6.345  0.00  0.00    -0.126 OA
ATOM     33  O   UNL     1       3.115  -2.107  -6.993  0.00  0.00    -0.126 OA
ENDBRANCH  24  31
ENDBRANCH  20  22
ENDBRANCH  19  20
ENDBRANCH   2  19
TORSDOF 9
