REMARK  Name = ZINC13281321
REMARK  11 active torsions:
REMARK  status: ('A' for Active; 'I' for Inactive)
REMARK    1  A    between atoms: C_1  and  C_2
REMARK    2  A    between atoms: C_2  and  O_3
REMARK    3  A    between atoms: O_3  and  C_4
REMARK    4  A    between atoms: C_4  and  C_6
REMARK    5  A    between atoms: C_7  and  C_27
REMARK    6  A    between atoms: C_8  and  C_26
REMARK    7  A    between atoms: C_10  and  N_11
REMARK    8  A    between atoms: C_12  and  C_14
REMARK    9  A    between atoms: C_15  and  N_25
REMARK   10  A    between atoms: C_17  and  C_24
REMARK   11  A    between atoms: C_19  and  C_23
REMARK                            x       y       z     vdW  Elec       q    Type
REMARK                         _______ _______ _______ _____ _____    ______ ____
ROOT
ATOM      1  N   UNL     1       2.424   4.034   4.118  0.00  0.00    -0.275 N 
ATOM      2  C   UNL     1       2.580   4.754   5.246  0.00  0.00    +0.257 C 
ATOM      3  O   UNL     1       2.727   5.961   5.183  0.00  0.00    -0.269 OA
ATOM      4  H   UNL     1       2.307   3.072   4.168  0.00  0.00    +0.156 HD
ENDROOT
BRANCH   2   5
ATOM      5  C   UNL     1       2.572   4.107   6.506  0.00  0.00    +0.097 A 
ATOM      6  C   UNL     1       2.721   4.668   7.756  0.00  0.00    +0.054 A 
ATOM      7  C   UNL     1       2.674   3.792   8.916  0.00  0.00    +0.032 A 
ATOM      8  C   UNL     1       2.796   4.131  10.287  0.00  0.00    -0.037 A 
ATOM      9  C   UNL     1       2.727   3.133  11.229  0.00  0.00    +0.027 A 
ATOM     10  C   UNL     1       2.541   1.814  10.842  0.00  0.00    +0.040 A 
ATOM     11  N   UNL     1       2.426   1.502   9.566  0.00  0.00    -0.245 NA
ATOM     12  C   UNL     1       2.486   2.421   8.626  0.00  0.00    +0.111 A 
ATOM     13  S   UNL     1       2.376   2.370   6.855  0.00  0.00    -0.062 S 
ATOM     14  C   UNL     1       2.467   0.730  11.887  0.00  0.00    +0.065 C 
ATOM     15  C   UNL     1       3.000   5.565  10.704  0.00  0.00    +0.044 C 
BRANCH   6  16
ATOM     16  N   UNL     1       2.907   6.035   7.904  0.00  0.00    -0.356 N 
ATOM     17  H   UNL     1       3.305   6.551   7.185  0.00  0.00    +0.142 HD
ATOM     18  H   UNL     1       2.640   6.475   8.726  0.00  0.00    +0.142 HD
ENDBRANCH   6  16
ENDBRANCH   2   5
BRANCH   1  23
ATOM     19  C   UNL     1       2.287   4.101   1.623  0.00  0.00    +0.091 A 
ATOM     20  C   UNL     1       2.330   5.006   0.499  0.00  0.00    -0.025 A 
ATOM     21  C   UNL     1       2.509   6.312   0.768  0.00  0.00    -0.008 A 
ATOM     22  S   UNL     1       2.626   6.353   2.544  0.00  0.00    -0.078 S 
ATOM     23  C   UNL     1       2.432   4.666   2.886  0.00  0.00    +0.087 A 
ATOM     24  C   UNL     1       2.591   7.463  -0.201  0.00  0.00    +0.052 C 
ATOM     25  C   UNL     1       2.178   4.510  -0.916  0.00  0.00    +0.045 C 
BRANCH  19  26
ATOM     26  C   UNL     1       2.096   2.661   1.443  0.00  0.00    +0.342 C 
ATOM     27  O   UNL     1       3.060   1.932   1.302  0.00  0.00    -0.245 OA
BRANCH  26  28
ATOM     28  O   UNL     1       0.851   2.142   1.433  0.00  0.00    -0.461 OA
BRANCH  28  30
ATOM     29  C   UNL     1      -0.740   0.305   1.266  0.00  0.00    +0.048 C 
ATOM     30  C   UNL     1       0.737   0.706   1.250  0.00  0.00    +0.229 C 
ENDBRANCH  28  30
ENDBRANCH  26  28
ENDBRANCH  19  26
ENDBRANCH   1  23
TORSDOF 6
