REMARK  Name = ZINC13590837
REMARK  6 active torsions:
REMARK  status: ('A' for Active; 'I' for Inactive)
REMARK    1  A    between atoms: C_1  and  C_2
REMARK    2  A    between atoms: N_4  and  C_24
REMARK    3  A    between atoms: C_8  and  N_9
REMARK    4  A    between atoms: N_9  and  C_10
REMARK    5  A    between atoms: C_13  and  N_16
REMARK    6  A    between atoms: N_17  and  C_18
REMARK                            x       y       z     vdW  Elec       q    Type
REMARK                         _______ _______ _______ _____ _____    ______ ____
ROOT
ATOM      1  N   UNL     1       1.111  -1.286   3.318  0.00  0.00    -0.320 N 
ATOM      2  H   UNL     1       1.288  -2.203   3.057  0.00  0.00    +0.152 HD
ENDROOT
BRANCH   1  10
ATOM      3  C   UNL     1      -0.714   1.402   0.120  0.00  0.00    +0.068 C 
ATOM      4  C   UNL     1      -0.320  -0.051   0.053  0.00  0.00    +0.067 C 
ATOM      5  N   UNL     1      -0.431  -0.829  -0.980  0.00  0.00    -0.179 NA
ATOM      6  N   UNL     1       0.029  -2.115  -0.698  0.00  0.00    -0.185 N 
ATOM      7  C   UNL     1       0.462  -2.183   0.577  0.00  0.00    +0.111 C 
ATOM      8  S   UNL     1       1.112  -3.553   1.372  0.00  0.00    -0.032 S 
ATOM      9  C   UNL     1       0.267  -0.843   1.144  0.00  0.00    +0.042 C 
ATOM     10  C   UNL     1       0.568  -0.419   2.426  0.00  0.00    +0.084 C 
BRANCH   6  11
ATOM     11  C   UNL     1       0.039  -3.180  -1.607  0.00  0.00    +0.058 A 
ATOM     12  C   UNL     1      -0.455  -4.422  -1.229  0.00  0.00    +0.025 A 
ATOM     13  C   UNL     1      -0.443  -5.470  -2.128  0.00  0.00    +0.002 A 
ATOM     14  C   UNL     1       0.059  -5.285  -3.403  0.00  0.00    +0.000 A 
ATOM     15  C   UNL     1       0.552  -4.049  -3.782  0.00  0.00    +0.002 A 
ATOM     16  C   UNL     1       0.539  -2.995  -2.890  0.00  0.00    +0.025 A 
ENDBRANCH   6  11
ENDBRANCH   1  10
BRANCH   1  17
ATOM     17  C   UNL     1       1.413  -0.859   4.610  0.00  0.00    +0.031 A 
ATOM     18  C   UNL     1       1.153   0.456   4.985  0.00  0.00    +0.025 A 
ATOM     19  C   UNL     1       1.450   0.882   6.260  0.00  0.00    +0.031 A 
ATOM     20  C   UNL     1       2.015  -0.009   7.179  0.00  0.00    +0.086 A 
ATOM     21  C   UNL     1       2.275  -1.330   6.798  0.00  0.00    +0.031 A 
ATOM     22  C   UNL     1       1.970  -1.749   5.523  0.00  0.00    +0.025 A 
BRANCH  20  23
ATOM     23  N   UNL     1       2.311   0.409   8.444  0.00  0.00    -0.149 NA
ATOM     24  N   UNL     1       2.831  -0.413   9.290  0.00  0.00    -0.149 NA
BRANCH  24  25
ATOM     25  C   UNL     1       3.128   0.006  10.557  0.00  0.00    +0.086 A 
ATOM     26  C   UNL     1       2.864   1.323  10.941  0.00  0.00    +0.029 A 
ATOM     27  C   UNL     1       3.167   1.739  12.220  0.00  0.00    +0.002 A 
ATOM     28  C   UNL     1       3.730   0.855  13.124  0.00  0.00    +0.000 A 
ATOM     29  C   UNL     1       3.994  -0.451  12.751  0.00  0.00    +0.002 A 
ATOM     30  C   UNL     1       3.692  -0.883  11.476  0.00  0.00    +0.029 A 
ENDBRANCH  24  25
ENDBRANCH  20  23
ENDBRANCH   1  17
TORSDOF 5
