REMARK  Name = ZINC36268191
REMARK  7 active torsions:
REMARK  status: ('A' for Active; 'I' for Inactive)
REMARK    1  A    between atoms: C_1  and  O_2
REMARK    2  A    between atoms: O_2  and  C_3
REMARK    3  A    between atoms: C_8  and  N_10
REMARK    4  A    between atoms: N_10  and  C_11
REMARK    5  A    between atoms: C_14  and  S_20
REMARK    6  A    between atoms: C_16  and  N_17
REMARK    7  A    between atoms: S_20  and  N_23
REMARK                            x       y       z     vdW  Elec       q    Type
REMARK                         _______ _______ _______ _____ _____    ______ ____
ROOT
ATOM      1  C   UNL     1      -1.754  -2.994  -2.871  0.00  0.00    +0.058 A 
ATOM      2  C   UNL     1      -1.791  -4.081  -2.007  0.00  0.00    +0.027 A 
ATOM      3  C   UNL     1      -2.912  -4.887  -1.962  0.00  0.00    +0.030 A 
ATOM      4  C   UNL     1      -3.995  -4.613  -2.776  0.00  0.00    +0.107 A 
ATOM      5  C   UNL     1      -3.961  -3.533  -3.638  0.00  0.00    +0.063 A 
ATOM      6  C   UNL     1      -2.846  -2.719  -3.684  0.00  0.00    +0.149 A 
ENDROOT
BRANCH   6   7
ATOM      7  N   UNL     1      -2.812  -1.559  -4.603  0.00  0.00    +0.058 N 
ATOM      8  O   UNL     1      -2.283  -0.529  -4.256  0.00  0.00    -0.126 OA
ATOM      9  O   UNL     1      -3.314  -1.642  -5.699  0.00  0.00    -0.126 OA
ENDBRANCH   6   7
BRANCH   4  10
ATOM     10  S   UNL     1      -5.423  -5.644  -2.715  0.00  0.00    +0.056 S 
ATOM     11  O   UNL     1      -6.083  -5.498  -3.966  0.00  0.00    -0.153 OA
ATOM     12  O   UNL     1      -4.992  -6.906  -2.224  0.00  0.00    -0.153 OA
BRANCH  10  13
ATOM     13  N   UNL     1      -6.436  -5.011  -1.569  0.00  0.00    -0.204 NA
ATOM     14  H   UNL     1      -6.179  -4.211  -1.083  0.00  0.00    +0.144 HD
ATOM     15  H   UNL     1      -7.286  -5.439  -1.383  0.00  0.00    +0.144 HD
ENDBRANCH  10  13
ENDBRANCH   4  10
BRANCH   1  16
ATOM     16  N   UNL     1      -0.622  -2.176  -2.919  0.00  0.00    -0.339 N 
ATOM     17  H   UNL     1      -0.561  -1.472  -3.583  0.00  0.00    +0.146 HD
BRANCH  16  22
ATOM     18  C   UNL     1       1.269  -1.073  -1.773  0.00  0.00    +0.119 C 
ATOM     19  C   UNL     1       2.736  -1.564  -1.690  0.00  0.00    -0.049 C 
ATOM     20  N   UNL     1       2.779  -2.675  -2.676  0.00  0.00    +0.382 N 
ATOM     21  C   UNL     1       1.494  -3.393  -2.529  0.00  0.00    -0.058 C 
ATOM     22  C   UNL     1       0.472  -2.383  -1.967  0.00  0.00    +0.080 C 
ATOM     23  H   UNL     1       2.867  -2.307  -3.611  0.00  0.00    -0.086 HD
ATOM     24  H   UNL     1       3.548  -3.294  -2.470  0.00  0.00    -0.086 HD
BRANCH  18  26
ATOM     25  C   UNL     1       1.058   0.997  -0.582  0.00  0.00    +0.194 C 
ATOM     26  O   UNL     1       0.885  -0.422  -0.560  0.00  0.00    -0.380 OA
ENDBRANCH  18  26
ENDBRANCH  16  22
ENDBRANCH   1  16
TORSDOF 6
