REMARK  Name = ZINC05905178
REMARK  7 active torsions:
REMARK  status: ('A' for Active; 'I' for Inactive)
REMARK    1  A    between atoms: C_1  and  C_2
REMARK    2  A    between atoms: C_6  and  S_8
REMARK    3  A    between atoms: S_8  and  C_9
REMARK    4  A    between atoms: C_9  and  C_10
REMARK    5  A    between atoms: C_19  and  C_25
REMARK    6  A    between atoms: C_22  and  C_23
REMARK    7  A    between atoms: C_22  and  C_24
REMARK                            x       y       z     vdW  Elec       q    Type
REMARK                         _______ _______ _______ _____ _____    ______ ____
ROOT
ATOM      1  C   UNL     1       2.854   2.006  -5.634  0.00  0.00    +0.231 C 
ATOM      2  O   UNL     1       2.104   1.546  -4.800  0.00  0.00    -0.274 OA
ATOM      3  N   UNL     1       4.182   1.799  -5.534  0.00  0.00    -0.265 N 
ATOM      4  C   UNL     1       4.726   1.207  -4.386  0.00  0.00    +0.040 A 
ATOM      5  C   UNL     1       3.940   1.093  -3.245  0.00  0.00    +0.024 A 
ATOM      6  C   UNL     1       4.456   0.510  -2.105  0.00  0.00    +0.002 A 
ATOM      7  C   UNL     1       5.756   0.039  -2.100  0.00  0.00    +0.000 A 
ATOM      8  C   UNL     1       6.540   0.153  -3.232  0.00  0.00    +0.006 A 
ATOM      9  C   UNL     1       6.031   0.739  -4.379  0.00  0.00    -0.023 A 
ATOM     10  C   UNL     1       6.915   0.855  -5.592  0.00  0.00    +0.020 C 
ATOM     11  C   UNL     1       6.072   1.039  -6.853  0.00  0.00    +0.033 C 
ATOM     12  C   UNL     1       5.083   2.185  -6.629  0.00  0.00    +0.037 C 
ATOM     13  C   UNL     1       5.846   3.455  -6.248  0.00  0.00    +0.032 C 
ATOM     14  C   UNL     1       4.274   2.428  -7.904  0.00  0.00    +0.032 C 
ATOM     15  C   UNL     1       7.756  -0.416  -5.727  0.00  0.00    +0.012 C 
ENDROOT
BRANCH   1  16
ATOM     16  C   UNL     1       2.301   2.808  -6.784  0.00  0.00    +0.173 C 
BRANCH  16  17
ATOM     17  S   UNL     1       0.537   3.125  -6.507  0.00  0.00    -0.078 S 
BRANCH  17  23
ATOM     18  C   UNL     1       1.649   5.366 -10.967  0.00  0.00    +0.066 C 
ATOM     19  C   UNL     1       0.606   5.053  -9.926  0.00  0.00    +0.046 A 
ATOM     20  C   UNL     1      -0.676   5.492 -10.092  0.00  0.00    +0.093 A 
ATOM     21  C   UNL     1      -1.632   5.188  -9.107  0.00  0.00    +0.252 A 
ATOM     22  N   UNL     1      -1.248   4.471  -8.030  0.00  0.00    -0.302 N 
ATOM     23  C   UNL     1       0.045   4.060  -7.917  0.00  0.00    +0.170 A 
ATOM     24  N   UNL     1       0.934   4.345  -8.848  0.00  0.00    -0.228 NA
ATOM     25  O   UNL     1      -2.787   5.565  -9.224  0.00  0.00    -0.268 OA
ATOM     26  H   UNL     1      -1.891   4.250  -7.338  0.00  0.00    +0.171 HD
ENDBRANCH  17  23
ENDBRANCH  16  17
ENDBRANCH   1  16
TORSDOF 3
