REMARK  Name = ZINC35972994
REMARK  13 active torsions:
REMARK  status: ('A' for Active; 'I' for Inactive)
REMARK    1  A    between atoms: C_1  and  C_2
REMARK    2  A    between atoms: C_2  and  C_3
REMARK    3  A    between atoms: C_4  and  C_25
REMARK    4  A    between atoms: C_5  and  O_16
REMARK    5  A    between atoms: N_6  and  C_8
REMARK    6  A    between atoms: C_11  and  O_14
REMARK    7  A    between atoms: O_14  and  C_15
REMARK    8  A    between atoms: O_16  and  C_17
REMARK    9  A    between atoms: C_25  and  N_26
REMARK   10  A    between atoms: N_26  and  C_27
REMARK   11  A    between atoms: C_27  and  C_28
REMARK   12  A    between atoms: N_36  and  C_37
REMARK   13  A    between atoms: C_37  and  C_38
REMARK                            x       y       z     vdW  Elec       q    Type
REMARK                         _______ _______ _______ _____ _____    ______ ____
ROOT
ATOM      1  C   UNL     1       0.730  -0.214  -1.656  0.00  0.00    +0.072 A 
ATOM      2  C   UNL     1      -0.219  -0.665  -2.579  0.00  0.00    +0.055 A 
ATOM      3  C   UNL     1       0.442  -1.317  -3.572  0.00  0.00    +0.229 A 
ATOM      4  N   UNL     1       1.768  -1.275  -3.277  0.00  0.00    -0.200 N 
ATOM      5  N   UNL     1       1.917  -0.573  -2.074  0.00  0.00    -0.168 NA
ENDROOT
BRANCH   4   6
ATOM      6  C   UNL     1       2.804  -1.831  -4.043  0.00  0.00    +0.069 A 
ATOM      7  C   UNL     1       2.695  -3.131  -4.519  0.00  0.00    +0.031 A 
ATOM      8  C   UNL     1       3.715  -3.677  -5.273  0.00  0.00    +0.048 A 
ATOM      9  C   UNL     1       4.848  -2.928  -5.555  0.00  0.00    +0.120 A 
ATOM     10  C   UNL     1       4.957  -1.629  -5.079  0.00  0.00    +0.048 A 
ATOM     11  C   UNL     1       3.936  -1.079  -4.330  0.00  0.00    +0.031 A 
BRANCH   9  12
ATOM     12  O   UNL     1       5.851  -3.466  -6.297  0.00  0.00    -0.495 OA
ATOM     13  C   UNL     1       6.988  -2.638  -6.549  0.00  0.00    +0.277 C 
ENDBRANCH   9  12
ENDBRANCH   4   6
BRANCH   1  15
ATOM     14  C   UNL     1       0.859   2.018  -0.583  0.00  0.00    +0.010 C 
ATOM     15  C   UNL     1       0.436   0.559  -0.397  0.00  0.00    +0.054 C 
ENDBRANCH   1  15
BRANCH   3  16
ATOM     16  O   UNL     1      -0.120  -1.904  -4.659  0.00  0.00    -0.435 OA
BRANCH  16  17
ATOM     17  C   UNL     1      -0.645  -3.150  -4.513  0.00  0.00    +0.166 A 
ATOM     18  C   UNL     1      -0.633  -3.767  -3.271  0.00  0.00    +0.052 A 
ATOM     19  C   UNL     1      -1.167  -5.032  -3.122  0.00  0.00    +0.042 A 
ATOM     20  C   UNL     1      -1.715  -5.686  -4.213  0.00  0.00    +0.126 A 
ATOM     21  C   UNL     1      -1.729  -5.073  -5.454  0.00  0.00    +0.080 A 
ATOM     22  C   UNL     1      -1.200  -3.804  -5.605  0.00  0.00    +0.168 A 
ATOM     23  F   UNL     1      -1.218  -3.203  -6.815  0.00  0.00    -0.202 F 
ATOM     24  F   UNL     1      -2.236  -6.923  -4.066  0.00  0.00    -0.205 F 
ENDBRANCH  16  17
ENDBRANCH   3  16
BRANCH   2  25
ATOM     25  C   UNL     1      -1.710  -0.463  -2.488  0.00  0.00    +0.151 C 
BRANCH  25  26
ATOM     26  N   UNL     1      -2.095   0.702  -3.289  0.00  0.00    -0.279 N 
ATOM     27  C   UNL     1      -2.146   1.923  -2.721  0.00  0.00    +0.303 C 
ATOM     28  O   UNL     1      -1.835   2.064  -1.554  0.00  0.00    -0.253 OA
ATOM     29  N   UNL     1      -2.542   2.987  -3.447  0.00  0.00    -0.299 N 
ATOM     30  H   UNL     1      -2.790   2.874  -4.378  0.00  0.00    +0.150 HD
BRANCH  29  31
ATOM     31  C   UNL     1      -2.598   4.315  -2.829  0.00  0.00    +0.102 C 
ATOM     32  C   UNL     1      -3.075   5.338  -3.862  0.00  0.00    +0.024 C 
ENDBRANCH  29  31
BRANCH  26  33
ATOM     33  C   UNL     1      -2.424   0.539  -4.707  0.00  0.00    +0.141 C 
BRANCH  33  34
ATOM     34  C   UNL     1      -3.921   0.263  -4.855  0.00  0.00    +0.136 C 
ATOM     35  C   UNL     1      -4.257  -0.029  -6.333  0.00  0.00    +0.035 C 
ATOM     36  C   UNL     1      -5.618   0.696  -6.512  0.00  0.00    +0.031 C 
ATOM     37  C   UNL     1      -5.426   1.917  -5.577  0.00  0.00    +0.160 C 
ATOM     38  O   UNL     1      -4.669   1.419  -4.460  0.00  0.00    -0.375 OA
ENDBRANCH  33  34
ENDBRANCH  26  33
ENDBRANCH  25  26
ENDBRANCH   2  25
TORSDOF 10
