REMARK  Name = ZINC45201779
REMARK  17 active torsions:
REMARK  status: ('A' for Active; 'I' for Inactive)
REMARK    1  A    between atoms: C_1  and  C_2
REMARK    2  A    between atoms: C_2  and  C_3
REMARK    3  A    between atoms: C_3  and  N_4
REMARK    4  A    between atoms: N_4  and  C_5
REMARK    5  A    between atoms: C_5  and  C_6
REMARK    6  A    between atoms: C_9  and  C_12
REMARK    7  A    between atoms: C_15  and  C_18
REMARK    8  A    between atoms: C_18  and  N_19
REMARK    9  A    between atoms: N_19  and  C_20
REMARK   10  A    between atoms: C_20  and  C_22
REMARK   11  A    between atoms: C_20  and  C_23
REMARK   12  A    between atoms: C_23  and  N_24
REMARK   13  A    between atoms: N_24  and  C_25
REMARK   14  A    between atoms: N_24  and  C_26
REMARK   15  A    between atoms: C_27  and  C_29
REMARK   16  A    between atoms: C_30  and  C_40
REMARK   17  A    between atoms: N_32  and  C_34
REMARK                            x       y       z     vdW  Elec       q    Type
REMARK                         _______ _______ _______ _____ _____    ______ ____
ROOT
ATOM      1  N   UNL     1       0.657 -13.391   0.615  0.00  0.00    -0.291 N 
ATOM      2  C   UNL     1      -0.624 -12.992   0.486  0.00  0.00    +0.269 C 
ATOM      3  O   UNL     1      -1.298 -12.784   1.476  0.00  0.00    -0.268 OA
ENDROOT
BRANCH   2   4
ATOM      4  C   UNL     1      -1.208 -12.809  -0.858  0.00  0.00    +0.170 A 
ATOM      5  C   UNL     1      -2.555 -12.520  -1.143  0.00  0.00    +0.093 A 
ATOM      6  N   UNL     1      -2.653 -12.437  -2.449  0.00  0.00    -0.152 NA
ATOM      7  N   UNL     1      -1.376 -12.672  -2.976  0.00  0.00    -0.149 N 
ATOM      8  N   UNL     1      -0.557 -12.880  -2.005  0.00  0.00    -0.142 NA
ATOM      9  C   UNL     1      -3.668 -12.342  -0.143  0.00  0.00    +0.070 C 
BRANCH   7  10
ATOM     10  C   UNL     1      -1.044 -12.673  -4.337  0.00  0.00    +0.086 A 
ATOM     11  C   UNL     1       0.262 -12.927  -4.734  0.00  0.00    +0.029 A 
ATOM     12  C   UNL     1       0.587 -12.928  -6.077  0.00  0.00    +0.002 A 
ATOM     13  C   UNL     1      -0.388 -12.676  -7.025  0.00  0.00    +0.000 A 
ATOM     14  C   UNL     1      -1.690 -12.423  -6.633  0.00  0.00    +0.002 A 
ATOM     15  C   UNL     1      -2.022 -12.427  -5.292  0.00  0.00    +0.029 A 
ENDBRANCH   7  10
ENDBRANCH   2   4
BRANCH   1  16
ATOM     16  C   UNL     1       1.428 -13.775  -0.570  0.00  0.00    +0.057 C 
ATOM     17  C   UNL     1       2.529 -12.743  -0.819  0.00  0.00    +0.026 C 
BRANCH  16  18
ATOM     18  C   UNL     1       2.059 -15.151  -0.344  0.00  0.00    -0.057 C 
BRANCH  18  19
ATOM     19  N   UNL     1       1.016 -16.111   0.041  0.00  0.00    +0.377 N 
ATOM     20  C   UNL     1       0.015 -16.203  -1.030  0.00  0.00    -0.097 C 
ATOM     21  C   UNL     1       1.622 -17.431   0.259  0.00  0.00    -0.097 C 
ATOM     22  H   UNL     1       0.571 -15.801   0.892  0.00  0.00    -0.083 HD
ENDBRANCH  18  19
ENDBRANCH  16  18
ENDBRANCH   1  16
BRANCH   1  23
ATOM     23  C   UNL     1       1.279 -13.441   1.941  0.00  0.00    +0.143 C 
BRANCH  23  27
ATOM     24  C   UNL     1       2.650  -9.537   3.020  0.00  0.00    +0.000 A 
ATOM     25  C   UNL     1       1.312  -9.883   3.200  0.00  0.00    +0.010 A 
ATOM     26  C   UNL     1       0.875 -11.145   2.850  0.00  0.00    +0.006 A 
ATOM     27  C   UNL     1       1.762 -12.065   2.321  0.00  0.00    -0.030 A 
ATOM     28  C   UNL     1       3.091 -11.727   2.140  0.00  0.00    +0.006 A 
ATOM     29  C   UNL     1       3.538 -10.467   2.482  0.00  0.00    +0.010 A 
BRANCH  24  33
ATOM     30  C   UNL     1       4.029  -5.705   4.073  0.00  0.00    -0.046 A 
ATOM     31  C   UNL     1       2.689  -6.001   4.277  0.00  0.00    +0.005 A 
ATOM     32  C   UNL     1       2.231  -7.261   3.932  0.00  0.00    +0.028 A 
ATOM     33  C   UNL     1       3.126  -8.183   3.394  0.00  0.00    +0.071 A 
ATOM     34  N   UNL     1       4.400  -7.861   3.215  0.00  0.00    -0.255 NA
ATOM     35  C   UNL     1       4.861  -6.667   3.529  0.00  0.00    +0.113 A 
BRANCH  30  36
ATOM     36  C   UNL     1       4.572  -4.346   4.434  0.00  0.00    -0.045 C 
BRANCH  36  37
ATOM     37  N   UNL     1       4.447  -3.447   3.279  0.00  0.00    +0.382 N 
ATOM     38  H   UNL     1       3.476  -3.363   3.022  0.00  0.00    -0.085 HD
ATOM     39  H   UNL     1       4.970  -3.822   2.502  0.00  0.00    -0.085 HD
BRANCH  37  40
ATOM     40  C   UNL     1       4.977  -2.122   3.631  0.00  0.00    -0.082 C 
BRANCH  40  42
ATOM     41  C   UNL     1       5.398   0.194   2.795  0.00  0.00    +0.002 C 
ATOM     42  C   UNL     1       4.847  -1.185   2.429  0.00  0.00    -0.022 C 
ENDBRANCH  40  42
ENDBRANCH  37  40
ENDBRANCH  36  37
ENDBRANCH  30  36
ENDBRANCH  24  33
ENDBRANCH  23  27
ENDBRANCH   1  23
TORSDOF 12
