REMARK  Name = ZINC02093971
REMARK  14 active torsions:
REMARK  status: ('A' for Active; 'I' for Inactive)
REMARK    1  A    between atoms: C_1  and  C_2
REMARK    2  A    between atoms: C_6  and  O_21
REMARK    3  A    between atoms: C_7  and  C_20
REMARK    4  A    between atoms: C_12  and  C_13
REMARK    5  A    between atoms: C_13  and  C_14
REMARK    6  A    between atoms: O_21  and  C_22
REMARK    7  A    between atoms: C_22  and  C_24
REMARK    8  A    between atoms: C_24  and  C_26
REMARK    9  A    between atoms: C_24  and  N_32
REMARK   10  A    between atoms: C_33  and  O_35
REMARK   11  A    between atoms: O_35  and  C_36
REMARK   12  A    between atoms: C_36  and  C_37
REMARK   13  A    between atoms: C_36  and  C_38
REMARK   14  A    between atoms: C_36  and  C_39
REMARK                            x       y       z     vdW  Elec       q    Type
REMARK                         _______ _______ _______ _____ _____    ______ ____
ROOT
ATOM      1  C   UNL     1      -4.626   4.772  -6.184  0.00  0.00    +0.045 C 
ATOM      2  C   UNL     1      -3.449   3.885  -6.495  0.00  0.00    -0.030 A 
ATOM      3  C   UNL     1      -2.631   3.316  -5.421  0.00  0.00    +0.021 A 
ATOM      4  C   UNL     1      -2.920   3.582  -4.078  0.00  0.00    +0.015 A 
ATOM      5  C   UNL     1      -2.145   3.035  -3.097  0.00  0.00    +0.047 A 
ATOM      6  C   UNL     1      -1.061   2.223  -3.424  0.00  0.00    +0.138 A 
ATOM      7  C   UNL     1      -0.760   1.950  -4.748  0.00  0.00    +0.035 A 
ATOM      8  C   UNL     1      -1.541   2.493  -5.758  0.00  0.00    +0.146 A 
ATOM      9  O   UNL     1      -1.265   2.240  -7.055  0.00  0.00    -0.422 OA
ATOM     10  C   UNL     1      -2.010   2.758  -8.044  0.00  0.00    +0.341 A 
ATOM     11  O   UNL     1      -1.724   2.502  -9.200  0.00  0.00    -0.245 OA
ATOM     12  C   UNL     1      -3.117   3.591  -7.779  0.00  0.00    +0.045 A 
ATOM     13  C   UNL     1       0.411   1.066  -5.091  0.00  0.00    +0.051 C 
ENDROOT
BRANCH  12  14
ATOM     14  C   UNL     1      -3.930   4.152  -8.917  0.00  0.00    +0.077 C 
BRANCH  14  15
ATOM     15  C   UNL     1      -5.048   3.200  -9.254  0.00  0.00    -0.043 A 
ATOM     16  C   UNL     1      -4.851   2.208 -10.196  0.00  0.00    +0.004 A 
ATOM     17  C   UNL     1      -5.875   1.331 -10.501  0.00  0.00    +0.000 A 
ATOM     18  C   UNL     1      -7.100   1.453  -9.871  0.00  0.00    +0.000 A 
ATOM     19  C   UNL     1      -7.299   2.448  -8.933  0.00  0.00    +0.000 A 
ATOM     20  C   UNL     1      -6.273   3.322  -8.624  0.00  0.00    +0.004 A 
ENDBRANCH  14  15
ENDBRANCH  12  14
BRANCH   6  21
ATOM     21  O   UNL     1      -0.296   1.690  -2.436  0.00  0.00    -0.424 OA
BRANCH  21  22
ATOM     22  C   UNL     1       0.804   2.375  -2.081  0.00  0.00    +0.338 C 
ATOM     23  O   UNL     1       1.024   3.459  -2.567  0.00  0.00    -0.248 OA
BRANCH  22  24
ATOM     24  C   UNL     1       1.762   1.791  -1.075  0.00  0.00    +0.216 C 
BRANCH  24  25
ATOM     25  C   UNL     1       1.042   1.556   0.228  0.00  0.00    -0.016 A 
ATOM     26  C   UNL     1       0.831   2.607   1.100  0.00  0.00    +0.006 A 
ATOM     27  C   UNL     1       0.167   2.392   2.293  0.00  0.00    +0.000 A 
ATOM     28  C   UNL     1      -0.278   1.124   2.618  0.00  0.00    +0.000 A 
ATOM     29  C   UNL     1      -0.061   0.072   1.748  0.00  0.00    +0.000 A 
ATOM     30  C   UNL     1       0.599   0.287   0.553  0.00  0.00    +0.006 A 
ENDBRANCH  24  25
BRANCH  24  31
ATOM     31  N   UNL     1       2.871   2.723  -0.859  0.00  0.00    -0.264 N 
ATOM     32  C   UNL     1       4.064   2.264  -0.432  0.00  0.00    +0.402 C 
ATOM     33  O   UNL     1       4.220   1.077  -0.226  0.00  0.00    -0.226 OA
ATOM     34  H   UNL     1       2.747   3.671  -1.024  0.00  0.00    +0.153 HD
BRANCH  32  35
ATOM     35  O   UNL     1       5.083   3.122  -0.233  0.00  0.00    -0.445 OA
BRANCH  35  36
ATOM     36  C   UNL     1       6.339   2.557   0.228  0.00  0.00    +0.107 C 
ATOM     37  C   UNL     1       6.849   1.543  -0.798  0.00  0.00    +0.055 C 
ATOM     38  C   UNL     1       7.370   3.675   0.395  0.00  0.00    +0.055 C 
ATOM     39  C   UNL     1       6.122   1.858   1.571  0.00  0.00    +0.055 C 
ENDBRANCH  35  36
ENDBRANCH  32  35
ENDBRANCH  24  31
ENDBRANCH  22  24
ENDBRANCH  21  22
ENDBRANCH   6  21
TORSDOF 9
