REMARK  Name = ZINC49563552
REMARK  6 active torsions:
REMARK  status: ('A' for Active; 'I' for Inactive)
REMARK    1  A    between atoms: C_4  and  C_7
REMARK    2  A    between atoms: N_14  and  C_17
REMARK    3  A    between atoms: C_17  and  C_18
REMARK    4  A    between atoms: C_18  and  N_20
REMARK    5  A    between atoms: C_23  and  C_26
REMARK    6  A    between atoms: C_26  and  N_27
REMARK                            x       y       z     vdW  Elec       q    Type
REMARK                         _______ _______ _______ _____ _____    ______ ____
ROOT
ATOM      1  C   UNL     1       7.489  -5.502  -0.121  0.00  0.00    +0.224 C 
ENDROOT
BRANCH   1   9
ATOM      2  C   UNL     1       3.695  -0.684  -0.038  0.00  0.00    +0.022 A 
ATOM      3  C   UNL     1       3.920  -2.023  -0.053  0.00  0.00    +0.031 A 
ATOM      4  C   UNL     1       5.236  -2.511  -0.069  0.00  0.00    +0.073 A 
ATOM      5  C   UNL     1       6.251  -1.534  -0.067  0.00  0.00    +0.116 A 
ATOM      6  S   UNL     1       5.346  -0.006  -0.052  0.00  0.00    -0.068 S 
ATOM      7  N   UNL     1       7.540  -1.855  -0.082  0.00  0.00    -0.230 NA
ATOM      8  C   UNL     1       7.922  -3.105  -0.098  0.00  0.00    +0.203 A 
ATOM      9  N   UNL     1       7.016  -4.116  -0.102  0.00  0.00    -0.290 N 
ATOM     10  C   UNL     1       5.692  -3.872  -0.086  0.00  0.00    +0.263 A 
ATOM     11  O   UNL     1       4.894  -4.793  -0.089  0.00  0.00    -0.267 OA
BRANCH   2  15
ATOM     12  C   UNL     1      -0.017   1.379   0.010  0.00  0.00    +0.000 A 
ATOM     13  C   UNL     1       1.168   2.094   0.002  0.00  0.00    +0.001 A 
ATOM     14  C   UNL     1       2.377   1.429  -0.013  0.00  0.00    +0.009 A 
ATOM     15  C   UNL     1       2.404   0.034  -0.021  0.00  0.00    -0.011 A 
ATOM     16  C   UNL     1       1.204  -0.681  -0.013  0.00  0.00    +0.009 A 
ATOM     17  C   UNL     1       0.002  -0.004   0.002  0.00  0.00    +0.001 A 
ENDBRANCH   2  15
ENDBRANCH   1   9
BRANCH   1  18
ATOM     18  C   UNL     1       7.664  -5.993   1.293  0.00  0.00    +0.258 C 
ATOM     19  O   UNL     1       7.416  -5.255   2.228  0.00  0.00    -0.272 OA
BRANCH  18  20
ATOM     20  N   UNL     1       8.088  -7.230   1.519  0.00  0.00    -0.155 NA
ATOM     21  C   UNL     1       8.242  -7.665   2.771  0.00  0.00    +0.163 A 
ATOM     22  N   UNL     1       8.667  -8.885   3.196  0.00  0.00    -0.341 N 
ATOM     23  C   UNL     1       8.754  -9.121   4.532  0.00  0.00    +0.008 A 
ATOM     24  C   UNL     1       8.411  -8.124   5.355  0.00  0.00    +0.067 A 
ATOM     25  S   UNL     1       7.966  -6.834   4.207  0.00  0.00    -0.061 S 
ATOM     26  H   UNL     1       8.904  -9.575   2.556  0.00  0.00    +0.167 HD
BRANCH  23  27
ATOM     27  C   UNL     1       9.217 -10.453   5.064  0.00  0.00    -0.024 C 
BRANCH  27  28
ATOM     28  N   UNL     1       8.247 -11.492   4.694  0.00  0.00    +0.383 N 
ATOM     29  C   UNL     1       6.966 -11.223   5.359  0.00  0.00    -0.078 C 
ATOM     30  C   UNL     1       5.930 -12.257   4.913  0.00  0.00    -0.019 C 
ATOM     31  C   UNL     1       6.418 -13.658   5.292  0.00  0.00    -0.004 C 
ATOM     32  C   UNL     1       7.790 -13.899   4.654  0.00  0.00    -0.019 C 
ATOM     33  C   UNL     1       8.757 -12.805   5.109  0.00  0.00    -0.078 C 
ATOM     34  H   UNL     1       8.113 -11.485   3.694  0.00  0.00    -0.081 HD
ENDBRANCH  27  28
ENDBRANCH  23  27
ENDBRANCH  18  20
ENDBRANCH   1  18
TORSDOF 6
