REMARK  Name = ZINC39467569
REMARK  7 active torsions:
REMARK  status: ('A' for Active; 'I' for Inactive)
REMARK    1  A    between atoms: C_1  and  O_2
REMARK    2  A    between atoms: O_2  and  C_3
REMARK    3  A    between atoms: C_15  and  S_16
REMARK    4  A    between atoms: S_16  and  O_19
REMARK    5  A    between atoms: O_19  and  C_20
REMARK    6  A    between atoms: P_28  and  C_31
REMARK    7  A    between atoms: C_36  and  O_37
REMARK                            x       y       z     vdW  Elec       q    Type
REMARK                         _______ _______ _______ _____ _____    ______ ____
ROOT
ATOM      1  C   UNL     1       0.606  -0.607  -1.056  0.00  0.00    +0.144 C 
ATOM      2  C   UNL     1       1.154   0.128  -2.028  0.00  0.00    +0.023 C 
ATOM      3  C   UNL     1       1.807  -0.560  -3.197  0.00  0.00    +0.008 C 
ATOM      4  C   UNL     1       1.849   0.360  -4.407  0.00  0.00    -0.046 C 
ATOM      5  N   UNL     1       0.492   0.726  -4.846  0.00  0.00    +0.398 N 
ATOM      6  C   UNL     1      -0.259  -0.473  -5.227  0.00  0.00    -0.020 C 
ATOM      7  C   UNL     1      -0.365  -1.431  -4.035  0.00  0.00    -0.003 C 
ATOM      8  C   UNL     1       1.014  -1.819  -3.558  0.00  0.00    +0.018 C 
ATOM      9  C   UNL     1       0.850  -2.666  -2.318  0.00  0.00    +0.011 C 
ATOM     10  C   UNL     1       0.668  -2.079  -1.138  0.00  0.00    +0.166 C 
ATOM     11  C   UNL     1      -1.692  -0.129  -5.652  0.00  0.00    +0.157 C 
ATOM     12  O   UNL     1      -1.658   0.733  -6.804  0.00  0.00    -0.316 OA
ATOM     13  P   UNL     1      -0.707   2.051  -6.732  0.00  0.00    +0.291 P 
ATOM     14  O   UNL     1      -1.384   3.132  -5.982  0.00  0.00    -0.269 OA
ATOM     15  N   UNL     1       0.656   1.559  -5.932  0.00  0.00    -0.288 NA
ATOM     16  H   UNL     1       1.538   1.849  -6.212  0.00  0.00    +0.111 HD
ATOM     17  H   UNL     1       0.017   1.220  -4.106  0.00  0.00    -0.055 HD
ENDROOT
BRANCH  13  18
ATOM     18  C   UNL     1      -0.286   2.615  -8.404  0.00  0.00    +0.091 A 
ATOM     19  C   UNL     1       0.841   2.126  -9.035  0.00  0.00    +0.018 A 
ATOM     20  C   UNL     1       1.162   2.555 -10.309  0.00  0.00    +0.001 A 
ATOM     21  C   UNL     1       0.357   3.475 -10.955  0.00  0.00    +0.004 A 
ATOM     22  C   UNL     1      -0.771   3.968 -10.328  0.00  0.00    +0.046 A 
ATOM     23  C   UNL     1      -1.099   3.534  -9.052  0.00  0.00    +0.131 A 
BRANCH  23  24
ATOM     24  O   UNL     1      -2.211   4.012  -8.435  0.00  0.00    -0.506 OA
ATOM     25  H   UNL     1      -2.058   4.812  -7.913  0.00  0.00    +0.292 HD
ENDBRANCH  23  24
ENDBRANCH  13  18
BRANCH  10  26
ATOM     26  S   UNL     1       0.494  -3.054   0.320  0.00  0.00    +0.154 S 
ATOM     27  O   UNL     1      -0.583  -2.493   1.058  0.00  0.00    -0.131 OA
ATOM     28  O   UNL     1       0.507  -4.413  -0.096  0.00  0.00    -0.131 OA
BRANCH  26  29
ATOM     29  O   UNL     1       1.750  -2.843   1.154  0.00  0.00    -0.342 OA
BRANCH  29  30
ATOM     30  C   UNL     1       1.796  -1.642   1.789  0.00  0.00    +0.157 A 
ATOM     31  C   UNL     1       2.366  -0.545   1.160  0.00  0.00    +0.048 A 
ATOM     32  C   UNL     1       2.411   0.675   1.807  0.00  0.00    +0.004 A 
ATOM     33  C   UNL     1       1.890   0.802   3.081  0.00  0.00    +0.000 A 
ATOM     34  C   UNL     1       1.322  -0.290   3.711  0.00  0.00    +0.004 A 
ATOM     35  C   UNL     1       1.268  -1.510   3.065  0.00  0.00    +0.048 A 
ENDBRANCH  29  30
ENDBRANCH  26  29
ENDBRANCH  10  26
BRANCH   1  37
ATOM     36  C   UNL     1      -0.017   1.425   0.010  0.00  0.00    +0.277 C 
ATOM     37  O   UNL     1       0.002  -0.004   0.002  0.00  0.00    -0.493 OA
ENDBRANCH   1  37
TORSDOF 6
