REMARK  Name = ZINC01457591
REMARK  11 active torsions:
REMARK  status: ('A' for Active; 'I' for Inactive)
REMARK    1  A    between atoms: C_1  and  N_2
REMARK    2  A    between atoms: N_2  and  C_3
REMARK    3  A    between atoms: N_2  and  C_4
REMARK    4  A    between atoms: C_7  and  C_10
REMARK    5  A    between atoms: C_15  and  C_20
REMARK    6  A    between atoms: C_22  and  O_30
REMARK    7  A    between atoms: C_23  and  O_28
REMARK    8  A    between atoms: C_24  and  O_26
REMARK    9  A    between atoms: O_26  and  C_27
REMARK   10  A    between atoms: O_28  and  C_29
REMARK   11  A    between atoms: O_30  and  C_31
REMARK                            x       y       z     vdW  Elec       q    Type
REMARK                         _______ _______ _______ _____ _____    ______ ____
ROOT
ATOM      1  C   UNL     1      -4.597   4.865  -0.046  0.00  0.00    +0.136 C 
ATOM      2  C   UNL     1      -3.253   4.182  -0.122  0.00  0.00    +0.036 C 
ATOM      3  C   UNL     1      -2.540   3.726   0.923  0.00  0.00    +0.017 C 
ATOM      4  C   UNL     1      -1.193   3.058   0.704  0.00  0.00    +0.059 C 
ATOM      5  C   UNL     1      -1.192   2.313  -0.629  0.00  0.00    +0.032 C 
ATOM      6  C   UNL     1      -1.465   3.337  -1.737  0.00  0.00    +0.088 C 
ATOM      7  C   UNL     1      -2.762   4.028  -1.440  0.00  0.00    +0.163 C 
ATOM      8  O   UNL     1      -3.415   4.473  -2.364  0.00  0.00    -0.292 OA
ATOM      9  N   UNL     1      -2.924   3.821   2.221  0.00  0.00    -0.316 N 
ATOM     10  C   UNL     1      -4.190   3.507   2.702  0.00  0.00    +0.052 A 
ATOM     11  C   UNL     1      -4.410   2.461   3.580  0.00  0.00    +0.025 A 
ATOM     12  C   UNL     1      -5.690   2.233   4.058  0.00  0.00    +0.002 A 
ATOM     13  C   UNL     1      -6.737   3.046   3.661  0.00  0.00    +0.002 A 
ATOM     14  C   UNL     1      -6.521   4.081   2.768  0.00  0.00    +0.025 A 
ATOM     15  C   UNL     1      -5.245   4.298   2.273  0.00  0.00    +0.049 A 
ATOM     16  N   UNL     1      -5.000   5.254   1.289  0.00  0.00    -0.331 N 
ATOM     17  H   UNL     1      -2.265   4.131   2.862  0.00  0.00    +0.152 HD
ATOM     18  H   UNL     1      -5.100   6.195   1.502  0.00  0.00    +0.147 HD
ENDROOT
BRANCH   1  22
ATOM     19  C   UNL     1      -7.553   2.217  -1.633  0.00  0.00    +0.029 A 
ATOM     20  C   UNL     1      -7.298   3.431  -2.259  0.00  0.00    +0.023 A 
ATOM     21  C   UNL     1      -6.342   4.285  -1.743  0.00  0.00    +0.007 A 
ATOM     22  C   UNL     1      -5.639   3.932  -0.606  0.00  0.00    -0.023 A 
ATOM     23  C   UNL     1      -5.887   2.721   0.016  0.00  0.00    +0.007 A 
ATOM     24  C   UNL     1      -6.845   1.866  -0.491  0.00  0.00    +0.023 A 
BRANCH  19  26
ATOM     25  C   UNL     1      -9.177   1.666  -3.423  0.00  0.00    +0.129 C 
ATOM     26  N   UNL     1      -8.519   1.352  -2.152  0.00  0.00    -0.336 N 
ATOM     27  C   UNL     1      -8.875   0.131  -1.425  0.00  0.00    +0.129 C 
ENDBRANCH  19  26
ENDBRANCH   1  22
BRANCH   5  28
ATOM     28  C   UNL     1       0.151   1.667  -0.852  0.00  0.00    -0.036 A 
ATOM     29  C   UNL     1       1.292   2.445  -0.897  0.00  0.00    +0.053 A 
ATOM     30  C   UNL     1       2.529   1.855  -1.107  0.00  0.00    +0.165 A 
ATOM     31  C   UNL     1       2.621   0.478  -1.272  0.00  0.00    +0.204 A 
ATOM     32  C   UNL     1       1.471  -0.301  -1.226  0.00  0.00    +0.165 A 
ATOM     33  C   UNL     1       0.238   0.297  -1.016  0.00  0.00    +0.053 A 
BRANCH  32  34
ATOM     34  O   UNL     1       1.555  -1.649  -1.387  0.00  0.00    -0.491 OA
ATOM     35  C   UNL     1       0.333  -2.388  -1.328  0.00  0.00    +0.277 C 
ENDBRANCH  32  34
BRANCH  31  36
ATOM     36  O   UNL     1       3.833  -0.105  -1.478  0.00  0.00    -0.488 OA
ATOM     37  C   UNL     1       4.265  -0.243  -2.833  0.00  0.00    +0.277 C 
ENDBRANCH  31  36
BRANCH  30  38
ATOM     38  O   UNL     1       3.651   2.622  -1.151  0.00  0.00    -0.491 OA
ATOM     39  C   UNL     1       3.482   4.030  -0.973  0.00  0.00    +0.277 C 
ENDBRANCH  30  38
ENDBRANCH   5  28
TORSDOF 6
