REMARK  Name = ZINC65575255
REMARK  8 active torsions:
REMARK  status: ('A' for Active; 'I' for Inactive)
REMARK    1  A    between atoms: C_1  and  C_2
REMARK    2  A    between atoms: C_4  and  N_7
REMARK    3  A    between atoms: C_8  and  C_10
REMARK    4  A    between atoms: C_10  and  N_11
REMARK    5  A    between atoms: N_11  and  C_12
REMARK    6  A    between atoms: N_11  and  C_13
REMARK    7  A    between atoms: N_16  and  C_19
REMARK    8  A    between atoms: C_22  and  C_25
REMARK                            x       y       z     vdW  Elec       q    Type
REMARK                         _______ _______ _______ _____ _____    ______ ____
ROOT
ATOM      1  C   UNL     1      -0.133  -8.092  -1.901  0.00  0.00    +0.053 C 
ATOM      2  C   UNL     1      -1.502  -7.995  -2.581  0.00  0.00    +0.000 C 
ATOM      3  C   UNL     1      -1.764  -9.280  -3.370  0.00  0.00    -0.077 C 
ATOM      4  N   UNL     1      -1.750 -10.430  -2.458  0.00  0.00    +0.382 N 
ATOM      5  C   UNL     1      -0.419 -10.572  -1.856  0.00  0.00    -0.077 C 
ATOM      6  C   UNL     1      -0.104  -9.337  -1.009  0.00  0.00    +0.000 C 
ATOM      7  H   UNL     1      -2.434 -10.289  -1.730  0.00  0.00    -0.081 HD
ENDROOT
BRANCH   4   8
ATOM      8  C   UNL     1      -2.079 -11.650  -3.207  0.00  0.00    -0.069 C 
ATOM      9  C   UNL     1      -3.471 -11.508  -3.827  0.00  0.00    -0.015 C 
ATOM     10  C   UNL     1      -3.814 -12.779  -4.606  0.00  0.00    +0.002 C 
ATOM     11  C   UNL     1      -3.799 -13.979  -3.657  0.00  0.00    -0.014 C 
ATOM     12  C   UNL     1      -2.408 -14.121  -3.037  0.00  0.00    +0.002 C 
ATOM     13  C   UNL     1      -2.065 -12.850  -2.257  0.00  0.00    -0.015 C 
ATOM     14  C   UNL     1      -4.833 -13.765  -2.549  0.00  0.00    +0.007 C 
ENDBRANCH   4   8
BRANCH   1  15
ATOM     15  N   UNL     1       0.093  -6.895  -1.080  0.00  0.00    -0.294 NA
ATOM     16  C   UNL     1       1.352  -7.000  -0.331  0.00  0.00    +0.105 C 
BRANCH  15  17
ATOM     17  C   UNL     1       0.071  -5.679  -1.905  0.00  0.00    +0.180 C 
BRANCH  17  19
ATOM     18  N   UNL     1       0.039  -3.231  -1.552  0.00  0.00    -0.253 N 
ATOM     19  C   UNL     1       0.059  -4.466  -1.011  0.00  0.00    +0.233 C 
ATOM     20  O   UNL     1       0.068  -4.600   0.194  0.00  0.00    -0.274 OA
ATOM     21  H   UNL     1       0.033  -3.124  -2.516  0.00  0.00    +0.158 HD
BRANCH  18  25
ATOM     22  C   UNL     1      -0.018   1.503   0.010  0.00  0.00    +0.069 C 
ATOM     23  C   UNL     1       0.002  -0.004   0.002  0.00  0.00    +0.082 A 
ATOM     24  C   UNL     1       0.008  -0.820  -1.138  0.00  0.00    +0.092 A 
ATOM     25  C   UNL     1       0.028  -2.114  -0.729  0.00  0.00    +0.224 A 
ATOM     26  O   UNL     1       0.035  -2.120   0.615  0.00  0.00    -0.339 OA
ATOM     27  N   UNL     1       0.023  -0.774   1.055  0.00  0.00    -0.081 NA
ENDBRANCH  18  25
ENDBRANCH  17  19
ENDBRANCH  15  17
ENDBRANCH   1  15
TORSDOF 5
