REMARK  Name = ZINC09731252
REMARK  12 active torsions:
REMARK  status: ('A' for Active; 'I' for Inactive)
REMARK    1  A    between atoms: C_1  and  C_2
REMARK    2  A    between atoms: C_2  and  N_3
REMARK    3  A    between atoms: N_3  and  C_4
REMARK    4  A    between atoms: N_3  and  S_6
REMARK    5  A    between atoms: C_4  and  C_5
REMARK    6  A    between atoms: S_6  and  C_9
REMARK    7  A    between atoms: C_17  and  C_23
REMARK    8  A    between atoms: N_19  and  C_20
REMARK    9  A    between atoms: C_20  and  C_21
REMARK   10  A    between atoms: N_25  and  C_26
REMARK   11  A    between atoms: C_26  and  C_28
REMARK   12  A    between atoms: C_26  and  C_29
REMARK                            x       y       z     vdW  Elec       q    Type
REMARK                         _______ _______ _______ _____ _____    ______ ____
ROOT
ATOM      1  C   UNL     1     -10.574  -0.101  -5.222  0.00  0.00    +0.106 A 
ATOM      2  C   UNL     1     -10.366   1.258  -5.412  0.00  0.00    +0.030 A 
ATOM      3  C   UNL     1      -9.313   1.901  -4.799  0.00  0.00    +0.028 A 
ATOM      4  C   UNL     1      -8.444   1.186  -3.978  0.00  0.00    +0.053 A 
ATOM      5  C   UNL     1      -8.657  -0.189  -3.788  0.00  0.00    +0.048 A 
ATOM      6  C   UNL     1      -9.727  -0.827  -4.414  0.00  0.00    +0.042 A 
ATOM      7  C   UNL     1      -7.724  -0.935  -2.922  0.00  0.00    +0.202 A 
ATOM      8  O   UNL     1      -7.859  -2.131  -2.726  0.00  0.00    -0.286 OA
ATOM      9  C   UNL     1      -6.629  -0.174  -2.301  0.00  0.00    +0.100 A 
ATOM     10  C   UNL     1      -6.523   1.176  -2.563  0.00  0.00    +0.103 A 
ATOM     11  N   UNL     1      -7.387   1.818  -3.360  0.00  0.00    -0.342 N 
ENDROOT
BRANCH   9  12
ATOM     12  C   UNL     1      -5.660  -0.844  -1.419  0.00  0.00    +0.250 C 
ATOM     13  O   UNL     1      -5.763  -2.035  -1.195  0.00  0.00    -0.270 OA
ATOM     14  N   UNL     1      -4.657  -0.137  -0.860  0.00  0.00    -0.305 N 
ATOM     15  H   UNL     1      -4.575   0.813  -1.039  0.00  0.00    +0.150 HD
BRANCH  14  16
ATOM     16  C   UNL     1      -3.692  -0.803   0.018  0.00  0.00    +0.101 C 
ATOM     17  C   UNL     1      -4.250  -0.858   1.441  0.00  0.00    +0.033 C 
BRANCH  16  18
ATOM     18  C   UNL     1      -2.397  -0.033   0.016  0.00  0.00    -0.024 A 
ATOM     19  C   UNL     1      -2.415   1.349   0.026  0.00  0.00    +0.009 A 
ATOM     20  C   UNL     1      -1.229   2.059   0.019  0.00  0.00    +0.050 A 
ATOM     21  C   UNL     1      -0.017   1.385   0.010  0.00  0.00    +0.162 A 
ATOM     22  C   UNL     1       0.002  -0.004   0.002  0.00  0.00    +0.162 A 
ATOM     23  C   UNL     1      -1.192  -0.710   0.004  0.00  0.00    +0.055 A 
ATOM     24  O   UNL     1       1.181  -0.685  -0.007  0.00  0.00    -0.485 OA
ATOM     25  C   UNL     1       2.347   0.053  -0.387  0.00  0.00    +0.270 C 
ATOM     26  C   UNL     1       2.334   1.392   0.364  0.00  0.00    +0.270 C 
ATOM     27  O   UNL     1       1.143   2.098   0.002  0.00  0.00    -0.485 OA
ENDBRANCH  16  18
ENDBRANCH  14  16
ENDBRANCH   9  12
BRANCH   1  28
ATOM     28  S   UNL     1     -11.928  -0.900  -6.017  0.00  0.00    +0.061 S 
ATOM     29  O   UNL     1     -12.227  -2.056  -5.246  0.00  0.00    -0.153 OA
ATOM     30  O   UNL     1     -12.894   0.107  -6.284  0.00  0.00    -0.153 OA
BRANCH  28  31
ATOM     31  N   UNL     1     -11.386  -1.438  -7.486  0.00  0.00    -0.177 NA
BRANCH  31  33
ATOM     32  C   UNL     1     -11.886  -3.763  -8.056  0.00  0.00    +0.022 C 
ATOM     33  C   UNL     1     -10.805  -2.777  -7.607  0.00  0.00    +0.106 C 
ENDBRANCH  31  33
BRANCH  31  34
ATOM     34  C   UNL     1     -11.486  -0.574  -8.665  0.00  0.00    +0.106 C 
ATOM     35  C   UNL     1     -10.166   0.175  -8.861  0.00  0.00    +0.022 C 
ENDBRANCH  31  34
ENDBRANCH  28  31
ENDBRANCH   1  28
BRANCH  11  36
ATOM     36  C   UNL     1      -7.199   3.253  -3.585  0.00  0.00    +0.148 C 
BRANCH  36  37
ATOM     37  C   UNL     1      -8.056   4.030  -2.619  0.00  0.00    -0.013 C 
ATOM     38  C   UNL     1      -7.511   4.930  -1.838  0.00  0.00    +0.005 C 
ENDBRANCH  36  37
ENDBRANCH  11  36
TORSDOF 9
