REMARK  Name = ZINC35734371
REMARK  8 active torsions:
REMARK  status: ('A' for Active; 'I' for Inactive)
REMARK    1  A    between atoms: C_1  and  C_2
REMARK    2  A    between atoms: C_5  and  N_22
REMARK    3  A    between atoms: C_6  and  C_21
REMARK    4  A    between atoms: C_7  and  S_8
REMARK    5  A    between atoms: S_8  and  N_11
REMARK    6  A    between atoms: N_11  and  C_12
REMARK    7  A    between atoms: C_12  and  C_14
REMARK    8  A    between atoms: C_12  and  C_15
REMARK                            x       y       z     vdW  Elec       q    Type
REMARK                         _______ _______ _______ _____ _____    ______ ____
ROOT
ATOM      1  S   UNL     1       0.610   0.006   2.676  0.00  0.00    +0.059 S 
ATOM      2  O   UNL     1       1.346  -0.904   3.482  0.00  0.00    -0.153 OA
ATOM      3  O   UNL     1       1.157   1.237   2.224  0.00  0.00    -0.153 OA
ENDROOT
BRANCH   1  10
ATOM      4  C   UNL     1      -0.351   1.310   0.125  0.00  0.00    +0.046 C 
ATOM      5  C   UNL     1      -0.313  -0.197   0.116  0.00  0.00    -0.024 A 
ATOM      6  C   UNL     1      -0.698  -0.890  -1.018  0.00  0.00    +0.007 A 
ATOM      7  C   UNL     1      -0.664  -2.270  -1.029  0.00  0.00    +0.023 A 
ATOM      8  C   UNL     1      -0.242  -2.962   0.099  0.00  0.00    +0.029 A 
ATOM      9  C   UNL     1       0.144  -2.263   1.235  0.00  0.00    -0.003 A 
ATOM     10  C   UNL     1       0.113  -0.882   1.238  0.00  0.00    +0.113 A 
ATOM     11  C   UNL     1       0.603  -3.010   2.461  0.00  0.00    +0.048 C 
BRANCH   8  12
ATOM     12  N   UNL     1      -0.207  -4.359   0.090  0.00  0.00    -0.358 N 
ATOM     13  H   UNL     1      -0.477  -4.846  -0.704  0.00  0.00    +0.142 HD
ATOM     14  H   UNL     1       0.088  -4.841   0.879  0.00  0.00    +0.142 HD
ENDBRANCH   8  12
ENDBRANCH   1  10
BRANCH   1  15
ATOM     15  N   UNL     1      -0.765   0.380   3.520  0.00  0.00    -0.185 NA
ATOM     16  H   UNL     1      -1.003   1.308   3.673  0.00  0.00    +0.148 HD
BRANCH  15  17
ATOM     17  C   UNL     1      -1.622  -0.690   4.035  0.00  0.00    +0.102 C 
ATOM     18  C   UNL     1      -2.745  -0.970   3.035  0.00  0.00    +0.028 C 
BRANCH  17  19
ATOM     19  C   UNL     1      -2.227  -0.260   5.374  0.00  0.00    +0.137 C 
ATOM     20  C   UNL     1      -1.109   0.183   6.351  0.00  0.00    +0.035 C 
ATOM     21  C   UNL     1      -1.899   1.133   7.292  0.00  0.00    +0.031 C 
ATOM     22  C   UNL     1      -2.922   1.771   6.329  0.00  0.00    +0.160 C 
ATOM     23  O   UNL     1      -3.054   0.901   5.197  0.00  0.00    -0.375 OA
ENDBRANCH  17  19
ENDBRANCH  15  17
ENDBRANCH   1  15
TORSDOF 5
