REMARK  Name = ZINC39725994
REMARK  8 active torsions:
REMARK  status: ('A' for Active; 'I' for Inactive)
REMARK    1  A    between atoms: C_1  and  C_2
REMARK    2  A    between atoms: C_5  and  C_37
REMARK    3  A    between atoms: C_6  and  N_8
REMARK    4  A    between atoms: C_9  and  S_23
REMARK    5  A    between atoms: S_23  and  C_24
REMARK    6  A    between atoms: C_24  and  C_25
REMARK    7  A    between atoms: N_27  and  C_28
REMARK    8  A    between atoms: C_31  and  C_34
REMARK                            x       y       z     vdW  Elec       q    Type
REMARK                         _______ _______ _______ _____ _____    ______ ____
ROOT
ATOM      1  N   UNL     1       0.222  -2.618   2.562  0.00  0.00    -0.234 N 
ATOM      2  C   UNL     1       1.421  -3.147   3.216  0.00  0.00    +0.259 C 
ATOM      3  N   UNL     1       1.300  -4.101   4.321  0.00  0.00    -0.248 NA
ATOM      4  C   UNL     1       0.139  -4.487   4.731  0.00  0.00    +0.101 C 
ATOM      5  C   UNL     1      -0.344  -5.409   5.786  0.00  0.00    +0.028 A 
ATOM      6  C   UNL     1       0.277  -6.204   6.731  0.00  0.00    +0.012 A 
ATOM      7  C   UNL     1      -0.487  -6.972   7.597  0.00  0.00    +0.001 A 
ATOM      8  C   UNL     1      -1.868  -6.943   7.517  0.00  0.00    +0.002 A 
ATOM      9  C   UNL     1      -2.505  -6.154   6.579  0.00  0.00    +0.028 A 
ATOM     10  C   UNL     1      -1.752  -5.372   5.695  0.00  0.00    +0.074 A 
ATOM     11  N   UNL     1      -2.121  -4.526   4.701  0.00  0.00    -0.240 NA
ATOM     12  C   UNL     1      -1.105  -3.975   4.095  0.00  0.00    +0.152 C 
ATOM     13  C   UNL     1      -1.000  -3.008   2.983  0.00  0.00    +0.274 C 
ATOM     14  O   UNL     1      -2.002  -2.572   2.451  0.00  0.00    -0.268 OA
ENDROOT
BRANCH   1  20
ATOM     15  C   UNL     1       0.482  -1.748  -2.269  0.00  0.00    +0.044 C 
ATOM     16  C   UNL     1       0.471  -1.258  -0.844  0.00  0.00    -0.049 A 
ATOM     17  C   UNL     1       0.580   0.095  -0.578  0.00  0.00    +0.004 A 
ATOM     18  C   UNL     1       0.570   0.549   0.728  0.00  0.00    +0.005 A 
ATOM     19  C   UNL     1       0.451  -0.348   1.772  0.00  0.00    -0.029 A 
ATOM     20  C   UNL     1       0.342  -1.708   1.508  0.00  0.00    +0.043 A 
ATOM     21  C   UNL     1       0.346  -2.160   0.195  0.00  0.00    +0.027 A 
ATOM     22  C   UNL     1       0.441   0.147   3.195  0.00  0.00    +0.045 C 
ENDBRANCH   1  20
BRANCH   2  23
ATOM     23  S   UNL     1       2.431  -3.936   1.933  0.00  0.00    -0.106 S 
BRANCH  23  24
ATOM     24  C   UNL     1       1.424  -5.342   1.386  0.00  0.00    +0.168 C 
BRANCH  24  25
ATOM     25  C   UNL     1       2.162  -6.103   0.315  0.00  0.00    +0.227 C 
ATOM     26  O   UNL     1       3.260  -5.733  -0.044  0.00  0.00    -0.275 OA
ATOM     27  N   UNL     1       1.603  -7.194  -0.244  0.00  0.00    -0.285 N 
ATOM     28  H   UNL     1       0.697  -7.450  -0.009  0.00  0.00    +0.155 HD
BRANCH  27  29
ATOM     29  C   UNL     1       2.326  -7.956  -1.161  0.00  0.00    +0.033 A 
ATOM     30  C   UNL     1       3.704  -8.089  -1.020  0.00  0.00    +0.024 A 
ATOM     31  C   UNL     1       4.421  -8.841  -1.923  0.00  0.00    +0.015 A 
ATOM     32  C   UNL     1       3.763  -9.471  -2.983  0.00  0.00    +0.037 A 
ATOM     33  C   UNL     1       2.379  -9.336  -3.122  0.00  0.00    +0.015 A 
ATOM     34  C   UNL     1       1.668  -8.587  -2.212  0.00  0.00    +0.024 A 
BRANCH  32  35
ATOM     35  C   UNL     1       4.529 -10.277  -3.954  0.00  0.00    +0.242 C 
ATOM     36  O   UNL     1       5.733 -10.393  -3.832  0.00  0.00    -0.270 OA
ATOM     37  N   UNL     1       3.893 -10.884  -4.976  0.00  0.00    -0.325 N 
ATOM     38  H   UNL     1       2.933 -10.791  -5.073  0.00  0.00    +0.145 HD
ATOM     39  H   UNL     1       4.396 -11.414  -5.614  0.00  0.00    +0.145 HD
ENDBRANCH  32  35
ENDBRANCH  27  29
ENDBRANCH  24  25
ENDBRANCH  23  24
ENDBRANCH   2  23
TORSDOF 6
