REMARK  Name = ZINC28059329
REMARK  9 active torsions:
REMARK  status: ('A' for Active; 'I' for Inactive)
REMARK    1  A    between atoms: C_1  and  C_2
REMARK    2  A    between atoms: C_10  and  C_13
REMARK    3  A    between atoms: C_16  and  N_19
REMARK    4  A    between atoms: C_20  and  C_22
REMARK    5  A    between atoms: C_23  and  C_31
REMARK    6  A    between atoms: C_33  and  O_39
REMARK    7  A    between atoms: C_36  and  O_37
REMARK    8  A    between atoms: O_37  and  C_38
REMARK    9  A    between atoms: O_39  and  C_40
REMARK                            x       y       z     vdW  Elec       q    Type
REMARK                         _______ _______ _______ _____ _____    ______ ____
ROOT
ATOM      1  C   UNL     1       2.684   8.698   1.946  0.00  0.00    +0.044 C 
ATOM      2  C   UNL     1       3.389   7.519   1.327  0.00  0.00    -0.050 A 
ATOM      3  C   UNL     1       3.433   7.388  -0.050  0.00  0.00    +0.007 A 
ATOM      4  C   UNL     1       4.075   6.311  -0.634  0.00  0.00    +0.046 A 
ATOM      5  C   UNL     1       4.678   5.357   0.164  0.00  0.00    +0.131 A 
ATOM      6  C   UNL     1       4.635   5.489   1.558  0.00  0.00    +0.038 A 
ATOM      7  C   UNL     1       3.988   6.573   2.136  0.00  0.00    +0.016 A 
ATOM      8  C   UNL     1       5.294   4.449   2.384  0.00  0.00    +0.050 C 
ATOM      9  C   UNL     1       5.600   3.284   1.812  0.00  0.00    +0.026 C 
ATOM     10  C   UNL     1       5.250   3.060   0.359  0.00  0.00    +0.234 C 
ATOM     11  O   UNL     1       5.318   4.286  -0.369  0.00  0.00    -0.479 OA
ATOM     12  C   UNL     1       6.293   2.172   2.564  0.00  0.00    +0.178 C 
ATOM     13  N   UNL     1       6.263   2.442   3.994  0.00  0.00    -0.201 N 
ATOM     14  C   UNL     1       5.925   3.643   4.532  0.00  0.00    +0.240 A 
ATOM     15  N   UNL     1       6.015   3.529   5.825  0.00  0.00    -0.092 NA
ATOM     16  N   UNL     1       6.381   2.335   6.144  0.00  0.00    -0.021 NA
ATOM     17  N   UNL     1       6.550   1.616   5.081  0.00  0.00    -0.042 NA
ATOM     18  N   UNL     1       5.567   4.715   3.731  0.00  0.00    -0.282 N 
ATOM     19  H   UNL     1       5.493   5.744   4.114  0.00  0.00    +0.155 HD
ENDROOT
BRANCH  10  20
ATOM     20  C   UNL     1       3.852   2.504   0.265  0.00  0.00    -0.003 A 
ATOM     21  C   UNL     1       3.661   1.158   0.008  0.00  0.00    +0.009 A 
ATOM     22  C   UNL     1       2.382   0.645  -0.077  0.00  0.00    +0.024 A 
ATOM     23  C   UNL     1       1.287   1.482   0.094  0.00  0.00    +0.033 A 
ATOM     24  C   UNL     1       1.482   2.834   0.346  0.00  0.00    +0.024 A 
ATOM     25  C   UNL     1       2.764   3.339   0.436  0.00  0.00    +0.009 A 
BRANCH  23  26
ATOM     26  N   UNL     1      -0.011   0.965   0.007  0.00  0.00    -0.286 N 
ATOM     27  C   UNL     1      -0.264  -0.293   0.419  0.00  0.00    +0.214 C 
ATOM     28  O   UNL     1       0.611  -0.945   0.948  0.00  0.00    -0.276 OA
ATOM     29  C   UNL     1      -1.634  -0.889   0.222  0.00  0.00    +0.109 C 
ATOM     30  H   UNL     1      -0.824   1.586  -0.397  0.00  0.00    +0.155 HD
ENDBRANCH  23  26
ENDBRANCH  10  20
BRANCH  12  31
ATOM     31  C   UNL     1       7.724   2.074   2.104  0.00  0.00    +0.026 A 
ATOM     32  C   UNL     1       8.575   3.152   2.255  0.00  0.00    +0.055 A 
ATOM     33  C   UNL     1       9.893   3.060   1.835  0.00  0.00    +0.121 A 
ATOM     34  C   UNL     1      10.356   1.888   1.255  0.00  0.00    +0.049 A 
ATOM     35  C   UNL     1       9.505   0.812   1.099  0.00  0.00    +0.049 A 
ATOM     36  C   UNL     1       8.187   0.902   1.523  0.00  0.00    +0.126 A 
BRANCH  36  37
ATOM     37  O   UNL     1       7.349  -0.158   1.370  0.00  0.00    -0.495 OA
ATOM     38  C   UNL     1       7.893  -1.332   0.765  0.00  0.00    +0.277 C 
ENDBRANCH  36  37
BRANCH  33  39
ATOM     39  O   UNL     1      10.731   4.120   1.988  0.00  0.00    -0.495 OA
ATOM     40  C   UNL     1      12.074   3.957   1.529  0.00  0.00    +0.277 C 
ENDBRANCH  33  39
ENDBRANCH  12  31
TORSDOF 5
