REMARK  Name = ZINC38507965
REMARK  5 active torsions:
REMARK  status: ('A' for Active; 'I' for Inactive)
REMARK    1  A    between atoms: C_1  and  C_2
REMARK    2  A    between atoms: C_4  and  C_10
REMARK    3  A    between atoms: N_6  and  C_7
REMARK    4  A    between atoms: C_7  and  C_8
REMARK    5  A    between atoms: C_7  and  C_9
REMARK                            x       y       z     vdW  Elec       q    Type
REMARK                         _______ _______ _______ _____ _____    ______ ____
ROOT
ATOM      1  C   UNL     1       0.042  -3.365  -1.397  0.00  0.00    +0.270 C 
ATOM      2  O   UNL     1       0.036  -3.304  -2.611  0.00  0.00    -0.268 OA
ATOM      3  N   UNL     1       0.062  -4.565  -0.784  0.00  0.00    -0.259 N 
ATOM      4  C   UNL     1       0.074  -5.730  -1.538  0.00  0.00    +0.166 A 
ATOM      5  N   UNL     1       0.076  -5.871  -2.844  0.00  0.00    -0.224 NA
ATOM      6  C   UNL     1       0.090  -7.071  -3.444  0.00  0.00    +0.089 A 
ATOM      7  C   UNL     1       0.103  -8.185  -2.593  0.00  0.00    +0.049 A 
ATOM      8  S   UNL     1       0.100  -7.429  -0.985  0.00  0.00    -0.051 S 
ATOM      9  C   UNL     1       0.117  -9.414  -3.372  0.00  0.00    -0.001 A 
ATOM     10  C   UNL     1       0.134 -10.783  -3.139  0.00  0.00    +0.010 A 
ATOM     11  C   UNL     1       0.145 -11.670  -4.213  0.00  0.00    +0.001 A 
ATOM     12  C   UNL     1       0.140 -11.264  -5.520  0.00  0.00    +0.008 A 
ATOM     13  C   UNL     1       0.123  -9.887  -5.802  0.00  0.00    -0.017 A 
ATOM     14  C   UNL     1       0.113  -9.011  -4.716  0.00  0.00    -0.000 A 
ATOM     15  C   UNL     1       0.096  -7.619  -4.831  0.00  0.00    +0.010 A 
ATOM     16  C   UNL     1       0.089  -7.095  -6.111  0.00  0.00    +0.011 A 
ATOM     17  C   UNL     1       0.099  -7.956  -7.209  0.00  0.00    +0.001 A 
ATOM     18  C   UNL     1       0.115  -9.319  -7.088  0.00  0.00    +0.008 A 
ATOM     19  H   UNL     1       0.067  -4.614   0.185  0.00  0.00    +0.157 HD
ENDROOT
BRANCH   1  23
ATOM     20  C   UNL     1      -0.018   1.503   0.010  0.00  0.00    +0.065 C 
ATOM     21  C   UNL     1       0.002  -0.004   0.002  0.00  0.00    +0.037 A 
ATOM     22  C   UNL     1       0.009  -0.801  -1.092  0.00  0.00    +0.057 A 
ATOM     23  C   UNL     1       0.029  -2.126  -0.595  0.00  0.00    +0.148 A 
ATOM     24  N   UNL     1       0.034  -2.043   0.721  0.00  0.00    -0.166 NA
ATOM     25  N   UNL     1       0.023  -0.811   1.085  0.00  0.00    -0.265 N 
BRANCH  25  26
ATOM     26  C   UNL     1       0.030  -0.348   2.475  0.00  0.00    +0.101 C 
ATOM     27  C   UNL     1      -1.206  -0.888   3.198  0.00  0.00    +0.032 C 
ATOM     28  C   UNL     1       1.293  -0.854   3.175  0.00  0.00    +0.032 C 
ENDBRANCH  25  26
ENDBRANCH   1  23
TORSDOF 2
