REMARK  Name = ZINC33474091
REMARK  11 active torsions:
REMARK  status: ('A' for Active; 'I' for Inactive)
REMARK    1  A    between atoms: C_1  and  C_2
REMARK    2  A    between atoms: C_2  and  C_3
REMARK    3  A    between atoms: C_3  and  C_4
REMARK    4  A    between atoms: C_4  and  C_5
REMARK    5  A    between atoms: C_5  and  C_6
REMARK    6  A    between atoms: C_6  and  N_7
REMARK    7  A    between atoms: C_11  and  C_12
REMARK    8  A    between atoms: C_13  and  N_24
REMARK    9  A    between atoms: C_18  and  C_23
REMARK   10  A    between atoms: N_24  and  C_25
REMARK   11  A    between atoms: C_25  and  C_26
REMARK                            x       y       z     vdW  Elec       q    Type
REMARK                         _______ _______ _______ _____ _____    ______ ____
ROOT
ATOM      1  C   UNL     1       1.039  -0.701  -0.123  0.00  0.00    +0.081 A 
ATOM      2  C   UNL     1       2.079   0.256  -0.056  0.00  0.00    +0.134 A 
ATOM      3  N   UNL     1       1.789   1.545  -0.154  0.00  0.00    -0.214 NA
ATOM      4  C   UNL     1       0.535   1.969  -0.316  0.00  0.00    +0.142 A 
ATOM      5  C   UNL     1       0.288   3.350  -0.414  0.00  0.00    +0.047 A 
ATOM      6  C   UNL     1      -0.991   3.794  -0.581  0.00  0.00    +0.008 A 
ATOM      7  C   UNL     1      -2.040   2.868  -0.652  0.00  0.00    -0.034 A 
ATOM      8  C   UNL     1      -1.785   1.544  -0.547  0.00  0.00    +0.099 A 
ATOM      9  N   UNL     1      -0.509   1.090  -0.387  0.00  0.00    -0.267 N 
ATOM     10  C   UNL     1      -0.288  -0.239  -0.295  0.00  0.00    +0.267 A 
ATOM     11  O   UNL     1      -1.215  -1.027  -0.358  0.00  0.00    -0.267 OA
ATOM     12  C   UNL     1      -3.457   3.348  -0.836  0.00  0.00    +0.045 C 
ENDROOT
BRANCH   1  17
ATOM     13  N   UNL     1      -0.148  -3.234   3.132  0.00  0.00    -0.255 N 
ATOM     14  C   UNL     1       0.206  -2.337   2.228  0.00  0.00    +0.258 C 
ATOM     15  O   UNL     1      -0.027  -1.153   2.396  0.00  0.00    -0.269 OA
ATOM     16  C   UNL     1       0.862  -2.795   1.050  0.00  0.00    +0.077 C 
ATOM     17  C   UNL     1       1.318  -2.084  -0.022  0.00  0.00    +0.037 C 
ATOM     18  S   UNL     1       0.932  -4.554   1.360  0.00  0.00    -0.061 S 
ATOM     19  C   UNL     1       0.117  -4.547   2.949  0.00  0.00    +0.121 C 
ATOM     20  S   UNL     1      -0.238  -5.867   3.979  0.00  0.00    -0.027 S 
BRANCH  13  21
ATOM     21  C   UNL     1      -0.830  -2.798   4.353  0.00  0.00    +0.115 C 
BRANCH  21  22
ATOM     22  C   UNL     1       0.207  -2.480   5.431  0.00  0.00    +0.019 C 
BRANCH  22  23
ATOM     23  C   UNL     1      -0.506  -2.025   6.706  0.00  0.00    +0.002 C 
BRANCH  23  24
ATOM     24  C   UNL     1       0.532  -1.706   7.785  0.00  0.00    -0.000 C 
BRANCH  24  26
ATOM     25  C   UNL     1       0.856  -0.932  10.138  0.00  0.00    +0.004 C 
ATOM     26  C   UNL     1      -0.181  -1.251   9.060  0.00  0.00    -0.003 C 
ENDBRANCH  24  26
ENDBRANCH  23  24
ENDBRANCH  22  23
ENDBRANCH  21  22
ENDBRANCH  13  21
ENDBRANCH   1  17
BRANCH   2  27
ATOM     27  N   UNL     1       3.385  -0.150   0.110  0.00  0.00    -0.326 N 
ATOM     28  H   UNL     1       3.622  -1.222   0.191  0.00  0.00    +0.148 HD
BRANCH  27  29
ATOM     29  C   UNL     1       4.459   0.844   0.179  0.00  0.00    +0.134 C 
BRANCH  29  30
ATOM     30  C   UNL     1       5.801   0.134   0.365  0.00  0.00    +0.135 C 
ATOM     31  C   UNL     1       6.938   1.167   0.527  0.00  0.00    +0.035 C 
ATOM     32  C   UNL     1       8.131   0.533  -0.223  0.00  0.00    +0.031 C 
ATOM     33  C   UNL     1       7.574  -0.808  -0.749  0.00  0.00    +0.160 C 
ATOM     34  O   UNL     1       6.144  -0.612  -0.823  0.00  0.00    -0.375 OA
ENDBRANCH  29  30
ENDBRANCH  27  29
ENDBRANCH   2  27
TORSDOF 9
