REMARK  Name = ZINC12126472
REMARK  9 active torsions:
REMARK  status: ('A' for Active; 'I' for Inactive)
REMARK    1  A    between atoms: C_1  and  C_2
REMARK    2  A    between atoms: C_9  and  S_12
REMARK    3  A    between atoms: S_12  and  C_13
REMARK    4  A    between atoms: C_13  and  C_14
REMARK    5  A    between atoms: N_16  and  C_17
REMARK    6  A    between atoms: C_17  and  C_18
REMARK    7  A    between atoms: C_25  and  C_28
REMARK    8  A    between atoms: C_29  and  C_35
REMARK    9  A    between atoms: C_32  and  C_34
REMARK                            x       y       z     vdW  Elec       q    Type
REMARK                         _______ _______ _______ _____ _____    ______ ____
ROOT
ATOM      1  C   UNL     1       0.762  -7.356   8.235  0.00  0.00    +0.149 C 
ENDROOT
BRANCH   1   2
ATOM      2  C   UNL     1       0.539  -6.800   9.643  0.00  0.00    +0.195 C 
ATOM      3  C   UNL     1       0.583  -7.934  10.694  0.00  0.00    +0.085 C 
ATOM      4  C   UNL     1      -0.476  -7.485  11.683  0.00  0.00    -0.002 A 
ATOM      5  C   UNL     1      -0.759  -7.875  12.974  0.00  0.00    +0.007 A 
ATOM      6  C   UNL     1      -1.801  -7.284  13.669  0.00  0.00    +0.001 A 
ATOM      7  C   UNL     1      -2.559  -6.301  13.067  0.00  0.00    +0.014 A 
ATOM      8  C   UNL     1      -2.283  -5.904  11.762  0.00  0.00    +0.044 A 
ATOM      9  C   UNL     1      -1.229  -6.504  11.055  0.00  0.00    +0.133 A 
ATOM     10  O   UNL     1      -0.796  -6.284   9.781  0.00  0.00    -0.486 OA
BRANCH   8  11
ATOM     11  C   UNL     1      -3.100  -4.848  11.120  0.00  0.00    +0.096 A 
ATOM     12  C   UNL     1      -4.493  -4.932  11.139  0.00  0.00    +0.064 A 
ATOM     13  N   UNL     1      -5.216  -3.989  10.565  0.00  0.00    -0.256 NA
ATOM     14  C   UNL     1      -4.623  -2.966   9.973  0.00  0.00    +0.134 A 
ATOM     15  C   UNL     1      -3.242  -2.878   9.952  0.00  0.00    +0.057 A 
ATOM     16  N   UNL     1      -2.509  -3.814  10.528  0.00  0.00    -0.248 NA
ATOM     17  C   UNL     1      -2.573  -1.709   9.276  0.00  0.00    +0.067 C 
ATOM     18  C   UNL     1      -5.170  -6.098  11.812  0.00  0.00    +0.068 C 
ENDBRANCH   8  11
ENDBRANCH   1   2
BRANCH   1  21
ATOM     19  C   UNL     1       0.957  -6.507   5.960  0.00  0.00    +0.223 C 
ATOM     20  O   UNL     1       1.111  -7.648   5.578  0.00  0.00    -0.275 OA
ATOM     21  N   UNL     1       0.774  -6.253   7.271  0.00  0.00    -0.311 N 
ATOM     22  H   UNL     1       0.651  -5.341   7.575  0.00  0.00    +0.149 HD
BRANCH  19  23
ATOM     23  C   UNL     1       0.969  -5.373   4.967  0.00  0.00    +0.173 C 
BRANCH  23  24
ATOM     24  S   UNL     1       1.233  -6.032   3.298  0.00  0.00    -0.079 S 
BRANCH  24  33
ATOM     25  C   UNL     1       0.952   0.955   0.146  0.00  0.00    +0.044 C 
ATOM     26  C   UNL     1       1.079  -0.542   0.274  0.00  0.00    -0.048 A 
ATOM     27  C   UNL     1       1.289  -1.313  -0.859  0.00  0.00    +0.005 A 
ATOM     28  C   UNL     1       1.407  -2.684  -0.759  0.00  0.00    +0.028 A 
ATOM     29  C   UNL     1       1.315  -3.296   0.482  0.00  0.00    +0.067 A 
ATOM     30  C   UNL     1       1.102  -2.519   1.633  0.00  0.00    +0.090 A 
ATOM     31  C   UNL     1       0.990  -1.132   1.514  0.00  0.00    +0.033 A 
ATOM     32  N   UNL     1       1.055  -3.373   2.689  0.00  0.00    -0.222 NA
ATOM     33  C   UNL     1       1.222  -4.603   2.268  0.00  0.00    +0.168 A 
ATOM     34  N   UNL     1       1.387  -4.611   0.912  0.00  0.00    -0.333 N 
ATOM     35  H   UNL     1       1.528  -5.392   0.354  0.00  0.00    +0.168 HD
ENDBRANCH  24  33
ENDBRANCH  23  24
ENDBRANCH  19  23
ENDBRANCH   1  21
TORSDOF 6
