REMARK  Name = ZINC54624400
REMARK  14 active torsions:
REMARK  status: ('A' for Active; 'I' for Inactive)
REMARK    1  A    between atoms: C_1  and  C_2
REMARK    2  A    between atoms: C_2  and  C_3
REMARK    3  A    between atoms: C_3  and  C_4
REMARK    4  A    between atoms: C_4  and  O_5
REMARK    5  A    between atoms: O_5  and  C_6
REMARK    6  A    between atoms: C_10  and  C_12
REMARK    7  A    between atoms: C_14  and  C_32
REMARK    8  A    between atoms: C_15  and  C_31
REMARK    9  A    between atoms: C_20  and  S_22
REMARK   10  A    between atoms: S_22  and  C_23
REMARK   11  A    between atoms: C_23  and  C_24
REMARK   12  A    between atoms: C_32  and  O_34
REMARK   13  A    between atoms: O_34  and  C_35
REMARK   14  A    between atoms: C_35  and  C_36
REMARK                            x       y       z     vdW  Elec       q    Type
REMARK                         _______ _______ _______ _____ _____    ______ ____
ROOT
ATOM      1  C   UNL     1       2.986  -6.335   5.089  0.00  0.00    +0.179 C 
ATOM      2  C   UNL     1       4.235  -7.090   4.721  0.00  0.00    +0.082 C 
ATOM      3  C   UNL     1       4.296  -8.431   4.683  0.00  0.00    +0.020 C 
ATOM      4  N   UNL     1       3.216  -9.220   4.990  0.00  0.00    -0.287 N 
ATOM      5  C   UNL     1       2.129  -8.608   5.598  0.00  0.00    +0.219 A 
ATOM      6  N   UNL     1       2.008  -7.259   5.657  0.00  0.00    -0.220 N 
ATOM      7  N   UNL     1       0.819  -6.994   6.334  0.00  0.00    -0.141 NA
ATOM      8  C   UNL     1       0.288  -8.159   6.639  0.00  0.00    +0.211 A 
ATOM      9  N   UNL     1       1.090  -9.135   6.187  0.00  0.00    -0.187 NA
ATOM     10  C   UNL     1       5.593  -9.090   4.290  0.00  0.00    +0.061 C 
ATOM     11  H   UNL     1       3.213 -10.170   4.789  0.00  0.00    +0.155 HD
ENDROOT
BRANCH   1  16
ATOM     12  C   UNL     1       1.734  -3.720   2.665  0.00  0.00    +0.121 A 
ATOM     13  C   UNL     1       1.348  -4.506   1.589  0.00  0.00    +0.045 A 
ATOM     14  C   UNL     1       1.494  -5.878   1.650  0.00  0.00    +0.004 A 
ATOM     15  C   UNL     1       2.024  -6.469   2.782  0.00  0.00    +0.006 A 
ATOM     16  C   UNL     1       2.409  -5.688   3.856  0.00  0.00    -0.015 A 
ATOM     17  C   UNL     1       2.271  -4.314   3.798  0.00  0.00    +0.051 A 
BRANCH  12  18
ATOM     18  O   UNL     1       1.592  -2.370   2.608  0.00  0.00    -0.492 OA
BRANCH  18  19
ATOM     19  C   UNL     1       1.033  -1.827   1.410  0.00  0.00    +0.229 C 
BRANCH  19  20
ATOM     20  C   UNL     1       0.952  -0.303   1.530  0.00  0.00    +0.041 C 
BRANCH  20  22
ATOM     21  C   UNL     1       0.272   1.801   0.368  0.00  0.00    +0.004 C 
ATOM     22  C   UNL     1       0.353   0.278   0.248  0.00  0.00    -0.000 C 
ENDBRANCH  20  22
ENDBRANCH  19  20
ENDBRANCH  18  19
ENDBRANCH  12  18
ENDBRANCH   1  16
BRANCH   2  23
ATOM     23  C   UNL     1       5.398  -6.354   4.402  0.00  0.00    +0.339 C 
ATOM     24  O   UNL     1       6.101  -5.910   5.290  0.00  0.00    -0.245 OA
BRANCH  23  25
ATOM     25  O   UNL     1       5.729  -6.143   3.110  0.00  0.00    -0.462 OA
BRANCH  25  26
ATOM     26  C   UNL     1       6.917  -5.390   2.860  0.00  0.00    +0.229 C 
ATOM     27  C   UNL     1       7.127  -5.255   1.351  0.00  0.00    +0.048 C 
ENDBRANCH  25  26
ENDBRANCH  23  25
ENDBRANCH   2  23
BRANCH   8  28
ATOM     28  S   UNL     1      -1.229  -8.398   7.502  0.00  0.00    -0.080 S 
BRANCH  28  29
ATOM     29  C   UNL     1      -1.397 -10.201   7.603  0.00  0.00    +0.114 C 
BRANCH  29  30
ATOM     30  C   UNL     1      -2.672 -10.547   8.328  0.00  0.00    -0.019 A 
ATOM     31  C   UNL     1      -2.667 -10.697   9.703  0.00  0.00    +0.006 A 
ATOM     32  C   UNL     1      -3.836 -11.014  10.368  0.00  0.00    +0.000 A 
ATOM     33  C   UNL     1      -5.011 -11.181   9.660  0.00  0.00    +0.001 A 
ATOM     34  C   UNL     1      -5.018 -11.032   8.286  0.00  0.00    +0.020 A 
ATOM     35  C   UNL     1      -3.849 -10.709   7.620  0.00  0.00    +0.045 A 
ATOM     36 CL   UNL     1      -3.858 -10.515   5.895  0.00  0.00    -0.083 Cl
ENDBRANCH  29  30
ENDBRANCH  28  29
ENDBRANCH   8  28
TORSDOF 11
