REMARK  Name = ZINC46792054
REMARK  11 active torsions:
REMARK  status: ('A' for Active; 'I' for Inactive)
REMARK    1  A    between atoms: C_1  and  C_2
REMARK    2  A    between atoms: C_2  and  C_3
REMARK    3  A    between atoms: C_3  and  O_4
REMARK    4  A    between atoms: O_4  and  C_5
REMARK    5  A    between atoms: C_6  and  O_32
REMARK    6  A    between atoms: C_8  and  C_12
REMARK    7  A    between atoms: N_14  and  C_15
REMARK    8  A    between atoms: C_15  and  C_16
REMARK    9  A    between atoms: C_24  and  C_31
REMARK   10  A    between atoms: C_27  and  C_30
REMARK   11  A    between atoms: O_32  and  C_33
REMARK                            x       y       z     vdW  Elec       q    Type
REMARK                         _______ _______ _______ _____ _____    ______ ____
ROOT
ATOM      1  C   UNL     1      -6.364  -4.605   0.036  0.00  0.00    +0.244 C 
ATOM      2  O   UNL     1      -6.905  -4.876   1.091  0.00  0.00    -0.270 OA
ATOM      3  N   UNL     1      -6.968  -4.912  -1.129  0.00  0.00    -0.307 N 
ATOM      4  H   UNL     1      -6.537  -4.695  -1.970  0.00  0.00    +0.149 HD
ENDROOT
BRANCH   1   8
ATOM      5  C   UNL     1      -2.569  -2.691   0.019  0.00  0.00    +0.176 A 
ATOM      6  C   UNL     1      -3.186  -2.999   1.230  0.00  0.00    +0.163 A 
ATOM      7  C   UNL     1      -4.419  -3.621   1.239  0.00  0.00    +0.062 A 
ATOM      8  C   UNL     1      -5.047  -3.940   0.032  0.00  0.00    +0.041 A 
ATOM      9  C   UNL     1      -4.424  -3.628  -1.179  0.00  0.00    +0.032 A 
ATOM     10  C   UNL     1      -3.195  -3.003  -1.181  0.00  0.00    +0.064 A 
ATOM     11 BR   UNL     1      -2.357  -2.576  -2.821  0.00  0.00    -0.046 Br
BRANCH   6  12
ATOM     12  O   UNL     1      -2.573  -2.688   2.404  0.00  0.00    -0.491 OA
ATOM     13  C   UNL     1      -3.262  -3.033   3.607  0.00  0.00    +0.277 C 
ENDBRANCH   6  12
BRANCH   5  14
ATOM     14  O   UNL     1      -1.357  -2.080   0.012  0.00  0.00    -0.487 OA
BRANCH  14  15
ATOM     15  C   UNL     1      -1.351  -0.651   0.012  0.00  0.00    +0.229 C 
BRANCH  15  17
ATOM     16  C   UNL     1       0.101   1.383   0.004  0.00  0.00    +0.007 C 
ATOM     17  C   UNL     1       0.094  -0.147   0.004  0.00  0.00    +0.038 C 
ENDBRANCH  15  17
ENDBRANCH  14  15
ENDBRANCH   5  14
ENDBRANCH   1   8
BRANCH   3  18
ATOM     18  C   UNL     1      -8.276  -5.572  -1.125  0.00  0.00    +0.141 C 
BRANCH  18  19
ATOM     19  C   UNL     1      -8.727  -5.802  -2.544  0.00  0.00    -0.014 A 
ATOM     20  C   UNL     1      -9.473  -4.836  -3.208  0.00  0.00    +0.010 A 
ATOM     21  C   UNL     1      -9.867  -5.087  -4.510  0.00  0.00    +0.042 A 
ATOM     22  C   UNL     1      -9.506  -6.291  -5.106  0.00  0.00    +0.099 A 
ATOM     23  N   UNL     1      -8.794  -7.186  -4.440  0.00  0.00    -0.349 N 
ATOM     24  C   UNL     1      -8.400  -6.972  -3.199  0.00  0.00    +0.089 A 
ATOM     25  N   UNL     1      -9.896  -6.556  -6.414  0.00  0.00    -0.312 N 
ATOM     26  C   UNL     1      -9.425  -7.760  -7.115  0.00  0.00    +0.137 C 
ATOM     27  C   UNL     1     -10.640  -8.477  -7.715  0.00  0.00    +0.133 C 
ATOM     28  O   UNL     1     -11.400  -7.548  -8.490  0.00  0.00    -0.371 OA
ATOM     29  C   UNL     1     -11.941  -6.460  -7.736  0.00  0.00    +0.133 C 
ATOM     30  C   UNL     1     -10.797  -5.643  -7.136  0.00  0.00    +0.137 C 
ATOM     31  C   UNL     1     -12.820  -7.008  -6.609  0.00  0.00    +0.039 C 
ATOM     32  C   UNL     1     -10.167  -9.624  -8.610  0.00  0.00    +0.039 C 
ATOM     33  H   UNL     1      -8.554  -8.019  -4.875  0.00  0.00    +0.167 HD
ENDBRANCH  18  19
ENDBRANCH   3  18
TORSDOF 7
