REMARK  Name = ZINC35266912
REMARK  6 active torsions:
REMARK  status: ('A' for Active; 'I' for Inactive)
REMARK    1  A    between atoms: C_4  and  C_7
REMARK    2  A    between atoms: C_7  and  C_8
REMARK    3  A    between atoms: C_8  and  C_10
REMARK    4  A    between atoms: C_8  and  N_25
REMARK    5  A    between atoms: C_16  and  C_18
REMARK    6  A    between atoms: C_26  and  C_28
REMARK                            x       y       z     vdW  Elec       q    Type
REMARK                         _______ _______ _______ _____ _____    ______ ____
ROOT
ATOM      1  C   UNL     1       4.171  -0.963   1.399  0.00  0.00    +0.163 C 
ENDROOT
BRANCH   1   2
ATOM      2  C   UNL     1       5.422  -1.804   1.383  0.00  0.00    +0.239 C 
ATOM      3  O   UNL     1       6.506  -1.282   1.528  0.00  0.00    -0.273 OA
ATOM      4  N   UNL     1       5.334  -3.138   1.209  0.00  0.00    -0.262 N 
ATOM      5  C   UNL     1       6.487  -3.914   1.195  0.00  0.00    +0.188 A 
ATOM      6  N   UNL     1       7.757  -3.556   1.338  0.00  0.00    -0.125 NA
ATOM      7  N   UNL     1       8.695  -4.399   1.299  0.00  0.00    -0.140 NA
ATOM      8  C   UNL     1       8.468  -5.693   1.113  0.00  0.00    +0.134 A 
ATOM      9  S   UNL     1       6.682  -5.681   0.987  0.00  0.00    -0.030 S 
ATOM     10  H   UNL     1       4.467  -3.557   1.094  0.00  0.00    +0.157 HD
BRANCH   8  11
ATOM     11  C   UNL     1       9.418  -6.823   1.038  0.00  0.00    +0.009 A 
ATOM     12  C   UNL     1       8.948  -8.120   0.827  0.00  0.00    +0.012 A 
ATOM     13  C   UNL     1       9.840  -9.171   0.758  0.00  0.00    +0.016 A 
ATOM     14  C   UNL     1      11.198  -8.940   0.896  0.00  0.00    +0.018 A 
ATOM     15  C   UNL     1      11.670  -7.655   1.106  0.00  0.00    +0.016 A 
ATOM     16  C   UNL     1      10.789  -6.596   1.171  0.00  0.00    +0.012 A 
ATOM     17 BR   UNL     1      12.413 -10.386   0.800  0.00  0.00    -0.050 Br
ENDBRANCH   8  11
ENDBRANCH   1   2
BRANCH   1  18
ATOM     18  N   UNL     1       4.451   0.315   2.057  0.00  0.00    -0.303 N 
ATOM     19  C   UNL     1       5.392   1.140   1.556  0.00  0.00    +0.217 C 
ATOM     20  O   UNL     1       6.007   0.823   0.560  0.00  0.00    -0.275 OA
ATOM     21  H   UNL     1       3.959   0.568   2.854  0.00  0.00    +0.149 HD
BRANCH  19  22
ATOM     22  C   UNL     1       5.680   2.455   2.233  0.00  0.00    +0.075 C 
ATOM     23  C   UNL     1       4.428   3.355   2.194  0.00  0.00    +0.013 C 
ATOM     24  C   UNL     1       4.992   4.781   1.978  0.00  0.00    +0.001 C 
ATOM     25  C   UNL     1       6.168   4.539   1.000  0.00  0.00    +0.001 C 
ATOM     26  C   UNL     1       6.787   3.208   1.474  0.00  0.00    +0.013 C 
ENDBRANCH  19  22
ENDBRANCH   1  18
BRANCH   1  27
ATOM     27  C   UNL     1       3.711  -0.707  -0.038  0.00  0.00    +0.067 C 
BRANCH  27  31
ATOM     28  C   UNL     1      -0.017   1.378   0.010  0.00  0.00    +0.000 A 
ATOM     29  C   UNL     1       1.171   2.086   0.002  0.00  0.00    +0.000 A 
ATOM     30  C   UNL     1       2.377   1.411  -0.013  0.00  0.00    +0.004 A 
ATOM     31  C   UNL     1       2.396   0.029  -0.020  0.00  0.00    -0.045 A 
ATOM     32  C   UNL     1       1.208  -0.679  -0.012  0.00  0.00    +0.004 A 
ATOM     33  C   UNL     1       0.002  -0.004   0.002  0.00  0.00    +0.000 A 
ENDBRANCH  27  31
ENDBRANCH   1  27
TORSDOF 6
