REMARK  Name = ZINC67225071
REMARK  11 active torsions:
REMARK  status: ('A' for Active; 'I' for Inactive)
REMARK    1  A    between atoms: C_1  and  C_2
REMARK    2  A    between atoms: C_4  and  C_25
REMARK    3  A    between atoms: C_5  and  C_9
REMARK    4  A    between atoms: C_6  and  C_8
REMARK    5  A    between atoms: C_9  and  S_10
REMARK    6  A    between atoms: S_10  and  C_13
REMARK    7  A    between atoms: C_13  and  C_14
REMARK    8  A    between atoms: C_17  and  S_19
REMARK    9  A    between atoms: S_19  and  N_22
REMARK   10  A    between atoms: N_22  and  C_23
REMARK   11  A    between atoms: N_22  and  C_24
REMARK                            x       y       z     vdW  Elec       q    Type
REMARK                         _______ _______ _______ _____ _____    ______ ____
ROOT
ATOM      1  S   UNL     1       1.777  -4.858  -0.034  0.00  0.00    -0.020 S 
ATOM      2  O   UNL     1       2.377  -4.463  -1.260  0.00  0.00    -0.174 OA
ATOM      3  O   UNL     1       2.390  -4.476   1.190  0.00  0.00    -0.174 OA
ENDROOT
BRANCH   1   4
ATOM      4  C   UNL     1       0.059  -4.275  -0.021  0.00  0.00    +0.202 C 
BRANCH   4   9
ATOM      5  C   UNL     1      -0.018   1.503   0.010  0.00  0.00    +0.044 C 
ATOM      6  C   UNL     1       0.002  -0.004   0.002  0.00  0.00    -0.050 A 
ATOM      7  C   UNL     1       0.006  -0.689  -1.199  0.00  0.00    +0.007 A 
ATOM      8  C   UNL     1       0.025  -2.071  -1.206  0.00  0.00    -0.045 A 
ATOM      9  C   UNL     1       0.040  -2.768  -0.013  0.00  0.00    -0.021 A 
ATOM     10  C   UNL     1       0.037  -2.084   1.188  0.00  0.00    -0.045 A 
ATOM     11  C   UNL     1       0.023  -0.702   1.195  0.00  0.00    +0.007 A 
ATOM     12  C   UNL     1       0.054  -2.844   2.489  0.00  0.00    +0.044 C 
ATOM     13  C   UNL     1       0.027  -2.817  -2.516  0.00  0.00    +0.044 C 
ENDBRANCH   4   9
ENDBRANCH   1   4
BRANCH   1  14
ATOM     14  C   UNL     1       1.589  -6.662  -0.043  0.00  0.00    +0.240 C 
BRANCH  14  15
ATOM     15  C   UNL     1       2.950  -7.309  -0.054  0.00  0.00    +0.128 A 
ATOM     16  C   UNL     1       3.664  -7.658   1.031  0.00  0.00    +0.048 A 
ATOM     17  C   UNL     1       4.870  -8.228   0.562  0.00  0.00    +0.071 A 
ATOM     18  C   UNL     1       4.820  -8.193  -0.781  0.00  0.00    +0.258 A 
ATOM     19  O   UNL     1       3.652  -7.641  -1.149  0.00  0.00    -0.440 OA
BRANCH  18  20
ATOM     20  S   UNL     1       6.072  -8.779  -1.874  0.00  0.00    +0.093 S 
ATOM     21  O   UNL     1       5.903  -8.079  -3.099  0.00  0.00    -0.150 OA
ATOM     22  O   UNL     1       7.292  -8.754  -1.145  0.00  0.00    -0.150 OA
BRANCH  20  23
ATOM     23  N   UNL     1       5.742 -10.371  -2.189  0.00  0.00    -0.180 NA
ATOM     24  C   UNL     1       4.888 -10.730  -3.324  0.00  0.00    +0.131 C 
ATOM     25  C   UNL     1       6.303 -11.419  -1.333  0.00  0.00    +0.131 C 
ENDBRANCH  20  23
ENDBRANCH  18  20
ENDBRANCH  14  15
ENDBRANCH   1  14
TORSDOF 6
