REMARK  Name = ZINC11616007
REMARK  13 active torsions:
REMARK  status: ('A' for Active; 'I' for Inactive)
REMARK    1  A    between atoms: C_1  and  C_2
REMARK    2  A    between atoms: C_2  and  C_4
REMARK    3  A    between atoms: C_2  and  O_29
REMARK    4  A    between atoms: C_10  and  C_28
REMARK    5  A    between atoms: C_15  and  C_16
REMARK    6  A    between atoms: C_19  and  O_27
REMARK    7  A    between atoms: C_22  and  O_26
REMARK    8  A    between atoms: O_29  and  C_30
REMARK    9  A    between atoms: C_30  and  C_31
REMARK   10  A    between atoms: C_31  and  C_32
REMARK   11  A    between atoms: C_32  and  C_33
REMARK   12  A    between atoms: C_32  and  C_34
REMARK   13  A    between atoms: C_32  and  O_35
REMARK                            x       y       z     vdW  Elec       q    Type
REMARK                         _______ _______ _______ _____ _____    ______ ____
ROOT
ATOM      1  C   UNL     1      -2.411   4.991  -1.212  0.00  0.00    +0.024 C 
ATOM      2  C   UNL     1      -1.879   5.081  -2.666  0.00  0.00    +0.007 C 
ATOM      3  C   UNL     1      -0.836   3.932  -2.831  0.00  0.00    +0.009 C 
ATOM      4  C   UNL     1      -0.402   3.670  -1.387  0.00  0.00    +0.021 C 
ATOM      5  C   UNL     1      -1.758   3.748  -0.629  0.00  0.00    -0.020 C 
ATOM      6  C   UNL     1      -1.456   3.723   0.851  0.00  0.00    +0.008 C 
ATOM      7  C   UNL     1      -0.909   2.326   1.189  0.00  0.00    +0.005 C 
ATOM      8  C   UNL     1       0.354   2.004   0.392  0.00  0.00    +0.031 C 
ATOM      9  C   UNL     1       0.150   2.308  -1.085  0.00  0.00    -0.066 C 
ATOM     10  C   UNL     1       0.441   1.428  -2.043  0.00  0.00    -0.000 C 
ATOM     11  C   UNL     1      -2.607   2.528  -0.992  0.00  0.00    +0.012 C 
ENDROOT
BRANCH  10  12
ATOM     12  C   UNL     1       0.647   1.884  -3.419  0.00  0.00    +0.004 C 
ATOM     13  C   UNL     1       0.822   0.985  -4.409  0.00  0.00    -0.040 C 
ATOM     14  C   UNL     1       0.812  -0.507  -4.138  0.00  0.00    +0.067 C 
ATOM     15  C   UNL     1       2.009  -1.136  -4.858  0.00  0.00    +0.122 C 
ATOM     16  C   UNL     1       1.931  -0.832  -6.355  0.00  0.00    +0.067 C 
ATOM     17  C   UNL     1       2.108   0.672  -6.588  0.00  0.00    +0.147 C 
ATOM     18  C   UNL     1       1.028   1.405  -5.811  0.00  0.00    -0.023 C 
ATOM     19  C   UNL     1       0.303   2.379  -6.361  0.00  0.00    +0.015 C 
BRANCH  17  20
ATOM     20  O   UNL     1       1.975   0.962  -7.981  0.00  0.00    -0.387 OA
ATOM     21  H   UNL     1       2.072   1.998  -8.339  0.00  0.00    +0.210 HD
ENDBRANCH  17  20
BRANCH  15  22
ATOM     22  O   UNL     1       1.990  -2.552  -4.662  0.00  0.00    -0.391 OA
ATOM     23  H   UNL     1       2.776  -3.179  -5.107  0.00  0.00    +0.210 HD
ENDBRANCH  15  22
ENDBRANCH  10  12
BRANCH   1  25
ATOM     24  C   UNL     1      -4.440   4.803   0.234  0.00  0.00    +0.038 C 
ATOM     25  C   UNL     1      -3.934   4.842  -1.210  0.00  0.00    +0.119 C 
BRANCH  25  26
ATOM     26  O   UNL     1      -4.522   5.952  -1.891  0.00  0.00    -0.376 OA
BRANCH  26  27
ATOM     27  C   UNL     1      -5.759   5.647  -2.538  0.00  0.00    +0.163 C 
BRANCH  27  28
ATOM     28  C   UNL     1      -6.295   6.901  -3.231  0.00  0.00    +0.062 C 
BRANCH  28  29
ATOM     29  C   UNL     1      -7.620   6.575  -3.924  0.00  0.00    +0.063 C 
ATOM     30  C   UNL     1      -8.634   6.093  -2.885  0.00  0.00    +0.041 C 
ATOM     31  C   UNL     1      -8.155   7.829  -4.617  0.00  0.00    +0.041 C 
BRANCH  29  32
ATOM     32  O   UNL     1      -7.409   5.548  -4.895  0.00  0.00    -0.389 OA
ATOM     33  H   UNL     1      -8.252   5.179  -5.497  0.00  0.00    +0.210 HD
ENDBRANCH  29  32
ENDBRANCH  28  29
ENDBRANCH  27  28
ENDBRANCH  26  27
ENDBRANCH  25  26
ENDBRANCH   1  25
TORSDOF 9
