REMARK  Name = ZINC03770724
REMARK  6 active torsions:
REMARK  status: ('A' for Active; 'I' for Inactive)
REMARK    1  A    between atoms: C_1  and  C_2
REMARK    2  A    between atoms: N_8  and  C_9
REMARK    3  A    between atoms: C_9  and  C_10
REMARK    4  A    between atoms: C_10  and  C_11
REMARK    5  A    between atoms: N_21  and  C_34
REMARK    6  A    between atoms: C_34  and  C_35
REMARK                            x       y       z     vdW  Elec       q    Type
REMARK                         _______ _______ _______ _____ _____    ______ ____
ROOT
ATOM      1  C   UNL     1      -2.902   0.410  -0.406  0.00  0.00    +0.064 C 
ATOM      2  C   UNL     1      -2.470   1.834  -0.173  0.00  0.00    +0.033 A 
ATOM      3  C   UNL     1      -1.138   2.160  -0.215  0.00  0.00    +0.085 A 
ATOM      4  C   UNL     1      -0.735   3.555   0.020  0.00  0.00    +0.078 A 
ATOM      5  C   UNL     1      -1.719   4.487   0.262  0.00  0.00    +0.098 A 
ATOM      6  C   UNL     1      -3.056   4.070   0.281  0.00  0.00    +0.254 A 
ATOM      7  O   UNL     1      -3.934   4.890   0.494  0.00  0.00    -0.268 OA
ATOM      8  N   UNL     1      -3.393   2.788   0.068  0.00  0.00    -0.311 N 
ATOM      9  N   UNL     1       0.635   3.588  -0.072  0.00  0.00    -0.270 N 
ATOM     10  N   UNL     1       1.124   2.306  -0.343  0.00  0.00    -0.191 N 
ATOM     11  C   UNL     1       0.112   1.420  -0.434  0.00  0.00    +0.283 A 
ATOM     12  O   UNL     1       0.214   0.230  -0.660  0.00  0.00    -0.265 OA
ATOM     13  C   UNL     1       2.463   1.991  -0.497  0.00  0.00    +0.196 A 
ATOM     14  N   UNL     1       3.508   2.782  -0.432  0.00  0.00    -0.221 NA
ATOM     15  C   UNL     1       4.771   2.332  -0.599  0.00  0.00    +0.081 A 
ATOM     16  C   UNL     1       5.975   3.072  -0.549  0.00  0.00    +0.029 A 
ATOM     17  C   UNL     1       7.183   2.457  -0.748  0.00  0.00    +0.002 A 
ATOM     18  C   UNL     1       7.270   1.096  -1.005  0.00  0.00    +0.001 A 
ATOM     19  C   UNL     1       6.113   0.342  -1.061  0.00  0.00    +0.017 A 
ATOM     20  C   UNL     1       4.898   0.950  -0.862  0.00  0.00    +0.041 A 
ATOM     21  S   UNL     1       3.208   0.403  -0.842  0.00  0.00    -0.048 S 
ENDROOT
BRANCH   8  22
ATOM     22  C   UNL     1      -4.808   2.412   0.099  0.00  0.00    +0.130 C 
BRANCH  22  23
ATOM     23  C   UNL     1      -5.366   2.406  -1.326  0.00  0.00    +0.059 C 
BRANCH  23  24
ATOM     24  C   UNL     1      -6.822   2.020  -1.294  0.00  0.00    -0.021 A 
ATOM     25  C   UNL     1      -7.325   0.788  -1.473  0.00  0.00    +0.087 A 
ATOM     26  N   UNL     1      -8.690   0.823  -1.374  0.00  0.00    -0.360 N 
ATOM     27  H   UNL     1      -9.275   0.055  -1.467  0.00  0.00    +0.165 HD
ATOM     28  C   UNL     1      -9.108   2.110  -1.123  0.00  0.00    +0.047 A 
ATOM     29  C   UNL     1      -7.956   2.916  -1.056  0.00  0.00    +0.003 A 
ATOM     30  C   UNL     1      -8.076   4.283  -0.804  0.00  0.00    +0.010 A 
ATOM     31  C   UNL     1      -9.314   4.833  -0.620  0.00  0.00    +0.001 A 
ATOM     32  C   UNL     1     -10.453   4.043  -0.682  0.00  0.00    +0.002 A 
ATOM     33  C   UNL     1     -10.358   2.692  -0.936  0.00  0.00    +0.026 A 
ENDBRANCH  23  24
ENDBRANCH  22  23
ENDBRANCH   8  22
BRANCH   9  34
ATOM     34  C   UNL     1       1.461   4.787   0.090  0.00  0.00    +0.177 C 
BRANCH  34  35
ATOM     35  C   UNL     1       1.844   4.941   1.539  0.00  0.00    -0.026 A 
ATOM     36  C   UNL     1       1.036   5.670   2.393  0.00  0.00    +0.007 A 
ATOM     37  C   UNL     1       1.384   5.808   3.724  0.00  0.00    +0.020 A 
ATOM     38  C   UNL     1       2.545   5.225   4.199  0.00  0.00    +0.041 A 
ATOM     39  C   UNL     1       3.355   4.501   3.343  0.00  0.00    +0.020 A 
ATOM     40  C   UNL     1       3.004   4.359   2.014  0.00  0.00    +0.007 A 
ATOM     41 CL   UNL     1       2.985   5.403   5.869  0.00  0.00    -0.084 Cl
ENDBRANCH  34  35
ENDBRANCH   9  34
TORSDOF 5
