REMARK  Name = ZINC20203993
REMARK  7 active torsions:
REMARK  status: ('A' for Active; 'I' for Inactive)
REMARK    1  A    between atoms: C_1  and  C_2
REMARK    2  A    between atoms: C_2  and  C_3
REMARK    3  A    between atoms: C_3  and  C_20
REMARK    4  A    between atoms: N_6  and  C_10
REMARK    5  A    between atoms: C_10  and  C_11
REMARK    6  A    between atoms: N_23  and  C_26
REMARK    7  A    between atoms: C_26  and  C_27
REMARK                            x       y       z     vdW  Elec       q    Type
REMARK                         _______ _______ _______ _____ _____    ______ ____
ROOT
ATOM      1  C   UNL     1       3.211  -0.087  -3.479  0.00  0.00    +0.115 C 
ATOM      2  C   UNL     1       2.574  -0.281  -2.117  0.00  0.00    +0.247 C 
ATOM      3  O   UNL     1       1.907  -1.224  -1.748  0.00  0.00    -0.273 OA
ATOM      4  N   UNL     1       2.902   0.814  -1.403  0.00  0.00    -0.220 N 
ATOM      5  C   UNL     1       3.656   1.660  -2.114  0.00  0.00    +0.310 C 
ATOM      6  O   UNL     1       4.079   2.714  -1.682  0.00  0.00    -0.252 OA
ATOM      7  N   UNL     1       3.894   1.213  -3.360  0.00  0.00    -0.285 N 
ATOM      8  H   UNL     1       4.456   1.619  -4.214  0.00  0.00    +0.151 HD
ENDROOT
BRANCH   1   9
ATOM      9  C   UNL     1       4.220  -1.202  -3.760  0.00  0.00    +0.018 C 
ATOM     10  C   UNL     1       3.476  -2.521  -3.983  0.00  0.00    -0.013 C 
ATOM     11  C   UNL     1       4.493  -3.644  -4.201  0.00  0.00    -0.078 C 
ATOM     12  N   UNL     1       5.372  -3.747  -3.030  0.00  0.00    +0.382 N 
ATOM     13  C   UNL     1       6.132  -2.507  -2.826  0.00  0.00    -0.078 C 
ATOM     14  C   UNL     1       5.164  -1.351  -2.564  0.00  0.00    -0.013 C 
ATOM     15  H   UNL     1       4.736  -3.899  -2.146  0.00  0.00    -0.081 HD
BRANCH  12  16
ATOM     16  C   UNL     1       6.271  -4.902  -3.146  0.00  0.00    -0.041 C 
BRANCH  16  17
ATOM     17  C   UNL     1       5.463  -6.174  -3.107  0.00  0.00    -0.039 A 
ATOM     18  C   UNL     1       5.295  -6.981  -2.048  0.00  0.00    +0.085 A 
ATOM     19  N   UNL     1       4.495  -8.037  -2.388  0.00  0.00    -0.360 N 
ATOM     20  H   UNL     1       4.242  -8.800  -1.637  0.00  0.00    +0.165 HD
ATOM     21  C   UNL     1       4.127  -7.938  -3.712  0.00  0.00    +0.047 A 
ATOM     22  C   UNL     1       4.717  -6.766  -4.220  0.00  0.00    +0.001 A 
ATOM     23  C   UNL     1       4.515  -6.406  -5.553  0.00  0.00    +0.010 A 
ATOM     24  C   UNL     1       3.743  -7.195  -6.359  0.00  0.00    +0.001 A 
ATOM     25  C   UNL     1       3.158  -8.352  -5.862  0.00  0.00    +0.002 A 
ATOM     26  C   UNL     1       3.345  -8.726  -4.550  0.00  0.00    +0.026 A 
ENDBRANCH  16  17
ENDBRANCH  12  16
ENDBRANCH   1   9
BRANCH   1  28
ATOM     27  C   UNL     1       1.193   1.129  -4.311  0.00  0.00    +0.006 C 
ATOM     28  C   UNL     1       2.146  -0.037  -4.577  0.00  0.00    +0.032 C 
ENDBRANCH   1  28
BRANCH   4  29
ATOM     29  C   UNL     1       2.489   1.045  -0.016  0.00  0.00    +0.153 C 
BRANCH  29  30
ATOM     30  C   UNL     1       1.175   1.783   0.000  0.00  0.00    -0.026 A 
ATOM     31  C   UNL     1       1.160   3.165   0.008  0.00  0.00    +0.009 A 
ATOM     32  C   UNL     1      -0.043   3.846   0.023  0.00  0.00    +0.050 A 
ATOM     33  C   UNL     1      -1.237   3.144   0.030  0.00  0.00    +0.166 A 
ATOM     34  C   UNL     1      -1.222   1.752   0.017  0.00  0.00    +0.167 A 
ATOM     35  C   UNL     1      -0.013   1.076   0.008  0.00  0.00    +0.054 A 
ATOM     36  O   UNL     1      -2.510   1.302   0.031  0.00  0.00    -0.453 OA
ATOM     37  C   UNL     1      -3.307   2.423   0.456  0.00  0.00    +0.466 C 
ATOM     38  O   UNL     1      -2.535   3.567   0.044  0.00  0.00    -0.453 OA
ENDBRANCH  29  30
ENDBRANCH   4  29
TORSDOF 6
