REMARK  Name = ZINC59513575
REMARK  11 active torsions:
REMARK  status: ('A' for Active; 'I' for Inactive)
REMARK    1  A    between atoms: C_1  and  C_2
REMARK    2  A    between atoms: C_5  and  N_8
REMARK    3  A    between atoms: N_8  and  C_9
REMARK    4  A    between atoms: N_12  and  C_13
REMARK    5  A    between atoms: C_14  and  C_15
REMARK    6  A    between atoms: C_14  and  N_16
REMARK    7  A    between atoms: N_16  and  C_17
REMARK    8  A    between atoms: C_19  and  C_25
REMARK    9  A    between atoms: C_19  and  C_26
REMARK   10  A    between atoms: C_21  and  C_23
REMARK   11  A    between atoms: C_21  and  C_24
REMARK                            x       y       z     vdW  Elec       q    Type
REMARK                         _______ _______ _______ _____ _____    ______ ____
ROOT
ATOM      1  C   UNL     1       0.420  -7.178   5.119  0.00  0.00    +0.131 C 
ATOM      2  C   UNL     1       0.464  -7.477   6.424  0.00  0.00    +0.019 C 
ATOM      3  C   UNL     1       0.551  -6.373   7.447  0.00  0.00    +0.062 C 
ENDROOT
BRANCH   1   7
ATOM      4  C   UNL     1       0.350  -4.722   1.257  0.00  0.00    +0.188 C 
ATOM      5  N   UNL     1       0.417  -4.479   2.592  0.00  0.00    -0.198 NA
ATOM      6  C   UNL     1       0.410  -5.589   3.439  0.00  0.00    +0.198 C 
ATOM      7  N   UNL     1       0.453  -5.880   4.716  0.00  0.00    -0.228 NA
ATOM      8  S   UNL     1       0.303  -6.394   1.859  0.00  0.00    -0.013 S 
BRANCH   4   9
ATOM      9  N   UNL     1       0.325  -4.039   0.071  0.00  0.00    -0.190 NA
BRANCH   9  14
ATOM     10  C   UNL     1       0.577   1.627   0.058  0.00  0.00    +0.044 C 
ATOM     11  C   UNL     1       0.510   0.122   0.061  0.00  0.00    -0.050 A 
ATOM     12  C   UNL     1       0.425  -0.568  -1.135  0.00  0.00    +0.005 A 
ATOM     13  C   UNL     1       0.363  -1.947  -1.135  0.00  0.00    +0.025 A 
ATOM     14  C   UNL     1       0.388  -2.643   0.068  0.00  0.00    +0.056 A 
ATOM     15  C   UNL     1       0.475  -1.947   1.267  0.00  0.00    +0.025 A 
ATOM     16  C   UNL     1       0.541  -0.567   1.260  0.00  0.00    +0.005 A 
ENDBRANCH   9  14
ENDBRANCH   4   9
ENDBRANCH   1   7
BRANCH   2  17
ATOM     17  N   UNL     1       0.430  -8.803   6.835  0.00  0.00    -0.343 N 
ATOM     18  H   UNL     1       0.374  -9.513   6.177  0.00  0.00    +0.146 HD
BRANCH  17  19
ATOM     19  C   UNL     1       0.478  -9.129   8.266  0.00  0.00    +0.068 C 
ATOM     20  C   UNL     1       1.939  -9.218   8.712  0.00  0.00    +0.009 C 
ATOM     21  C   UNL     1       2.006  -9.570  10.198  0.00  0.00    -0.072 C 
ATOM     22  N   UNL     1       1.254 -10.775  10.510  0.00  0.00    +0.386 N 
ATOM     23  C   UNL     1      -0.088 -10.895   9.962  0.00  0.00    -0.072 C 
ATOM     24  C   UNL     1      -0.176 -10.492   8.494  0.00  0.00    +0.009 C 
ATOM     25  C   UNL     1      -1.108 -10.103  10.784  0.00  0.00    -0.010 C 
ATOM     26  C   UNL     1      -0.495 -12.385  10.053  0.00  0.00    -0.010 C 
ATOM     27  C   UNL     1       1.561  -8.377  11.044  0.00  0.00    -0.010 C 
ATOM     28  C   UNL     1       3.490  -9.844  10.537  0.00  0.00    -0.010 C 
ATOM     29  H   UNL     1       1.800 -11.584  10.202  0.00  0.00    -0.084 HD
ATOM     30  H   UNL     1       1.195 -10.863  11.528  0.00  0.00    -0.084 HD
ENDBRANCH  17  19
ENDBRANCH   2  17
TORSDOF 5
