REMARK  Name = ZINC15184270
REMARK  7 active torsions:
REMARK  status: ('A' for Active; 'I' for Inactive)
REMARK    1  A    between atoms: C_10  and  N_12
REMARK    2  A    between atoms: C_13  and  C_15
REMARK    3  A    between atoms: C_15  and  S_16
REMARK    4  A    between atoms: S_16  and  C_17
REMARK    5  A    between atoms: C_20  and  C_29
REMARK    6  A    between atoms: N_21  and  C_22
REMARK    7  A    between atoms: C_22  and  C_23
REMARK                            x       y       z     vdW  Elec       q    Type
REMARK                         _______ _______ _______ _____ _____    ______ ____
ROOT
ATOM      1  C   UNL     1       7.946   3.914   1.889  0.00  0.00    +0.192 A 
ATOM      2  N   UNL     1       8.178   3.323   3.038  0.00  0.00    -0.122 NA
ATOM      3  N   UNL     1       9.042   3.993   3.713  0.00  0.00    -0.128 NA
ATOM      4  C   UNL     1       9.409   5.059   3.040  0.00  0.00    +0.167 A 
ATOM      5  N   UNL     1       8.718   5.042   1.850  0.00  0.00    -0.300 N 
ENDROOT
BRANCH   4   6
ATOM      6  C   UNL     1      10.379   6.083   3.478  0.00  0.00    +0.044 A 
ATOM      7  C   UNL     1      11.398   6.601   2.745  0.00  0.00    +0.095 A 
ATOM      8  N   UNL     1      12.078   7.522   3.488  0.00  0.00    -0.360 N 
ATOM      9  H   UNL     1      12.846   8.027   3.178  0.00  0.00    +0.165 HD
ATOM     10  C   UNL     1      11.514   7.633   4.741  0.00  0.00    +0.047 A 
ATOM     11  C   UNL     1      10.426   6.745   4.793  0.00  0.00    +0.010 A 
ATOM     12  C   UNL     1       9.666   6.640   5.956  0.00  0.00    +0.011 A 
ATOM     13  C   UNL     1       9.981   7.418   7.049  0.00  0.00    +0.001 A 
ATOM     14  C   UNL     1      11.052   8.298   6.997  0.00  0.00    +0.002 A 
ATOM     15  C   UNL     1      11.816   8.409   5.856  0.00  0.00    +0.026 A 
ENDBRANCH   4   6
BRANCH   1  16
ATOM     16  S   UNL     1       6.840   3.361   0.634  0.00  0.00    -0.077 S 
BRANCH  16  17
ATOM     17  C   UNL     1       6.217   1.848   1.408  0.00  0.00    +0.173 C 
BRANCH  17  19
ATOM     18  N   UNL     1       4.627   0.035   0.857  0.00  0.00    -0.308 N 
ATOM     19  C   UNL     1       5.225   1.185   0.487  0.00  0.00    +0.224 C 
ATOM     20  O   UNL     1       4.964   1.686  -0.586  0.00  0.00    -0.275 OA
ATOM     21  H   UNL     1       4.835  -0.366   1.716  0.00  0.00    +0.149 HD
BRANCH  18  31
ATOM     22  C   UNL     1      -0.129   1.296   0.503  0.00  0.00    +0.000 A 
ATOM     23  C   UNL     1       1.037   2.039   0.456  0.00  0.00    +0.000 A 
ATOM     24  C   UNL     1       2.248   1.402   0.284  0.00  0.00    +0.006 A 
ATOM     25  C   UNL     1       2.307   0.020   0.157  0.00  0.00    -0.024 A 
ATOM     26  C   UNL     1       1.147  -0.720   0.208  0.00  0.00    -0.042 A 
ATOM     27  C   UNL     1      -0.072  -0.076   0.381  0.00  0.00    +0.004 A 
ATOM     28  C   UNL     1       1.137  -2.221   0.087  0.00  0.00    +0.035 C 
ATOM     29  C   UNL     1       2.448  -2.721  -0.516  0.00  0.00    +0.007 C 
ATOM     30  C   UNL     1       3.609  -2.104   0.272  0.00  0.00    +0.027 C 
ATOM     31  C   UNL     1       3.662  -0.610  -0.037  0.00  0.00    +0.103 C 
ENDBRANCH  18  31
ENDBRANCH  17  19
ENDBRANCH  16  17
ENDBRANCH   1  16
BRANCH   5  32
ATOM     32  C   UNL     1       8.794   6.027   0.768  0.00  0.00    +0.157 C 
BRANCH  32  33
ATOM     33  C   UNL     1       7.669   7.051   0.930  0.00  0.00    +0.138 C 
ATOM     34  C   UNL     1       7.667   8.021  -0.270  0.00  0.00    +0.035 C 
ATOM     35  C   UNL     1       7.345   9.382   0.408  0.00  0.00    +0.031 C 
ATOM     36  C   UNL     1       8.061   9.209   1.771  0.00  0.00    +0.160 C 
ATOM     37  O   UNL     1       7.884   7.826   2.115  0.00  0.00    -0.375 OA
ENDBRANCH  32  33
ENDBRANCH   5  32
TORSDOF 7
