REMARK  Name = ZINC35971659
REMARK  11 active torsions:
REMARK  status: ('A' for Active; 'I' for Inactive)
REMARK    1  A    between atoms: C_1  and  C_2
REMARK    2  A    between atoms: C_2  and  C_3
REMARK    3  A    between atoms: C_2  and  C_4
REMARK    4  A    between atoms: C_4  and  N_5
REMARK    5  A    between atoms: C_6  and  C_8
REMARK    6  A    between atoms: C_8  and  C_10
REMARK    7  A    between atoms: C_8  and  N_16
REMARK    8  A    between atoms: C_22  and  C_31
REMARK    9  A    between atoms: N_27  and  C_28
REMARK   10  A    between atoms: C_28  and  C_29
REMARK   11  A    between atoms: C_36  and  C_37
REMARK                            x       y       z     vdW  Elec       q    Type
REMARK                         _______ _______ _______ _____ _____    ______ ____
ROOT
ATOM      1  N   UNL     1      -5.262  -0.845  -2.955  0.00  0.00    -0.277 N 
ATOM      2  C   UNL     1      -6.437   0.026  -3.107  0.00  0.00    +0.160 C 
ATOM      3  C   UNL     1      -7.626  -0.888  -2.912  0.00  0.00    +0.043 C 
ATOM      4  C   UNL     1      -7.125  -2.118  -2.679  0.00  0.00    +0.058 C 
ATOM      5  C   UNL     1      -5.715  -2.087  -2.711  0.00  0.00    +0.247 C 
ATOM      6  O   UNL     1      -5.002  -3.059  -2.538  0.00  0.00    -0.270 OA
ATOM      7  C   UNL     1      -8.108  -3.247  -2.445  0.00  0.00    +0.142 C 
ATOM      8  N   UNL     1      -9.540  -2.904  -2.490  0.00  0.00    -0.288 N 
ATOM      9  C   UNL     1      -9.886  -1.624  -2.734  0.00  0.00    +0.307 C 
ATOM     10  O   UNL     1     -11.065  -1.331  -2.773  0.00  0.00    -0.252 OA
ATOM     11  N   UNL     1      -8.973  -0.665  -2.935  0.00  0.00    -0.253 N 
ATOM     12  H   UNL     1     -10.217  -3.583  -2.347  0.00  0.00    +0.151 HD
ENDROOT
BRANCH   7  13
ATOM     13  C   UNL     1      -7.816  -3.843  -1.092  0.00  0.00    -0.011 A 
ATOM     14  C   UNL     1      -8.122  -3.136   0.056  0.00  0.00    +0.006 A 
ATOM     15  C   UNL     1      -7.855  -3.683   1.297  0.00  0.00    +0.000 A 
ATOM     16  C   UNL     1      -7.282  -4.938   1.390  0.00  0.00    +0.001 A 
ATOM     17  C   UNL     1      -6.977  -5.645   0.242  0.00  0.00    +0.013 A 
ATOM     18  C   UNL     1      -7.248  -5.100  -0.999  0.00  0.00    +0.060 A 
BRANCH  18  19
ATOM     19  C   UNL     1      -6.921  -5.873  -2.250  0.00  0.00    +0.418 C 
ATOM     20  F   UNL     1      -6.283  -7.070  -1.905  0.00  0.00    -0.166 F 
ATOM     21  F   UNL     1      -8.102  -6.158  -2.944  0.00  0.00    -0.166 F 
ATOM     22  F   UNL     1      -6.075  -5.111  -3.061  0.00  0.00    -0.166 F 
ENDBRANCH  18  19
ENDBRANCH   7  13
BRANCH   1  23
ATOM     23  C   UNL     1      -3.858  -0.436  -3.056  0.00  0.00    +0.193 C 
BRANCH  23  24
ATOM     24  C   UNL     1      -3.191  -0.595  -1.714  0.00  0.00    -0.018 A 
ATOM     25  C   UNL     1      -3.827  -0.153  -0.570  0.00  0.00    +0.006 A 
ATOM     26  C   UNL     1      -3.215  -0.298   0.661  0.00  0.00    +0.000 A 
ATOM     27  C   UNL     1      -1.967  -0.887   0.747  0.00  0.00    +0.000 A 
ATOM     28  C   UNL     1      -1.331  -1.330  -0.398  0.00  0.00    +0.000 A 
ATOM     29  C   UNL     1      -1.945  -1.188  -1.628  0.00  0.00    +0.006 A 
ENDBRANCH  23  24
BRANCH  23  31
ATOM     30  N   UNL     1      -2.587   1.602  -3.646  0.00  0.00    -0.313 N 
ATOM     31  C   UNL     1      -3.785   1.006  -3.486  0.00  0.00    +0.238 C 
ATOM     32  O   UNL     1      -4.804   1.632  -3.688  0.00  0.00    -0.273 OA
ATOM     33  H   UNL     1      -1.771   1.102  -3.485  0.00  0.00    +0.149 HD
BRANCH  30  34
ATOM     34  C   UNL     1      -2.515   3.004  -4.064  0.00  0.00    +0.107 C 
BRANCH  34  36
ATOM     35  C   UNL     1      -0.367   2.640  -5.288  0.00  0.00    +0.009 C 
ATOM     36  C   UNL     1      -1.050   3.431  -4.170  0.00  0.00    -0.000 C 
ATOM     37  C   UNL     1      -0.975   4.926  -4.484  0.00  0.00    +0.009 C 
ENDBRANCH  34  36
ENDBRANCH  30  34
ENDBRANCH  23  31
ENDBRANCH   1  23
BRANCH  11  38
ATOM     38  C   UNL     1      -9.445   0.697  -3.193  0.00  0.00    +0.141 C 
BRANCH  38  39
ATOM     39  C   UNL     1      -9.628   0.893  -4.676  0.00  0.00    -0.015 C 
ATOM     40  C   UNL     1     -10.782   1.299  -5.145  0.00  0.00    +0.005 C 
ENDBRANCH  38  39
ENDBRANCH  11  38
TORSDOF 9
