REMARK  Name = ZINC09019389
REMARK  12 active torsions:
REMARK  status: ('A' for Active; 'I' for Inactive)
REMARK    1  A    between atoms: C_1  and  C_2
REMARK    2  A    between atoms: C_4  and  C_13
REMARK    3  A    between atoms: C_7  and  O_8
REMARK    4  A    between atoms: O_8  and  C_9
REMARK    5  A    between atoms: C_9  and  C_10
REMARK    6  A    between atoms: C_10  and  C_11
REMARK    7  A    between atoms: C_10  and  C_12
REMARK    8  A    between atoms: C_13  and  C_15
REMARK    9  A    between atoms: N_19  and  C_31
REMARK   10  A    between atoms: C_20  and  C_22
REMARK   11  A    between atoms: C_25  and  N_28
REMARK   12  A    between atoms: C_31  and  C_32
REMARK                            x       y       z     vdW  Elec       q    Type
REMARK                         _______ _______ _______ _____ _____    ______ ____
ROOT
ATOM      1  C   UNL     1       3.151   1.155   1.328  0.00  0.00    +0.076 C 
ATOM      2  C   UNL     1       4.340   1.765   1.113  0.00  0.00    +0.249 C 
ATOM      3  C   UNL     1       4.466   2.090  -0.323  0.00  0.00    +0.288 C 
ATOM      4  O   UNL     1       5.422   2.642  -0.832  0.00  0.00    -0.266 OA
ATOM      5  N   UNL     1       3.366   1.684  -0.985  0.00  0.00    -0.279 N 
ATOM      6  C   UNL     1       2.456   1.070  -0.011  0.00  0.00    +0.145 C 
ATOM      7  O   UNL     1       5.266   2.034   2.062  0.00  0.00    -0.282 OA
ENDROOT
BRANCH   6   8
ATOM      8  C   UNL     1       1.154   1.827   0.031  0.00  0.00    -0.022 A 
ATOM      9  C   UNL     1      -0.046   1.143  -0.044  0.00  0.00    +0.008 A 
ATOM     10  C   UNL     1      -1.240   1.838  -0.011  0.00  0.00    +0.033 A 
ATOM     11  C   UNL     1      -1.236   3.215   0.108  0.00  0.00    +0.126 A 
ATOM     12  C   UNL     1      -0.036   3.898   0.184  0.00  0.00    +0.033 A 
ATOM     13  C   UNL     1       1.158   3.204   0.145  0.00  0.00    +0.008 A 
BRANCH  11  14
ATOM     14  N   UNL     1      -2.515   3.959   0.150  0.00  0.00    +0.056 N 
ATOM     15  O   UNL     1      -2.511   5.172   0.250  0.00  0.00    -0.126 OA
ATOM     16  O   UNL     1      -3.572   3.357   0.084  0.00  0.00    -0.126 OA
ENDBRANCH  11  14
ENDBRANCH   6   8
BRANCH   1  17
ATOM     17  C   UNL     1       2.635   0.672   2.613  0.00  0.00    +0.195 C 
ATOM     18  O   UNL     1       2.369   1.463   3.499  0.00  0.00    -0.287 OA
BRANCH  17  22
ATOM     19  C   UNL     1       1.016  -3.073   5.481  0.00  0.00    +0.047 C 
ATOM     20  C   UNL     1       1.661  -2.581   4.212  0.00  0.00    -0.008 A 
ATOM     21  C   UNL     1       1.841  -1.230   4.011  0.00  0.00    +0.018 A 
ATOM     22  C   UNL     1       2.440  -0.775   2.833  0.00  0.00    +0.023 A 
ATOM     23  C   UNL     1       2.849  -1.693   1.860  0.00  0.00    +0.015 A 
ATOM     24  C   UNL     1       2.670  -3.041   2.071  0.00  0.00    +0.046 A 
ATOM     25  C   UNL     1       2.073  -3.490   3.244  0.00  0.00    +0.123 A 
BRANCH  25  26
ATOM     26  O   UNL     1       1.893  -4.820   3.446  0.00  0.00    -0.491 OA
BRANCH  26  27
ATOM     27  C   UNL     1       2.340  -5.699   2.412  0.00  0.00    +0.232 C 
BRANCH  27  28
ATOM     28  C   UNL     1       2.055  -7.147   2.815  0.00  0.00    +0.020 C 
ATOM     29  C   UNL     1       2.418  -8.080   1.658  0.00  0.00    +0.010 C 
ATOM     30  C   UNL     1       2.893  -7.509   4.043  0.00  0.00    +0.010 C 
ENDBRANCH  27  28
ENDBRANCH  26  27
ENDBRANCH  25  26
ENDBRANCH  17  22
ENDBRANCH   1  17
BRANCH   5  31
ATOM     31  C   UNL     1       3.119   1.830  -2.422  0.00  0.00    +0.145 C 
BRANCH  31  32
ATOM     32  C   UNL     1       2.429   3.143  -2.683  0.00  0.00    -0.012 A 
ATOM     33  C   UNL     1       1.045   3.221  -2.682  0.00  0.00    +0.008 A 
ATOM     34  C   UNL     1       0.453   4.452  -2.922  0.00  0.00    +0.020 A 
ATOM     35  C   UNL     1       1.257   5.550  -3.163  0.00  0.00    +0.111 A 
ATOM     36  N   UNL     1       2.571   5.438  -3.161  0.00  0.00    -0.263 NA
ATOM     37  C   UNL     1       3.168   4.285  -2.932  0.00  0.00    +0.115 A 
ENDBRANCH  31  32
ENDBRANCH   5  31
TORSDOF 9
