REMARK  Name = ZINC50632883
REMARK  8 active torsions:
REMARK  status: ('A' for Active; 'I' for Inactive)
REMARK    1  A    between atoms: C_1  and  C_2
REMARK    2  A    between atoms: C_2  and  C_3
REMARK    3  A    between atoms: C_3  and  C_4
REMARK    4  A    between atoms: C_4  and  C_6
REMARK    5  A    between atoms: C_4  and  N_7
REMARK    6  A    between atoms: N_7  and  S_8
REMARK    7  A    between atoms: S_8  and  C_11
REMARK    8  A    between atoms: C_16  and  N_17
REMARK                            x       y       z     vdW  Elec       q    Type
REMARK                         _______ _______ _______ _____ _____    ______ ____
ROOT
ATOM      1  S   UNL     1       0.031  -4.019   1.280  0.00  0.00    +0.062 S 
ATOM      2  O   UNL     1       0.426  -4.377   2.597  0.00  0.00    -0.153 OA
ATOM      3  O   UNL     1      -0.798  -4.851   0.480  0.00  0.00    -0.153 OA
ENDROOT
BRANCH   1   4
ATOM      4  C   UNL     1       1.513  -3.754   0.364  0.00  0.00    +0.146 A 
ATOM      5  C   UNL     1       1.690  -4.352  -0.871  0.00  0.00    +0.048 A 
ATOM      6  C   UNL     1       2.873  -4.116  -1.558  0.00  0.00    +0.038 A 
ATOM      7  C   UNL     1       3.832  -3.297  -0.993  0.00  0.00    +0.128 A 
ATOM      8  N   UNL     1       3.635  -2.740   0.187  0.00  0.00    -0.238 NA
ATOM      9  C   UNL     1       2.518  -2.936   0.870  0.00  0.00    +0.143 A 
ATOM     10 BR   UNL     1       3.171  -4.907  -3.250  0.00  0.00    -0.049 Br
BRANCH   9  11
ATOM     11  N   UNL     1       2.350  -2.324   2.107  0.00  0.00    -0.342 N 
ATOM     12  H   UNL     1       1.503  -2.398   2.574  0.00  0.00    +0.144 HD
ATOM     13  H   UNL     1       3.079  -1.822   2.503  0.00  0.00    +0.144 HD
ENDBRANCH   9  11
ENDBRANCH   1   4
BRANCH   1  14
ATOM     14  N   UNL     1      -0.739  -2.558   1.398  0.00  0.00    -0.187 NA
ATOM     15  H   UNL     1      -0.844  -2.133   2.264  0.00  0.00    +0.148 HD
BRANCH  14  16
ATOM     16  C   UNL     1      -1.263  -1.906   0.195  0.00  0.00    +0.073 C 
ATOM     17  C   UNL     1      -2.740  -2.267   0.022  0.00  0.00    +0.025 C 
BRANCH  16  18
ATOM     18  C   UNL     1      -1.122  -0.389   0.334  0.00  0.00    +0.020 C 
BRANCH  18  20
ATOM     19  C   UNL     1       0.503   1.499   0.520  0.00  0.00    +0.004 C 
ATOM     20  C   UNL     1       0.362  -0.018   0.382  0.00  0.00    -0.002 C 
ENDBRANCH  18  20
ENDBRANCH  16  18
ENDBRANCH  14  16
ENDBRANCH   1  14
TORSDOF 6
