REMARK  Name = ZINC39596204
REMARK  12 active torsions:
REMARK  status: ('A' for Active; 'I' for Inactive)
REMARK    1  A    between atoms: C_1  and  C_2
REMARK    2  A    between atoms: C_2  and  C_3
REMARK    3  A    between atoms: C_3  and  C_4
REMARK    4  A    between atoms: C_4  and  C_5
REMARK    5  A    between atoms: C_5  and  C_6
REMARK    6  A    between atoms: C_6  and  C_7
REMARK    7  A    between atoms: C_11  and  C_20
REMARK    8  A    between atoms: N_22  and  C_23
REMARK    9  A    between atoms: C_23  and  C_24
REMARK   10  A    between atoms: C_24  and  C_26
REMARK   11  A    between atoms: C_24  and  O_27
REMARK   12  A    between atoms: O_27  and  C_28
REMARK                            x       y       z     vdW  Elec       q    Type
REMARK                         _______ _______ _______ _____ _____    ______ ____
ROOT
ATOM      1  C   UNL     1      -6.377  -5.401  -1.078  0.00  0.00    +0.216 C 
ATOM      2  O   UNL     1      -7.492  -4.928  -1.143  0.00  0.00    -0.276 OA
ATOM      3  N   UNL     1      -6.217  -6.724  -0.883  0.00  0.00    -0.300 N 
ATOM      4  C   UNL     1      -4.947  -7.479  -0.770  0.00  0.00    +0.121 C 
ATOM      5  C   UNL     1      -5.210  -8.522   0.340  0.00  0.00    +0.100 C 
ATOM      6  C   UNL     1      -6.737  -8.700   0.356  0.00  0.00    -0.004 C 
ATOM      7  C   UNL     1      -7.273  -7.754  -0.728  0.00  0.00    +0.115 C 
ATOM      8  C   UNL     1      -7.300  -8.304   1.718  0.00  0.00    -0.010 C 
ATOM      9  C   UNL     1      -8.813  -8.544   1.729  0.00  0.00    -0.082 C 
ATOM     10  N   UNL     1      -9.087  -9.960   1.456  0.00  0.00    +0.379 N 
ATOM     11  C   UNL     1      -8.625 -10.309   0.108  0.00  0.00    -0.082 C 
ATOM     12  C   UNL     1      -7.105 -10.144   0.028  0.00  0.00    -0.010 C 
ATOM     13  H   UNL     1      -8.605 -10.531   2.134  0.00  0.00    -0.086 HD
ATOM     14  H   UNL     1     -10.080 -10.128   1.524  0.00  0.00    -0.086 HD
ENDROOT
BRANCH   5  15
ATOM     15  C   UNL     1      -4.531  -9.825   0.006  0.00  0.00    +0.218 C 
ATOM     16  O   UNL     1      -4.388 -10.155  -1.152  0.00  0.00    -0.275 OA
ATOM     17  N   UNL     1      -4.082 -10.624   0.995  0.00  0.00    -0.312 N 
ATOM     18  H   UNL     1      -4.196 -10.359   1.921  0.00  0.00    +0.149 HD
BRANCH  17  19
ATOM     19  C   UNL     1      -3.422 -11.891   0.671  0.00  0.00    +0.148 C 
BRANCH  19  20
ATOM     20  C   UNL     1      -3.013 -12.598   1.964  0.00  0.00    +0.187 C 
ATOM     21  C   UNL     1      -2.214 -13.858   1.625  0.00  0.00    +0.053 C 
BRANCH  20  22
ATOM     22  O   UNL     1      -4.183 -12.959   2.700  0.00  0.00    -0.488 OA
BRANCH  22  23
ATOM     23  C   UNL     1      -4.047 -13.102   4.045  0.00  0.00    +0.121 A 
ATOM     24  C   UNL     1      -2.793 -13.004   4.630  0.00  0.00    +0.048 A 
ATOM     25  C   UNL     1      -2.656 -13.149   5.997  0.00  0.00    +0.042 A 
ATOM     26  C   UNL     1      -3.769 -13.394   6.783  0.00  0.00    +0.124 A 
ATOM     27  C   UNL     1      -5.021 -13.493   6.200  0.00  0.00    +0.042 A 
ATOM     28  C   UNL     1      -5.162 -13.341   4.834  0.00  0.00    +0.048 A 
ATOM     29  F   UNL     1      -3.634 -13.537   8.119  0.00  0.00    -0.205 F 
ENDBRANCH  22  23
ENDBRANCH  20  22
ENDBRANCH  19  20
ENDBRANCH  17  19
ENDBRANCH   5  15
BRANCH   1  30
ATOM     30  C   UNL     1      -5.171  -4.508  -1.213  0.00  0.00    +0.096 C 
BRANCH  30  31
ATOM     31  C   UNL     1      -5.627  -3.062  -1.424  0.00  0.00    +0.009 C 
BRANCH  31  32
ATOM     32  C   UNL     1      -4.402  -2.156  -1.562  0.00  0.00    +0.000 C 
BRANCH  32  33
ATOM     33  C   UNL     1      -4.859  -0.711  -1.773  0.00  0.00    -0.000 C 
BRANCH  33  35
ATOM     34  C   UNL     1      -4.090   1.641  -2.121  0.00  0.00    +0.004 C 
ATOM     35  C   UNL     1      -3.634   0.196  -1.910  0.00  0.00    -0.003 C 
ENDBRANCH  33  35
ENDBRANCH  32  33
ENDBRANCH  31  32
ENDBRANCH  30  31
ENDBRANCH   1  30
TORSDOF 10
