REMARK  Name = ZINC44266169
REMARK  2 active torsions:
REMARK  status: ('A' for Active; 'I' for Inactive)
REMARK    1  A    between atoms: C_4  and  C_8
REMARK    2  A    between atoms: C_8  and  C_9
REMARK                            x       y       z     vdW  Elec       q    Type
REMARK                         _______ _______ _______ _____ _____    ______ ____
ROOT
ATOM      1  C   UNL     1       4.166  -0.960   1.376  0.00  0.00    +0.114 A 
ATOM      2  N   UNL     1       5.330  -1.604   1.591  0.00  0.00    -0.310 N 
ATOM      3  H   UNL     1       5.871  -1.897   0.842  0.00  0.00    +0.170 HD
ATOM      4  C   UNL     1       5.739  -1.839   2.855  0.00  0.00    +0.255 A 
ATOM      5  O   UNL     1       6.788  -2.423   3.068  0.00  0.00    -0.268 OA
ATOM      6  C   UNL     1       4.931  -1.396   3.929  0.00  0.00    +0.038 A 
ATOM      7  C   UNL     1       3.776  -0.745   3.648  0.00  0.00    +0.052 A 
ATOM      8  N   UNL     1       3.427  -0.546   2.367  0.00  0.00    -0.238 NA
ATOM      9  C   UNL     1       2.861  -0.215   4.719  0.00  0.00    +0.056 C 
ATOM     10  C   UNL     1       3.159  -0.883   6.060  0.00  0.00    +0.006 C 
ATOM     11  C   UNL     1       4.665  -0.778   6.329  0.00  0.00    +0.005 C 
ATOM     12  C   UNL     1       5.395  -1.677   5.331  0.00  0.00    +0.042 C 
ENDROOT
BRANCH   1  13
ATOM     13  C   UNL     1       3.713  -0.707  -0.038  0.00  0.00    +0.112 C 
BRANCH  13  17
ATOM     14  C   UNL     1      -0.017   1.378   0.010  0.00  0.00    +0.003 A 
ATOM     15  C   UNL     1       1.171   2.086   0.002  0.00  0.00    +0.020 A 
ATOM     16  C   UNL     1       2.378   1.411  -0.013  0.00  0.00    +0.046 A 
ATOM     17  C   UNL     1       2.398   0.028  -0.021  0.00  0.00    -0.004 A 
ATOM     18  C   UNL     1       1.209  -0.680  -0.013  0.00  0.00    +0.046 A 
ATOM     19  C   UNL     1       0.002  -0.004   0.002  0.00  0.00    +0.020 A 
ATOM     20 CL   UNL     1       1.233  -2.416  -0.023  0.00  0.00    -0.083 Cl
ATOM     21 CL   UNL     1       3.869   2.300  -0.024  0.00  0.00    -0.083 Cl
ENDBRANCH  13  17
ENDBRANCH   1  13
TORSDOF 2
