REMARK  Name = ZINC22831170
REMARK  6 active torsions:
REMARK  status: ('A' for Active; 'I' for Inactive)
REMARK    1  A    between atoms: C_3  and  N_14
REMARK    2  A    between atoms: C_4  and  N_11
REMARK    3  A    between atoms: C_6  and  C_7
REMARK    4  A    between atoms: N_17  and  C_20
REMARK    5  A    between atoms: C_20  and  N_22
REMARK    6  A    between atoms: C_23  and  C_25
REMARK                            x       y       z     vdW  Elec       q    Type
REMARK                         _______ _______ _______ _____ _____    ______ ____
ROOT
ATOM      1  N   UNL     1       3.571   2.132  -0.024  0.00  0.00    -0.325 N 
ATOM      2  C   UNL     1       4.199   2.525  -1.293  0.00  0.00    +0.124 C 
ATOM      3  C   UNL     1       4.423   4.042  -1.280  0.00  0.00    +0.125 C 
ATOM      4  N   UNL     1       5.083   4.409  -0.019  0.00  0.00    -0.309 N 
ATOM      5  C   UNL     1       4.455   4.016   1.250  0.00  0.00    +0.125 C 
ATOM      6  C   UNL     1       4.228   2.503   1.237  0.00  0.00    +0.124 C 
ENDROOT
BRANCH   1   9
ATOM      7  C   UNL     1      -0.030   1.402   0.008  0.00  0.00    +0.014 A 
ATOM      8  C   UNL     1       1.158   2.106   0.001  0.00  0.00    +0.026 A 
ATOM      9  C   UNL     1       2.367   1.423  -0.016  0.00  0.00    +0.060 A 
ATOM     10  C   UNL     1       2.377   0.034  -0.026  0.00  0.00    +0.148 A 
ATOM     11  C   UNL     1       1.186  -0.663  -0.018  0.00  0.00    +0.047 A 
ATOM     12  C   UNL     1      -0.017   0.019  -0.002  0.00  0.00    +0.057 A 
BRANCH  12  13
ATOM     13  C   UNL     1      -1.315  -0.745   0.006  0.00  0.00    +0.417 C 
ATOM     14  F   UNL     1      -2.386   0.155   0.023  0.00  0.00    -0.166 F 
ATOM     15  F   UNL     1      -1.394  -1.543  -1.141  0.00  0.00    -0.166 F 
ATOM     16  F   UNL     1      -1.371  -1.558   1.143  0.00  0.00    -0.166 F 
ENDBRANCH  12  13
BRANCH  10  17
ATOM     17  N   UNL     1       3.664  -0.698  -0.044  0.00  0.00    +0.058 N 
ATOM     18  O   UNL     1       3.672  -1.906  -0.052  0.00  0.00    -0.126 OA
ATOM     19  O   UNL     1       4.707  -0.086  -0.051  0.00  0.00    -0.126 OA
ENDBRANCH  10  17
ENDBRANCH   1   9
BRANCH   4  20
ATOM     20  C   UNL     1       6.245   5.093  -0.027  0.00  0.00    +0.139 C 
ATOM     21  S   UNL     1       7.032   5.426  -1.510  0.00  0.00    -0.018 S 
BRANCH  20  22
ATOM     22  N   UNL     1       6.786   5.514   1.133  0.00  0.00    -0.264 N 
ATOM     23  C   UNL     1       7.890   6.287   1.121  0.00  0.00    +0.251 C 
ATOM     24  O   UNL     1       8.397   6.605   0.063  0.00  0.00    -0.270 OA
ATOM     25  H   UNL     1       6.382   5.260   1.978  0.00  0.00    +0.157 HD
BRANCH  23  26
ATOM     26  C   UNL     1       8.483   6.749   2.392  0.00  0.00    +0.057 A 
ATOM     27  C   UNL     1       7.907   6.381   3.609  0.00  0.00    +0.034 A 
ATOM     28  C   UNL     1       8.466   6.816   4.793  0.00  0.00    +0.042 A 
ATOM     29  C   UNL     1       9.597   7.616   4.777  0.00  0.00    +0.021 A 
ATOM     30  C   UNL     1      10.173   7.985   3.575  0.00  0.00    +0.022 A 
ATOM     31  C   UNL     1       9.627   7.551   2.382  0.00  0.00    +0.053 A 
ATOM     32 CL   UNL     1      10.357   8.008   0.874  0.00  0.00    -0.083 Cl
ATOM     33 CL   UNL     1       7.751   6.360   6.308  0.00  0.00    -0.084 Cl
ENDBRANCH  23  26
ENDBRANCH  20  22
ENDBRANCH   4  20
TORSDOF 6
