REMARK  Name = ZINC08868240
REMARK  4 active torsions:
REMARK  status: ('A' for Active; 'I' for Inactive)
REMARK    1  A    between atoms: C_4  and  N_7
REMARK    2  A    between atoms: C_16  and  C_25
REMARK    3  A    between atoms: C_16  and  C_29
REMARK    4  A    between atoms: C_17  and  C_19
REMARK                            x       y       z     vdW  Elec       q    Type
REMARK                         _______ _______ _______ _____ _____    ______ ____
ROOT
ATOM      1  N   UNL     1       2.418  -0.852   0.605  0.00  0.00    -0.250 N 
ATOM      2  C   UNL     1       1.375  -0.977  -0.281  0.00  0.00    +0.124 A 
ATOM      3  C   UNL     1       0.354  -0.073  -0.254  0.00  0.00    +0.098 A 
ATOM      4  C   UNL     1       0.388   0.967   0.691  0.00  0.00    +0.262 A 
ATOM      5  O   UNL     1      -0.512   1.787   0.735  0.00  0.00    -0.267 OA
ATOM      6  N   UNL     1       1.428   1.053   1.544  0.00  0.00    -0.274 N 
ATOM      7  H   UNL     1       1.456   1.791   2.218  0.00  0.00    +0.173 HD
ATOM      8  C   UNL     1       2.429   0.155   1.499  0.00  0.00    +0.335 A 
ATOM      9  O   UNL     1       3.359   0.254   2.277  0.00  0.00    -0.246 OA
ATOM     10  C   UNL     1      -0.788  -0.184  -1.223  0.00  0.00    +0.264 C 
ATOM     11  C   UNL     1       0.169  -2.314  -1.828  0.00  0.00    +0.077 C 
ATOM     12  N   UNL     1       1.348  -2.003  -1.195  0.00  0.00    -0.290 N 
ATOM     13  H   UNL     1       2.155  -2.504  -1.392  0.00  0.00    +0.155 HD
ATOM     14  N   UNL     1      -0.898  -1.528  -1.894  0.00  0.00    -0.352 N 
ATOM     15  H   UNL     1      -1.754  -1.820  -2.379  0.00  0.00    +0.162 HD
ENDROOT
BRANCH   1  19
ATOM     16  C   UNL     1       5.553  -3.597   0.523  0.00  0.00    +0.000 A 
ATOM     17  C   UNL     1       5.628  -2.441  -0.232  0.00  0.00    +0.002 A 
ATOM     18  C   UNL     1       4.591  -1.530  -0.207  0.00  0.00    +0.026 A 
ATOM     19  C   UNL     1       3.472  -1.774   0.578  0.00  0.00    +0.053 A 
ATOM     20  C   UNL     1       3.402  -2.933   1.340  0.00  0.00    +0.026 A 
ATOM     21  C   UNL     1       4.440  -3.844   1.306  0.00  0.00    +0.002 A 
ENDBRANCH   1  19
BRANCH  11  22
ATOM     22  C   UNL     1       0.036  -3.649  -2.514  0.00  0.00    +0.050 C 
ATOM     23  C   UNL     1       0.610  -3.554  -3.930  0.00  0.00    +0.011 C 
ATOM     24  C   UNL     1       0.474  -4.909  -4.627  0.00  0.00    +0.001 C 
ATOM     25  C   UNL     1      -1.003  -5.300  -4.700  0.00  0.00    +0.000 C 
ATOM     26  C   UNL     1      -1.577  -5.395  -3.285  0.00  0.00    +0.001 C 
ATOM     27  C   UNL     1      -1.441  -4.040  -2.588  0.00  0.00    +0.011 C 
ENDBRANCH  11  22
BRANCH  10  28
ATOM     28  C   UNL     1      -2.103   0.050  -0.477  0.00  0.00    +0.426 C 
ATOM     29  F   UNL     1      -2.249   1.414  -0.206  0.00  0.00    -0.167 F 
ATOM     30  F   UNL     1      -3.172  -0.385  -1.268  0.00  0.00    -0.167 F 
ATOM     31  F   UNL     1      -2.091  -0.666   0.725  0.00  0.00    -0.167 F 
ENDBRANCH  10  28
BRANCH  10  32
ATOM     32  C   UNL     1      -0.631   0.884  -2.307  0.00  0.00    +0.426 C 
ATOM     33  F   UNL     1       0.579   0.690  -2.982  0.00  0.00    -0.167 F 
ATOM     34  F   UNL     1      -1.692   0.787  -3.214  0.00  0.00    -0.167 F 
ATOM     35  F   UNL     1      -0.637   2.152  -1.716  0.00  0.00    -0.167 F 
ENDBRANCH  10  32
TORSDOF 4
