REMARK  Name = ZINC20413736
REMARK  9 active torsions:
REMARK  status: ('A' for Active; 'I' for Inactive)
REMARK    1  A    between atoms: C_1  and  C_2
REMARK    2  A    between atoms: C_5  and  N_9
REMARK    3  A    between atoms: C_6  and  C_8
REMARK    4  A    between atoms: C_10  and  C_12
REMARK    5  A    between atoms: C_13  and  C_34
REMARK    6  A    between atoms: C_17  and  S_32
REMARK    7  A    between atoms: C_20  and  C_22
REMARK    8  A    between atoms: C_25  and  C_28
REMARK    9  A    between atoms: S_32  and  C_33
REMARK                            x       y       z     vdW  Elec       q    Type
REMARK                         _______ _______ _______ _____ _____    ______ ____
ROOT
ATOM      1  C   UNL     1      -2.669   3.398   7.019  0.00  0.00    +0.060 C 
ATOM      2  C   UNL     1      -1.948   3.619   8.128  0.00  0.00    +0.018 C 
ATOM      3  N   UNL     1      -2.530   3.988   9.316  0.00  0.00    -0.287 N 
ATOM      4  C   UNL     1      -3.863   4.373   9.284  0.00  0.00    +0.219 A 
ATOM      5  N   UNL     1      -4.588   4.967  10.193  0.00  0.00    -0.187 NA
ATOM      6  C   UNL     1      -5.830   5.153   9.723  0.00  0.00    +0.210 A 
ATOM      7  N   UNL     1      -5.903   4.673   8.501  0.00  0.00    -0.141 NA
ATOM      8  N   UNL     1      -4.643   4.160   8.196  0.00  0.00    -0.220 N 
ATOM      9  C   UNL     1      -4.170   3.507   6.978  0.00  0.00    +0.177 C 
ATOM     10  C   UNL     1      -0.451   3.465   8.066  0.00  0.00    +0.061 C 
ATOM     11  H   UNL     1      -1.941   3.971  10.245  0.00  0.00    +0.155 HD
ENDROOT
BRANCH   9  12
ATOM     12  C   UNL     1      -4.771   2.129   6.881  0.00  0.00    -0.018 A 
ATOM     13  C   UNL     1      -4.526   1.196   7.871  0.00  0.00    +0.006 A 
ATOM     14  C   UNL     1      -5.082  -0.066   7.784  0.00  0.00    +0.013 A 
ATOM     15  C   UNL     1      -5.875  -0.400   6.702  0.00  0.00    +0.055 A 
ATOM     16  C   UNL     1      -6.115   0.531   5.709  0.00  0.00    +0.013 A 
ATOM     17  C   UNL     1      -5.564   1.796   5.798  0.00  0.00    +0.006 A 
BRANCH  15  18
ATOM     18  C   UNL     1      -6.475  -1.778   6.604  0.00  0.00    +0.417 C 
ATOM     19  F   UNL     1      -5.594  -2.624   5.922  0.00  0.00    -0.166 F 
ATOM     20  F   UNL     1      -6.702  -2.280   7.890  0.00  0.00    -0.166 F 
ATOM     21  F   UNL     1      -7.688  -1.710   5.909  0.00  0.00    -0.166 F 
ENDBRANCH  15  18
ENDBRANCH   9  12
BRANCH   1  23
ATOM     22  N   UNL     1      -2.668   2.911   4.676  0.00  0.00    -0.281 N 
ATOM     23  C   UNL     1      -1.987   3.039   5.832  0.00  0.00    +0.248 C 
ATOM     24  O   UNL     1      -0.784   2.846   5.855  0.00  0.00    -0.270 OA
ATOM     25  H   UNL     1      -3.735   3.175   4.634  0.00  0.00    +0.155 HD
BRANCH  22  30
ATOM     26  C   UNL     1      -0.030   1.009   0.028  0.00  0.00    +0.044 C 
ATOM     27  C   UNL     1      -0.731   1.514   1.263  0.00  0.00    -0.050 A 
ATOM     28  C   UNL     1      -0.247   1.182   2.515  0.00  0.00    +0.005 A 
ATOM     29  C   UNL     1      -0.887   1.643   3.649  0.00  0.00    +0.024 A 
ATOM     30  C   UNL     1      -2.018   2.442   3.530  0.00  0.00    +0.037 A 
ATOM     31  C   UNL     1      -2.501   2.773   2.271  0.00  0.00    -0.029 A 
ATOM     32  C   UNL     1      -1.853   2.313   1.141  0.00  0.00    +0.008 A 
ATOM     33  C   UNL     1      -3.727   3.639   2.138  0.00  0.00    +0.045 C 
ENDBRANCH  22  30
ENDBRANCH   1  23
BRANCH   6  34
ATOM     34  S   UNL     1      -7.152   5.919  10.602  0.00  0.00    -0.088 S 
ATOM     35  C   UNL     1      -6.420   6.354  12.204  0.00  0.00    +0.093 C 
ENDBRANCH   6  34
TORSDOF 5
