REMARK  Name = ZINC39636365
REMARK  9 active torsions:
REMARK  status: ('A' for Active; 'I' for Inactive)
REMARK    1  A    between atoms: C_1  and  O_2
REMARK    2  A    between atoms: O_2  and  C_3
REMARK    3  A    between atoms: C_8  and  C_9
REMARK    4  A    between atoms: C_9  and  C_10
REMARK    5  A    between atoms: C_10  and  N_11
REMARK    6  A    between atoms: C_12  and  C_14
REMARK    7  A    between atoms: C_25  and  C_27
REMARK    8  A    between atoms: C_32  and  S_33
REMARK    9  A    between atoms: S_33  and  C_34
REMARK                            x       y       z     vdW  Elec       q    Type
REMARK                         _______ _______ _______ _____ _____    ______ ____
ROOT
ATOM      1  C   UNL     1      -4.231  -4.821   2.350  0.00  0.00    +0.100 C 
ATOM      2  C   UNL     1      -3.555  -6.190   2.112  0.00  0.00    +0.121 C 
ATOM      3  N   UNL     1      -4.647  -7.179   2.266  0.00  0.00    -0.296 N 
ATOM      4  C   UNL     1      -5.819  -6.537   1.623  0.00  0.00    +0.115 C 
ATOM      5  C   UNL     1      -5.717  -5.053   2.028  0.00  0.00    -0.004 C 
ATOM      6  C   UNL     1      -6.574  -4.782   3.261  0.00  0.00    -0.010 C 
ATOM      7  C   UNL     1      -8.051  -4.965   2.900  0.00  0.00    -0.082 C 
ATOM      8  N   UNL     1      -8.409  -4.041   1.817  0.00  0.00    +0.379 N 
ATOM      9  C   UNL     1      -7.647  -4.368   0.606  0.00  0.00    -0.082 C 
ATOM     10  C   UNL     1      -6.153  -4.161   0.870  0.00  0.00    -0.010 C 
ATOM     11  C   UNL     1      -4.589  -8.389   2.857  0.00  0.00    +0.249 C 
ATOM     12  O   UNL     1      -5.551  -9.131   2.821  0.00  0.00    -0.270 OA
ATOM     13  H   UNL     1      -9.396  -4.120   1.623  0.00  0.00    -0.086 HD
ATOM     14  H   UNL     1      -8.200  -3.095   2.100  0.00  0.00    -0.086 HD
ENDROOT
BRANCH  11  15
ATOM     15  C   UNL     1      -3.358  -8.813   3.549  0.00  0.00    +0.069 A 
ATOM     16  C   UNL     1      -2.101  -8.442   3.057  0.00  0.00    +0.017 A 
ATOM     17  C   UNL     1      -0.976  -8.865   3.743  0.00  0.00    +0.020 A 
ATOM     18  C   UNL     1      -1.122  -9.635   4.884  0.00  0.00    +0.112 A 
ATOM     19  N   UNL     1      -2.315  -9.974   5.331  0.00  0.00    -0.248 NA
ATOM     20  C   UNL     1      -3.425  -9.592   4.717  0.00  0.00    +0.114 A 
BRANCH  20  21
ATOM     21  S   UNL     1      -4.993 -10.068   5.364  0.00  0.00    -0.069 S 
BRANCH  21  22
ATOM     22  C   UNL     1      -4.593 -11.142   6.703  0.00  0.00    +0.014 A 
ATOM     23  C   UNL     1      -4.511 -10.642   7.996  0.00  0.00    +0.015 A 
ATOM     24  C   UNL     1      -4.198 -11.486   9.043  0.00  0.00    +0.001 A 
ATOM     25  C   UNL     1      -3.966 -12.828   8.805  0.00  0.00    +0.000 A 
ATOM     26  C   UNL     1      -4.046 -13.330   7.519  0.00  0.00    +0.001 A 
ATOM     27  C   UNL     1      -4.365 -12.492   6.468  0.00  0.00    +0.015 A 
ENDBRANCH  21  22
ENDBRANCH  20  21
ENDBRANCH  11  15
BRANCH   1  29
ATOM     28  N   UNL     1      -3.628  -2.486   1.799  0.00  0.00    -0.315 N 
ATOM     29  C   UNL     1      -3.650  -3.781   1.427  0.00  0.00    +0.218 C 
ATOM     30  O   UNL     1      -3.202  -4.110   0.349  0.00  0.00    -0.275 OA
ATOM     31  H   UNL     1      -3.987  -2.223   2.661  0.00  0.00    +0.149 HD
BRANCH  28  32
ATOM     32  C   UNL     1      -3.064  -1.475   0.902  0.00  0.00    +0.109 C 
BRANCH  32  33
ATOM     33  C   UNL     1      -3.161  -0.097   1.560  0.00  0.00    +0.057 C 
BRANCH  33  39
ATOM     34  C   UNL     1      -3.368   1.508  -0.356  0.00  0.00    +0.123 A 
ATOM     35  C   UNL     1      -2.832   2.469  -1.201  0.00  0.00    +0.046 A 
ATOM     36  C   UNL     1      -1.514   2.856  -1.056  0.00  0.00    +0.004 A 
ATOM     37  C   UNL     1      -0.729   2.287  -0.070  0.00  0.00    +0.000 A 
ATOM     38  C   UNL     1      -1.261   1.329   0.773  0.00  0.00    +0.007 A 
ATOM     39  C   UNL     1      -2.580   0.942   0.636  0.00  0.00    -0.004 A 
BRANCH  34  41
ATOM     40  C   UNL     1      -5.416   1.749  -1.539  0.00  0.00    +0.277 C 
ATOM     41  O   UNL     1      -4.665   1.125  -0.496  0.00  0.00    -0.495 OA
ENDBRANCH  34  41
ENDBRANCH  33  39
ENDBRANCH  32  33
ENDBRANCH  28  32
ENDBRANCH   1  29
TORSDOF 8
