REMARK  Name = ZINC42015418
REMARK  3 active torsions:
REMARK  status: ('A' for Active; 'I' for Inactive)
REMARK    1  A    between atoms: C_4  and  N_8
REMARK    2  A    between atoms: C_9  and  C_13
REMARK    3  A    between atoms: C_17  and  N_19
REMARK                            x       y       z     vdW  Elec       q    Type
REMARK                         _______ _______ _______ _____ _____    ______ ____
ROOT
ATOM      1  N   UNL     1       3.629  -0.675  -0.215  0.00  0.00    -0.187 N 
ATOM      2  C   UNL     1       3.828  -1.999   0.043  0.00  0.00    +0.187 A 
ATOM      3  N   UNL     1       5.127  -2.175   0.164  0.00  0.00    -0.108 NA
ATOM      4  N   UNL     1       5.749  -1.064   0.000  0.00  0.00    -0.022 NA
ATOM      5  N   UNL     1       4.916  -0.110  -0.239  0.00  0.00    -0.038 NA
ENDROOT
BRANCH   1   9
ATOM      6  C   UNL     1      -0.009   1.274  -0.824  0.00  0.00    +0.006 A 
ATOM      7  C   UNL     1       0.828   1.681   0.198  0.00  0.00    +0.041 A 
ATOM      8  C   UNL     1       2.035   1.037   0.403  0.00  0.00    +0.152 A 
ATOM      9  C   UNL     1       2.406  -0.020  -0.420  0.00  0.00    +0.139 A 
ATOM     10  C   UNL     1       1.561  -0.426  -1.447  0.00  0.00    +0.152 A 
ATOM     11  C   UNL     1       0.356   0.223  -1.645  0.00  0.00    +0.041 A 
ATOM     12  F   UNL     1       1.917  -1.452  -2.250  0.00  0.00    -0.203 F 
ATOM     13  F   UNL     1       2.853   1.435   1.402  0.00  0.00    -0.203 F 
ENDBRANCH   1   9
BRANCH   2  14
ATOM     14  C   UNL     1       2.783  -3.040   0.165  0.00  0.00    +0.023 A 
ATOM     15  C   UNL     1       1.458  -2.676   0.412  0.00  0.00    +0.013 A 
ATOM     16  C   UNL     1       0.485  -3.647   0.526  0.00  0.00    +0.018 A 
ATOM     17  C   UNL     1       0.817  -4.984   0.395  0.00  0.00    +0.039 A 
ATOM     18  C   UNL     1       2.134  -5.356   0.148  0.00  0.00    +0.039 A 
ATOM     19  C   UNL     1       3.117  -4.386   0.028  0.00  0.00    +0.035 A 
ATOM     20 BR   UNL     1      -0.523  -6.308   0.552  0.00  0.00    -0.048 Br
BRANCH  18  21
ATOM     21  N   UNL     1       2.465  -6.707   0.017  0.00  0.00    -0.357 N 
ATOM     22  H   UNL     1       1.777  -7.386   0.097  0.00  0.00    +0.142 HD
ATOM     23  H   UNL     1       3.384  -6.967  -0.156  0.00  0.00    +0.142 HD
ENDBRANCH  18  21
ENDBRANCH   2  14
TORSDOF 3
