REMARK  Name = ZINC11914917
REMARK  3 active torsions:
REMARK  status: ('A' for Active; 'I' for Inactive)
REMARK    1  A    between atoms: C_1  and  C_2
REMARK    2  A    between atoms: C_10  and  C_11
REMARK    3  A    between atoms: C_16  and  C_19
REMARK                            x       y       z     vdW  Elec       q    Type
REMARK                         _______ _______ _______ _____ _____    ______ ____
ROOT
ATOM      1  C   UNL     1       1.273   1.713   2.769  0.00  0.00    +0.285 C 
ATOM      2  O   UNL     1       2.052   1.331   1.916  0.00  0.00    -0.266 OA
ATOM      3  N   UNL     1       1.721   2.014   4.005  0.00  0.00    -0.257 N 
ATOM      4  C   UNL     1       3.069   1.889   4.303  0.00  0.00    +0.185 A 
ATOM      5  N   UNL     1       3.700   2.136   5.439  0.00  0.00    -0.204 NA
ATOM      6  C   UNL     1       5.003   1.940   5.496  0.00  0.00    +0.170 A 
ATOM      7  N   UNL     1       5.641   1.515   4.422  0.00  0.00    -0.187 NA
ATOM      8  S   UNL     1       4.373   1.373   3.281  0.00  0.00    +0.050 S 
ATOM      9  H   UNL     1       1.100   2.318   4.685  0.00  0.00    +0.157 HD
ENDROOT
BRANCH   1  19
ATOM     10  C   UNL     1      -0.013   1.086   0.008  0.00  0.00    +0.048 C 
ATOM     11  C   UNL     1      -0.718   1.572   1.248  0.00  0.00    +0.008 A 
ATOM     12  C   UNL     1      -2.146   1.850   1.395  0.00  0.00    +0.024 A 
ATOM     13  C   UNL     1      -3.248   1.763   0.541  0.00  0.00    +0.012 A 
ATOM     14  C   UNL     1      -4.490   2.100   1.001  0.00  0.00    +0.001 A 
ATOM     15  C   UNL     1      -4.663   2.523   2.312  0.00  0.00    +0.004 A 
ATOM     16  C   UNL     1      -3.590   2.611   3.172  0.00  0.00    +0.047 A 
ATOM     17  C   UNL     1      -2.317   2.273   2.726  0.00  0.00    +0.136 A 
ATOM     18  O   UNL     1      -1.107   2.258   3.317  0.00  0.00    -0.450 OA
ATOM     19  C   UNL     1      -0.155   1.846   2.454  0.00  0.00    +0.194 A 
ENDBRANCH   1  19
BRANCH   6  20
ATOM     20  C   UNL     1       5.746   2.199   6.754  0.00  0.00    +0.020 A 
ATOM     21  C   UNL     1       5.069   2.653   7.884  0.00  0.00    +0.011 A 
ATOM     22  C   UNL     1       5.763   2.887   9.054  0.00  0.00    +0.001 A 
ATOM     23  C   UNL     1       7.131   2.684   9.102  0.00  0.00    +0.000 A 
ATOM     24  C   UNL     1       7.809   2.239   7.981  0.00  0.00    +0.001 A 
ATOM     25  C   UNL     1       7.123   1.996   6.808  0.00  0.00    +0.011 A 
ENDBRANCH   6  20
TORSDOF 2
