REMARK  Name = ZINC52013346
REMARK  9 active torsions:
REMARK  status: ('A' for Active; 'I' for Inactive)
REMARK    1  A    between atoms: C_1  and  C_2
REMARK    2  A    between atoms: C_2  and  C_4
REMARK    3  A    between atoms: C_2  and  N_11
REMARK    4  A    between atoms: N_6  and  C_7
REMARK    5  A    between atoms: C_7  and  C_8
REMARK    6  A    between atoms: C_7  and  C_9
REMARK    7  A    between atoms: C_7  and  C_10
REMARK    8  A    between atoms: N_11  and  C_12
REMARK    9  A    between atoms: C_18  and  O_20
REMARK                            x       y       z     vdW  Elec       q    Type
REMARK                         _______ _______ _______ _____ _____    ______ ____
ROOT
ATOM      1  N   UNL     1       0.814  -0.489   1.126  0.00  0.00    +0.390 N 
ATOM      2  H   UNL     1       1.021  -1.474   1.059  0.00  0.00    -0.084 HD
ATOM      3  H   UNL     1       1.674   0.038   1.102  0.00  0.00    -0.084 HD
ENDROOT
BRANCH   1   4
ATOM      4  C   UNL     1       0.111  -0.222   2.389  0.00  0.00    -0.042 C 
ATOM      5  C   UNL     1       1.052  -0.495   3.563  0.00  0.00    -0.013 C 
ATOM      6  C   UNL     1       0.321  -0.217   4.878  0.00  0.00    -0.001 C 
ATOM      7  C   UNL     1      -0.903  -1.128   4.983  0.00  0.00    +0.002 C 
ATOM      8  C   UNL     1      -1.845  -0.856   3.808  0.00  0.00    +0.030 C 
ATOM      9  C   UNL     1      -1.113  -1.134   2.494  0.00  0.00    +0.101 C 
BRANCH   9  10
ATOM     10  O   UNL     1      -0.694  -2.499   2.461  0.00  0.00    -0.393 OA
ATOM     11  H   UNL     1      -1.420  -3.135   2.524  0.00  0.00    +0.210 HD
ENDBRANCH   9  10
ENDBRANCH   1   4
BRANCH   1  13
ATOM     12  C   UNL     1      -0.237   1.428   0.022  0.00  0.00    -0.004 C 
ATOM     13  C   UNL     1      -0.038  -0.089  -0.002  0.00  0.00    +0.013 C 
BRANCH  13  14
ATOM     14  C   UNL     1       0.623  -0.489  -1.296  0.00  0.00    +0.199 C 
ATOM     15  O   UNL     1       1.697  -1.052  -1.280  0.00  0.00    -0.278 OA
ATOM     16  N   UNL     1       0.020  -0.221  -2.471  0.00  0.00    -0.312 N 
ATOM     17  H   UNL     1      -0.839   0.229  -2.484  0.00  0.00    +0.149 HD
BRANCH  16  18
ATOM     18  C   UNL     1       0.662  -0.610  -3.730  0.00  0.00    +0.026 C 
ATOM     19  C   UNL     1       0.861  -2.127  -3.753  0.00  0.00    +0.031 C 
ATOM     20  C   UNL     1      -0.225  -0.193  -4.905  0.00  0.00    +0.031 C 
ATOM     21  C   UNL     1       2.021   0.085  -3.845  0.00  0.00    +0.031 C 
ENDBRANCH  16  18
ENDBRANCH  13  14
ENDBRANCH   1  13
TORSDOF 5
