REMARK  Name = ZINC09218857
REMARK  2 active torsions:
REMARK  status: ('A' for Active; 'I' for Inactive)
REMARK    1  A    between atoms: C_4  and  C_7
REMARK    2  A    between atoms: C_8  and  C_9
REMARK                            x       y       z     vdW  Elec       q    Type
REMARK                         _______ _______ _______ _____ _____    ______ ____
ROOT
ATOM      1  C   UNL     1       2.732   5.833  -1.030  0.00  0.00    +0.156 A 
ATOM      2  N   UNL     1       1.426   5.597  -1.093  0.00  0.00    -0.213 NA
ATOM      3  C   UNL     1       0.871   4.425  -0.804  0.00  0.00    +0.134 A 
ATOM      4  C   UNL     1       1.768   3.389  -0.408  0.00  0.00    +0.051 A 
ATOM      5  C   UNL     1       1.423   2.026  -0.041  0.00  0.00    -0.025 A 
ATOM      6  C   UNL     1       2.447   1.212   0.304  0.00  0.00    -0.004 A 
ATOM      7  S   UNL     1       3.908   2.210   0.158  0.00  0.00    -0.073 S 
ATOM      8  C   UNL     1       3.149   3.714  -0.363  0.00  0.00    +0.114 A 
ATOM      9  N   UNL     1       3.624   4.903  -0.667  0.00  0.00    -0.221 NA
ATOM     10  C   UNL     1       2.362  -0.225   0.720  0.00  0.00    +0.043 C 
ATOM     11  C   UNL     1       0.900  -0.549   1.058  0.00  0.00    +0.005 C 
ATOM     12  C   UNL     1       0.008  -0.017  -0.068  0.00  0.00    +0.005 C 
ATOM     13  C   UNL     1      -0.014   1.511  -0.035  0.00  0.00    +0.037 C 
ATOM     14  N   UNL     1      -0.496   4.221  -0.882  0.00  0.00    -0.314 N 
ATOM     15  C   UNL     1      -0.985   4.453  -2.247  0.00  0.00    +0.109 C 
ATOM     16  C   UNL     1      -2.465   4.066  -2.331  0.00  0.00    +0.054 C 
ATOM     17  C   UNL     1      -3.258   4.888  -1.320  0.00  0.00    +0.115 C 
ATOM     18  C   UNL     1      -2.696   4.694   0.085  0.00  0.00    +0.054 C 
ATOM     19  C   UNL     1      -1.209   5.060   0.090  0.00  0.00    +0.109 C 
ATOM     20  C   UNL     1      -4.720   4.509  -1.361  0.00  0.00    +0.244 C 
ATOM     21  O   UNL     1      -5.204   3.423  -1.125  0.00  0.00    -0.273 OA
ATOM     22  N   UNL     1      -5.374   5.635  -1.717  0.00  0.00    -0.238 N 
ATOM     23  C   UNL     1      -4.530   6.658  -1.902  0.00  0.00    +0.307 C 
ATOM     24  O   UNL     1      -4.882   7.775  -2.225  0.00  0.00    -0.252 OA
ATOM     25  N   UNL     1      -3.246   6.309  -1.688  0.00  0.00    -0.285 N 
ATOM     26  H   UNL     1      -6.336   5.696  -1.825  0.00  0.00    +0.159 HD
ATOM     27  H   UNL     1      -2.468   6.883  -1.763  0.00  0.00    +0.151 HD
ENDROOT
BRANCH   1  29
ATOM     28  C   UNL     1       4.536   7.448  -1.324  0.00  0.00    +0.011 C 
ATOM     29  C   UNL     1       3.221   7.177  -1.377  0.00  0.00    +0.049 C 
BRANCH  28  33
ATOM     30  C   UNL     1       5.946  11.324  -2.325  0.00  0.00    +0.000 A 
ATOM     31  C   UNL     1       6.843  10.342  -1.944  0.00  0.00    +0.001 A 
ATOM     32  C   UNL     1       6.393   9.080  -1.617  0.00  0.00    +0.008 A 
ATOM     33  C   UNL     1       5.026   8.794  -1.671  0.00  0.00    -0.025 A 
ATOM     34  C   UNL     1       4.126   9.789  -2.062  0.00  0.00    +0.008 A 
ATOM     35  C   UNL     1       4.591  11.048  -2.380  0.00  0.00    +0.001 A 
ENDBRANCH  28  33
ENDBRANCH   1  29
TORSDOF 2
