REMARK  Name = ZINC15002547
REMARK  9 active torsions:
REMARK  status: ('A' for Active; 'I' for Inactive)
REMARK    1  A    between atoms: C_1  and  C_2
REMARK    2  A    between atoms: C_4  and  C_34
REMARK    3  A    between atoms: C_6  and  C_8
REMARK    4  A    between atoms: C_8  and  N_67
REMARK    5  A    between atoms: C_11  and  C_14
REMARK    6  A    between atoms: C_14  and  C_28
REMARK    7  A    between atoms: N_17  and  C_21
REMARK    8  A    between atoms: C_21  and  C_22
REMARK    9  A    between atoms: C_22  and  C_23
REMARK                            x       y       z     vdW  Elec       q    Type
REMARK                         _______ _______ _______ _____ _____    ______ ____
ROOT
ATOM      1  C   UNL     1      -0.217   5.298   0.033  0.00  0.00    +0.157 C 
ATOM      2  C   UNL     1       0.453   5.877  -1.197  0.00  0.00    +0.253 C 
ATOM      3  O   UNL     1       0.144   5.692  -2.355  0.00  0.00    -0.272 OA
ATOM      4  N   UNL     1       1.463   6.641  -0.736  0.00  0.00    -0.224 N 
ATOM      5  C   UNL     1       1.525   6.624   0.600  0.00  0.00    +0.310 C 
ATOM      6  O   UNL     1       2.352   7.237   1.246  0.00  0.00    -0.252 OA
ATOM      7  N   UNL     1       0.568   5.854   1.149  0.00  0.00    -0.280 N 
ATOM      8  H   UNL     1       0.423   5.696   2.095  0.00  0.00    +0.152 HD
ENDROOT
BRANCH   1  11
ATOM      9  C   UNL     1      -3.746   5.708   1.515  0.00  0.00    -0.078 C 
ATOM     10  C   UNL     1      -2.307   5.200   1.402  0.00  0.00    -0.012 C 
ATOM     11  C   UNL     1      -1.675   5.752   0.121  0.00  0.00    +0.024 C 
ATOM     12  C   UNL     1      -1.733   7.282   0.150  0.00  0.00    -0.012 C 
ATOM     13  C   UNL     1      -3.189   7.729   0.301  0.00  0.00    -0.078 C 
ATOM     14  N   UNL     1      -3.731   7.185   1.564  0.00  0.00    +0.382 N 
ATOM     15  H   UNL     1      -3.131   7.487   2.341  0.00  0.00    -0.081 HD
BRANCH  14  16
ATOM     16  C   UNL     1      -5.099   7.697   1.788  0.00  0.00    -0.043 C 
BRANCH  16  22
ATOM     17  C   UNL     1      -4.556  12.347   3.556  0.00  0.00    +0.044 C 
ATOM     18  C   UNL     1      -4.852  11.412   2.412  0.00  0.00    -0.050 A 
ATOM     19  C   UNL     1      -5.135  11.921   1.158  0.00  0.00    +0.006 A 
ATOM     20  C   UNL     1      -5.406  11.064   0.109  0.00  0.00    -0.050 A 
ATOM     21  C   UNL     1      -5.395   9.697   0.312  0.00  0.00    +0.005 A 
ATOM     22  C   UNL     1      -5.111   9.187   1.566  0.00  0.00    -0.063 A 
ATOM     23  C   UNL     1      -4.845  10.045   2.617  0.00  0.00    +0.005 A 
ATOM     24  C   UNL     1      -5.716  11.619  -1.258  0.00  0.00    +0.044 C 
ENDBRANCH  16  22
ENDBRANCH  14  16
ENDBRANCH   1  11
BRANCH   1  25
ATOM     25  C   UNL     1      -0.132   3.793   0.024  0.00  0.00    +0.074 A 
ATOM     26  C   UNL     1       1.107   3.179   0.009  0.00  0.00    +0.026 A 
ATOM     27  C   UNL     1       1.174   1.794   0.001  0.00  0.00    +0.003 A 
ATOM     28  C   UNL     1      -0.013   1.076   0.008  0.00  0.00    +0.020 A 
ATOM     29  C   UNL     1      -1.214   1.759   0.017  0.00  0.00    +0.111 A 
ATOM     30  N   UNL     1      -1.239   3.078   0.030  0.00  0.00    -0.257 NA
ENDBRANCH   1  25
BRANCH   4  31
ATOM     31  C   UNL     1       2.381   7.395  -1.593  0.00  0.00    +0.123 C 
BRANCH  31  32
ATOM     32  C   UNL     1       3.586   6.519  -1.946  0.00  0.00    +0.062 C 
BRANCH  32  33
ATOM     33  C   UNL     1       4.530   7.295  -2.827  0.00  0.00    -0.009 A 
ATOM     34  C   UNL     1       5.572   8.087  -2.473  0.00  0.00    +0.011 A 
ATOM     35  C   UNL     1       6.309   8.707  -3.464  0.00  0.00    +0.008 A 
ATOM     36  C   UNL     1       5.970   8.504  -4.761  0.00  0.00    +0.045 A 
ATOM     37  S   UNL     1       4.573   7.403  -4.609  0.00  0.00    -0.102 S 
ENDBRANCH  32  33
ENDBRANCH  31  32
ENDBRANCH   4  31
TORSDOF 7
