REMARK  Name = ZINC64871221
REMARK  4 active torsions:
REMARK  status: ('A' for Active; 'I' for Inactive)
REMARK    1  A    between atoms: C_3  and  C_8
REMARK    2  A    between atoms: C_11  and  C_15
REMARK    3  A    between atoms: N_25  and  C_28
REMARK    4  A    between atoms: C_28  and  C_29
REMARK                            x       y       z     vdW  Elec       q    Type
REMARK                         _______ _______ _______ _____ _____    ______ ____
ROOT
ATOM      1  C   UNL     1       6.417   2.104  -2.425  0.00  0.00    -0.000 A 
ATOM      2  C   UNL     1       5.854   1.211  -3.325  0.00  0.00    +0.008 A 
ATOM      3  C   UNL     1       6.556   0.809  -4.441  0.00  0.00    +0.016 A 
ATOM      4  C   UNL     1       7.838   1.306  -4.662  0.00  0.00    +0.063 A 
ATOM      5  C   UNL     1       8.408   2.211  -3.749  0.00  0.00    +0.056 A 
ATOM      6  C   UNL     1       7.685   2.608  -2.635  0.00  0.00    +0.034 A 
ATOM      7  N   UNL     1       9.687   2.690  -3.994  0.00  0.00    -0.307 N 
ATOM      8  H   UNL     1      10.093   3.314  -3.373  0.00  0.00    +0.170 HD
ATOM      9  C   UNL     1      10.369   2.296  -5.084  0.00  0.00    +0.330 A 
ATOM     10  O   UNL     1      11.487   2.739  -5.262  0.00  0.00    -0.246 OA
ATOM     11  N   UNL     1       9.868   1.435  -5.984  0.00  0.00    -0.256 N 
ATOM     12  C   UNL     1       8.632   0.910  -5.839  0.00  0.00    +0.265 A 
ATOM     13  O   UNL     1       8.185   0.130  -6.658  0.00  0.00    -0.267 OA
ENDROOT
BRANCH   1  16
ATOM     14  C   UNL     1       3.672   2.186  -0.021  0.00  0.00    +0.180 C 
ATOM     15  N   UNL     1       4.719   1.446  -0.776  0.00  0.00    -0.265 NA
ATOM     16  C   UNL     1       5.635   2.532  -1.210  0.00  0.00    +0.242 C 
ATOM     17  O   UNL     1       4.770   3.637  -1.533  0.00  0.00    -0.274 OA
ATOM     18  N   UNL     1       3.518   3.450  -0.779  0.00  0.00    -0.177 NA
ATOM     19  H   UNL     1       5.197   0.787  -0.179  0.00  0.00    +0.127 HD
ATOM     20  H   UNL     1       2.726   3.404  -1.402  0.00  0.00    +0.156 HD
BRANCH  14  23
ATOM     21  C   UNL     1      -0.017   1.377   0.010  0.00  0.00    +0.003 A 
ATOM     22  C   UNL     1       1.171   2.086   0.002  0.00  0.00    +0.007 A 
ATOM     23  C   UNL     1       2.378   1.413  -0.013  0.00  0.00    -0.011 A 
ATOM     24  C   UNL     1       2.399   0.030  -0.021  0.00  0.00    +0.045 A 
ATOM     25  C   UNL     1       1.211  -0.679  -0.013  0.00  0.00    +0.124 A 
ATOM     26  C   UNL     1       0.002  -0.004   0.002  0.00  0.00    +0.038 A 
ATOM     27  F   UNL     1       1.230  -2.030  -0.022  0.00  0.00    -0.205 F 
ENDBRANCH  14  23
ENDBRANCH   1  16
BRANCH  11  28
ATOM     28  C   UNL     1      10.677   1.057  -7.145  0.00  0.00    +0.165 C 
BRANCH  28  29
ATOM     29  C   UNL     1      11.502  -0.158  -6.808  0.00  0.00    -0.027 A 
ATOM     30  C   UNL     1      12.763  -0.007  -6.262  0.00  0.00    +0.007 A 
ATOM     31  C   UNL     1      13.521  -1.122  -5.953  0.00  0.00    +0.020 A 
ATOM     32  C   UNL     1      13.016  -2.388  -6.191  0.00  0.00    +0.041 A 
ATOM     33  C   UNL     1      11.754  -2.538  -6.737  0.00  0.00    +0.020 A 
ATOM     34  C   UNL     1      10.996  -1.423  -7.040  0.00  0.00    +0.007 A 
ATOM     35 CL   UNL     1      13.967  -3.788  -5.803  0.00  0.00    -0.084 Cl
ENDBRANCH  28  29
ENDBRANCH  11  28
TORSDOF 4
