REMARK  Name = ZINC63513836
REMARK  10 active torsions:
REMARK  status: ('A' for Active; 'I' for Inactive)
REMARK    1  A    between atoms: C_1  and  C_2
REMARK    2  A    between atoms: C_4  and  C_13
REMARK    3  A    between atoms: C_13  and  C_14
REMARK    4  A    between atoms: C_14  and  N_15
REMARK    5  A    between atoms: C_16  and  C_18
REMARK    6  A    between atoms: C_18  and  C_19
REMARK    7  A    between atoms: C_19  and  C_20
REMARK    8  A    between atoms: C_20  and  C_21
REMARK    9  A    between atoms: C_21  and  C_22
REMARK   10  A    between atoms: C_22  and  N_23
REMARK                            x       y       z     vdW  Elec       q    Type
REMARK                         _______ _______ _______ _____ _____    ______ ____
ROOT
ATOM      1  N   UNL     1       0.998  -0.729  -4.977  0.00  0.00    -0.315 N 
ATOM      2  C   UNL     1       1.751  -1.249  -5.967  0.00  0.00    +0.213 C 
ATOM      3  O   UNL     1       2.732  -1.911  -5.699  0.00  0.00    -0.276 OA
ATOM      4  H   UNL     1       0.213  -0.201  -5.192  0.00  0.00    +0.149 HD
ENDROOT
BRANCH   1   5
ATOM      5  C   UNL     1       1.364  -0.963  -3.578  0.00  0.00    +0.108 C 
BRANCH   5   6
ATOM      6  C   UNL     1       0.352  -0.269  -2.664  0.00  0.00    +0.052 C 
BRANCH   6   9
ATOM      7  C   UNL     1      -0.019   1.526   0.010  0.00  0.00    +0.035 C 
ATOM      8  C   UNL     1       0.002  -0.004   0.002  0.00  0.00    +0.103 C 
ATOM      9  C   UNL     1       0.729  -0.509  -1.224  0.00  0.00    -0.037 C 
ATOM     10  C   UNL     1       1.785  -1.220  -0.768  0.00  0.00    +0.000 A 
ATOM     11  C   UNL     1       2.858  -1.954  -1.449  0.00  0.00    +0.025 A 
ATOM     12  C   UNL     1       3.797  -2.583  -0.705  0.00  0.00    +0.019 A 
ATOM     13  C   UNL     1       3.771  -2.551   0.697  0.00  0.00    +0.017 A 
ATOM     14  C   UNL     1       2.817  -1.897   1.393  0.00  0.00    +0.027 A 
ATOM     15  C   UNL     1       1.780  -1.201   0.712  0.00  0.00    +0.043 A 
ATOM     16  N   UNL     1       0.758  -0.506   1.155  0.00  0.00    -0.378 N 
ATOM     17 BR   UNL     1       5.181  -3.530  -1.578  0.00  0.00    -0.050 Br
ATOM     18  H   UNL     1       0.540  -0.349   2.087  0.00  0.00    +0.160 HD
ENDBRANCH   6   9
ENDBRANCH   5   6
ENDBRANCH   1   5
BRANCH   2  19
ATOM     19  C   UNL     1       1.374  -1.009  -7.406  0.00  0.00    +0.096 C 
BRANCH  19  20
ATOM     20  C   UNL     1       2.386  -1.703  -8.320  0.00  0.00    +0.009 C 
BRANCH  20  21
ATOM     21  C   UNL     1       2.003  -1.460  -9.782  0.00  0.00    +0.002 C 
BRANCH  21  22
ATOM     22  C   UNL     1       3.015  -2.154 -10.696  0.00  0.00    +0.019 C 
BRANCH  22  23
ATOM     23  C   UNL     1       2.633  -1.910 -12.157  0.00  0.00    +0.117 C 
BRANCH  23  24
ATOM     24  N   UNL     1       3.601  -2.575 -13.033  0.00  0.00    -0.234 N 
ATOM     25  C   UNL     1       4.729  -2.003 -13.492  0.00  0.00    +0.254 C 
ATOM     26  O   UNL     1       5.100  -0.872 -13.252  0.00  0.00    -0.270 OA
ATOM     27  C   UNL     1       5.441  -2.983 -14.340  0.00  0.00    +0.049 A 
ATOM     28  C   UNL     1       6.624  -2.959 -15.061  0.00  0.00    +0.014 A 
ATOM     29  C   UNL     1       7.019  -4.082 -15.771  0.00  0.00    +0.001 A 
ATOM     30  C   UNL     1       6.241  -5.224 -15.765  0.00  0.00    +0.001 A 
ATOM     31  C   UNL     1       5.055  -5.263 -15.048  0.00  0.00    +0.014 A 
ATOM     32  C   UNL     1       4.648  -4.148 -14.333  0.00  0.00    +0.049 A 
ATOM     33  C   UNL     1       3.482  -3.838 -13.478  0.00  0.00    +0.254 C 
ATOM     34  O   UNL     1       2.570  -4.597 -13.223  0.00  0.00    -0.270 OA
ENDBRANCH  23  24
ENDBRANCH  22  23
ENDBRANCH  21  22
ENDBRANCH  20  21
ENDBRANCH  19  20
ENDBRANCH   2  19
TORSDOF 9
