REMARK  Name = ZINC05192935
REMARK  3 active torsions:
REMARK  status: ('A' for Active; 'I' for Inactive)
REMARK    1  A    between atoms: C_6  and  C_10
REMARK    2  A    between atoms: N_12  and  C_13
REMARK    3  A    between atoms: C_16  and  C_19
REMARK                            x       y       z     vdW  Elec       q    Type
REMARK                         _______ _______ _______ _____ _____    ______ ____
ROOT
ATOM      1  C   UNL     1       2.312   8.922   0.115  0.00  0.00    +0.034 A 
ATOM      2  C   UNL     1       3.688   8.920  -0.083  0.00  0.00    +0.024 A 
ATOM      3  C   UNL     1       4.399  10.097   0.002  0.00  0.00    +0.013 A 
ATOM      4  C   UNL     1       3.738  11.291   0.297  0.00  0.00    +0.019 A 
ATOM      5  C   UNL     1       2.357  11.288   0.500  0.00  0.00    +0.013 A 
ATOM      6  C   UNL     1       1.650  10.109   0.409  0.00  0.00    +0.024 A 
ENDROOT
BRANCH   4   7
ATOM      7  C   UNL     1       4.498  12.555   0.393  0.00  0.00    +0.164 A 
ATOM      8  N   UNL     1       4.008  13.774   0.312  0.00  0.00    -0.129 NA
ATOM      9  N   UNL     1       4.957  14.634   0.446  0.00  0.00    -0.134 NA
ATOM     10  C   UNL     1       6.093  14.020   0.615  0.00  0.00    +0.134 A 
ATOM     11  N   UNL     1       5.845  12.683   0.577  0.00  0.00    -0.311 N 
ATOM     12  C   UNL     1       6.830  11.609   0.697  0.00  0.00    +0.125 C 
ATOM     13  C   UNL     1       8.013  12.099   1.538  0.00  0.00    +0.022 C 
ATOM     14  C   UNL     1       9.057  12.749   0.631  0.00  0.00    +0.002 C 
ATOM     15  C   UNL     1       8.466  13.961  -0.084  0.00  0.00    +0.008 C 
ATOM     16  C   UNL     1       7.446  14.649   0.828  0.00  0.00    +0.076 C 
ENDBRANCH   4   7
BRANCH   1  19
ATOM     17  C   UNL     1       2.052   6.722  -0.747  0.00  0.00    +0.268 C 
ATOM     18  O   UNL     1       3.039   6.887  -1.438  0.00  0.00    -0.268 OA
ATOM     19  N   UNL     1       1.593   7.727   0.024  0.00  0.00    -0.280 N 
ATOM     20  H   UNL     1       0.764   7.622   0.516  0.00  0.00    +0.155 HD
BRANCH  17  26
ATOM     21  C   UNL     1      -1.251   1.770  -0.277  0.00  0.00    +0.005 A 
ATOM     22  C   UNL     1      -0.314   1.271  -1.199  0.00  0.00    +0.018 A 
ATOM     23  C   UNL     1       0.689   2.055  -1.643  0.00  0.00    +0.093 A 
ATOM     24  N   UNL     1       0.814   3.342  -1.203  0.00  0.00    -0.306 N 
ATOM     25  C   UNL     1       1.714   4.324  -1.486  0.00  0.00    +0.125 A 
ATOM     26  C   UNL     1       1.356   5.421  -0.754  0.00  0.00    +0.144 A 
ATOM     27  N   UNL     1       0.259   5.108  -0.040  0.00  0.00    -0.223 NA
ATOM     28  C   UNL     1      -0.082   3.857  -0.299  0.00  0.00    +0.138 A 
ATOM     29  C   UNL     1      -1.137   3.047   0.174  0.00  0.00    +0.047 A 
ENDBRANCH  17  26
ENDBRANCH   1  19
TORSDOF 3
