REMARK  Name = ZINC10703185
REMARK  9 active torsions:
REMARK  status: ('A' for Active; 'I' for Inactive)
REMARK    1  A    between atoms: C_1  and  C_2
REMARK    2  A    between atoms: C_2  and  O_3
REMARK    3  A    between atoms: O_3  and  C_4
REMARK    4  A    between atoms: C_7  and  C_9
REMARK    5  A    between atoms: C_13  and  N_14
REMARK    6  A    between atoms: C_15  and  C_17
REMARK    7  A    between atoms: C_17  and  C_18
REMARK    8  A    between atoms: C_21  and  C_25
REMARK    9  A    between atoms: C_22  and  C_24
REMARK                            x       y       z     vdW  Elec       q    Type
REMARK                         _______ _______ _______ _____ _____    ______ ____
ROOT
ATOM      1  C   UNL     1       1.325   2.061   0.001  0.00  0.00    +0.069 A 
ATOM      2  C   UNL     1       2.292   0.971  -0.011  0.00  0.00    -0.023 A 
ATOM      3  C   UNL     1       1.754  -0.267  -0.017  0.00  0.00    -0.004 A 
ATOM      4  S   UNL     1       0.002  -0.004   0.002  0.00  0.00    -0.077 S 
ATOM      5  C   UNL     1      -0.021   1.728   0.011  0.00  0.00    +0.084 A 
ATOM      6  C   UNL     1       2.477  -1.578  -0.048  0.00  0.00    +0.043 C 
ATOM      7  C   UNL     1       3.579  -1.575   1.020  0.00  0.00    +0.005 C 
ATOM      8  C   UNL     1       4.856  -1.024   0.393  0.00  0.00    +0.001 C 
ATOM      9  C   UNL     1       4.513   0.032  -0.656  0.00  0.00    +0.005 C 
ATOM     10  C   UNL     1       3.796   1.212  -0.010  0.00  0.00    +0.037 C 
ENDROOT
BRANCH   1  14
ATOM     11  C   UNL     1       2.348   5.394  -1.166  0.00  0.00    +0.407 C 
ATOM     12  O   UNL     1       2.538   5.971  -0.114  0.00  0.00    -0.226 OA
ATOM     13  N   UNL     1       1.948   4.107  -1.166  0.00  0.00    -0.217 N 
ATOM     14  C   UNL     1       1.759   3.460   0.001  0.00  0.00    +0.255 C 
ATOM     15  O   UNL     1       1.949   4.038   1.055  0.00  0.00    -0.270 OA
ATOM     16  H   UNL     1       1.796   3.647  -2.006  0.00  0.00    +0.161 HD
BRANCH  11  17
ATOM     17  O   UNL     1       2.536   6.041  -2.332  0.00  0.00    -0.450 OA
BRANCH  17  19
ATOM     18  C   UNL     1       3.127   7.988  -3.669  0.00  0.00    +0.048 C 
ATOM     19  C   UNL     1       2.967   7.425  -2.255  0.00  0.00    +0.230 C 
ENDBRANCH  17  19
ENDBRANCH  11  17
ENDBRANCH   1  14
BRANCH   5  20
ATOM     20  N   UNL     1      -1.119   2.575   0.022  0.00  0.00    -0.279 N 
ATOM     21  C   UNL     1      -2.365   2.062   0.025  0.00  0.00    +0.222 C 
ATOM     22  O   UNL     1      -2.527   0.860   0.020  0.00  0.00    -0.275 OA
ATOM     23  H   UNL     1      -0.989   3.536   0.026  0.00  0.00    +0.155 HD
BRANCH  21  24
ATOM     24  C   UNL     1      -3.558   2.983   0.036  0.00  0.00    +0.131 C 
BRANCH  24  25
ATOM     25  C   UNL     1      -4.824   2.165   0.039  0.00  0.00    -0.038 A 
ATOM     26  C   UNL     1      -5.414   1.801  -1.157  0.00  0.00    +0.004 A 
ATOM     27  C   UNL     1      -6.572   1.046  -1.155  0.00  0.00    +0.004 A 
ATOM     28  C   UNL     1      -7.146   0.665   0.043  0.00  0.00    -0.048 A 
ATOM     29  C   UNL     1      -6.560   1.034   1.239  0.00  0.00    -0.047 A 
ATOM     30  C   UNL     1      -5.398   1.784   1.237  0.00  0.00    +0.007 A 
ATOM     31  C   UNL     1      -7.186   0.619   2.546  0.00  0.00    +0.044 C 
ATOM     32  C   UNL     1      -8.412  -0.153   0.046  0.00  0.00    +0.044 C 
ENDBRANCH  24  25
ENDBRANCH  21  24
ENDBRANCH   5  20
TORSDOF 6
