REMARK  Name = ZINC15946359
REMARK  7 active torsions:
REMARK  status: ('A' for Active; 'I' for Inactive)
REMARK    1  A    between atoms: C_1  and  C_2
REMARK    2  A    between atoms: C_2  and  C_3
REMARK    3  A    between atoms: C_2  and  N_4
REMARK    4  A    between atoms: C_12  and  O_31
REMARK    5  A    between atoms: C_14  and  C_17
REMARK    6  A    between atoms: C_20  and  C_22
REMARK    7  A    between atoms: C_26  and  N_28
REMARK                            x       y       z     vdW  Elec       q    Type
REMARK                         _______ _______ _______ _____ _____    ______ ____
ROOT
ATOM      1  N   UNL     1       0.821  -0.225   1.202  0.00  0.00    +0.384 N 
ATOM      2  C   UNL     1       1.175  -1.647   1.298  0.00  0.00    -0.073 C 
ATOM      3  C   UNL     1       2.272  -1.849   2.348  0.00  0.00    +0.018 C 
ATOM      4  C   UNL     1       1.816  -1.179   3.637  0.00  0.00    -0.027 A 
ATOM      5  C   UNL     1       0.810  -0.272   3.609  0.00  0.00    -0.021 A 
ATOM      6  S   UNL     1       0.616   0.235   5.294  0.00  0.00    -0.080 S 
ATOM      7  C   UNL     1       1.798  -0.692   5.997  0.00  0.00    +0.080 A 
ATOM      8  C   UNL     1       2.372  -1.426   4.951  0.00  0.00    +0.067 A 
ATOM      9  C   UNL     1       3.467  -2.368   5.298  0.00  0.00    +0.220 C 
ATOM     10  N   UNL     1       3.993  -2.276   6.489  0.00  0.00    -0.220 NA
ATOM     11  C   UNL     1       3.624  -1.272   7.479  0.00  0.00    +0.260 C 
ATOM     12  N   UNL     1       2.235  -0.814   7.297  0.00  0.00    -0.311 N 
ATOM     13  C   UNL     1       0.057   0.177   2.398  0.00  0.00    -0.035 C 
ATOM     14  H   UNL     1       1.660  -0.609   8.051  0.00  0.00    +0.149 HD
ATOM     15  H   UNL     1       1.663   0.327   1.140  0.00  0.00    -0.081 HD
ENDROOT
BRANCH  11  16
ATOM     16  C   UNL     1       4.551  -0.090   7.350  0.00  0.00    +0.148 A 
ATOM     17  C   UNL     1       5.830  -0.138   6.928  0.00  0.00    +0.049 A 
ATOM     18  C   UNL     1       6.324   1.182   6.960  0.00  0.00    +0.050 A 
ATOM     19  C   UNL     1       5.308   1.970   7.403  0.00  0.00    +0.135 A 
ATOM     20  O   UNL     1       4.237   1.185   7.630  0.00  0.00    -0.456 OA
BRANCH  19  21
ATOM     21  C   UNL     1       5.368   3.433   7.597  0.00  0.00    +0.019 A 
ATOM     22  C   UNL     1       6.543   4.131   7.312  0.00  0.00    +0.012 A 
ATOM     23  C   UNL     1       6.591   5.498   7.496  0.00  0.00    +0.003 A 
ATOM     24  C   UNL     1       5.479   6.176   7.962  0.00  0.00    +0.033 A 
ATOM     25  C   UNL     1       4.312   5.491   8.246  0.00  0.00    +0.127 A 
ATOM     26  C   UNL     1       4.248   4.125   8.061  0.00  0.00    +0.044 A 
BRANCH  25  27
ATOM     27  N   UNL     1       3.127   6.225   8.744  0.00  0.00    +0.056 N 
ATOM     28  O   UNL     1       3.180   7.423   8.902  0.00  0.00    -0.126 OA
ATOM     29  O   UNL     1       2.106   5.627   8.993  0.00  0.00    -0.126 OA
ENDBRANCH  25  27
ENDBRANCH  19  21
ENDBRANCH  11  16
BRANCH   1  31
ATOM     30  C   UNL     1      -0.450   1.457  -0.045  0.00  0.00    -0.014 C 
ATOM     31  C   UNL     1       0.002  -0.004   0.002  0.00  0.00    -0.074 C 
ATOM     32  C   UNL     1       0.829  -0.323  -1.245  0.00  0.00    -0.014 C 
ENDBRANCH   1  31
BRANCH   9  33
ATOM     33  O   UNL     1       3.904  -3.291   4.409  0.00  0.00    -0.492 OA
ATOM     34  H   UNL     1       4.619  -3.850   4.742  0.00  0.00    +0.294 HD
ENDBRANCH   9  33
TORSDOF 5
