REMARK  Name = ZINC01158668
REMARK  7 active torsions:
REMARK  status: ('A' for Active; 'I' for Inactive)
REMARK    1  A    between atoms: C_1  and  C_2
REMARK    2  A    between atoms: C_5  and  N_9
REMARK    3  A    between atoms: C_6  and  C_8
REMARK    4  A    between atoms: C_10  and  C_12
REMARK    5  A    between atoms: C_13  and  C_30
REMARK    6  A    between atoms: C_18  and  C_20
REMARK    7  A    between atoms: C_24  and  N_26
REMARK                            x       y       z     vdW  Elec       q    Type
REMARK                         _______ _______ _______ _____ _____    ______ ____
ROOT
ATOM      1  C   UNL     1      -2.631   3.428   7.164  0.00  0.00    +0.056 C 
ATOM      2  C   UNL     1      -1.903   3.685   8.271  0.00  0.00    +0.017 C 
ATOM      3  N   UNL     1      -2.504   4.057   9.439  0.00  0.00    -0.300 N 
ATOM      4  C   UNL     1      -3.829   4.186   9.585  0.00  0.00    +0.135 C 
ATOM      5  S   UNL     1      -4.454   4.654  11.108  0.00  0.00    -0.019 S 
ATOM      6  N   UNL     1      -4.687   3.958   8.570  0.00  0.00    -0.315 N 
ATOM      7  C   UNL     1      -4.138   3.555   7.265  0.00  0.00    +0.139 C 
ATOM      8  C   UNL     1      -0.402   3.564   8.216  0.00  0.00    +0.061 C 
ATOM      9  H   UNL     1      -1.940   4.235  10.208  0.00  0.00    +0.154 HD
ATOM     10  H   UNL     1      -5.644   4.056   8.697  0.00  0.00    +0.149 HD
ENDROOT
BRANCH   7  11
ATOM     11  C   UNL     1      -4.742   2.225   6.896  0.00  0.00    -0.020 A 
ATOM     12  C   UNL     1      -4.679   1.167   7.785  0.00  0.00    +0.007 A 
ATOM     13  C   UNL     1      -5.233  -0.053   7.447  0.00  0.00    +0.022 A 
ATOM     14  C   UNL     1      -5.852  -0.216   6.220  0.00  0.00    +0.071 A 
ATOM     15  C   UNL     1      -5.915   0.843   5.332  0.00  0.00    +0.145 A 
ATOM     16  C   UNL     1      -5.365   2.064   5.673  0.00  0.00    +0.040 A 
ATOM     17 CL   UNL     1      -6.548  -1.748   5.796  0.00  0.00    -0.081 Cl
BRANCH  15  18
ATOM     18  N   UNL     1      -6.576   0.669   4.020  0.00  0.00    +0.058 N 
ATOM     19  O   UNL     1      -6.543   1.567   3.197  0.00  0.00    -0.126 OA
ATOM     20  O   UNL     1      -7.154  -0.372   3.762  0.00  0.00    -0.126 OA
ENDBRANCH  15  18
ENDBRANCH   7  11
BRANCH   1  22
ATOM     21  N   UNL     1      -1.519   1.798   5.808  0.00  0.00    -0.281 N 
ATOM     22  C   UNL     1      -2.008   3.046   5.951  0.00  0.00    +0.248 C 
ATOM     23  O   UNL     1      -1.915   3.845   5.036  0.00  0.00    -0.270 OA
ATOM     24  H   UNL     1      -1.681   1.132   6.495  0.00  0.00    +0.155 HD
BRANCH  21  29
ATOM     25  C   UNL     1       1.482   0.439   1.190  0.00  0.00    +0.044 C 
ATOM     26  C   UNL     1       0.685   0.800   2.417  0.00  0.00    -0.050 A 
ATOM     27  C   UNL     1      -0.317   1.750   2.334  0.00  0.00    +0.005 A 
ATOM     28  C   UNL     1      -1.049   2.083   3.456  0.00  0.00    +0.024 A 
ATOM     29  C   UNL     1      -0.779   1.463   4.669  0.00  0.00    +0.037 A 
ATOM     30  C   UNL     1       0.227   0.510   4.749  0.00  0.00    -0.029 A 
ATOM     31  C   UNL     1       0.952   0.177   3.622  0.00  0.00    +0.008 A 
ATOM     32  C   UNL     1       0.524  -0.166   6.064  0.00  0.00    +0.045 C 
ENDBRANCH  21  29
ENDBRANCH   1  22
TORSDOF 4
