REMARK  Name = ZINC63384379
REMARK  10 active torsions:
REMARK  status: ('A' for Active; 'I' for Inactive)
REMARK    1  A    between atoms: C_1  and  C_2
REMARK    2  A    between atoms: C_2  and  C_4
REMARK    3  A    between atoms: C_2  and  N_10
REMARK    4  A    between atoms: C_11  and  C_13
REMARK    5  A    between atoms: C_13  and  C_15
REMARK    6  A    between atoms: C_13  and  N_25
REMARK    7  A    between atoms: C_15  and  C_16
REMARK    8  A    between atoms: C_26  and  C_28
REMARK    9  A    between atoms: C_30  and  C_40
REMARK   10  A    between atoms: C_30  and  C_41
REMARK                            x       y       z     vdW  Elec       q    Type
REMARK                         _______ _______ _______ _____ _____    ______ ____
ROOT
ATOM      1  C   UNL     1      -3.745  -1.470  -1.118  0.00  0.00    +0.163 C 
ENDROOT
BRANCH   1   3
ATOM      2  N   UNL     1      -1.510  -1.072  -0.135  0.00  0.00    -0.307 N 
ATOM      3  C   UNL     1      -2.253  -1.294  -1.237  0.00  0.00    +0.234 C 
ATOM      4  O   UNL     1      -1.720  -1.353  -2.325  0.00  0.00    -0.274 OA
ATOM      5  H   UNL     1      -1.936  -1.025   0.736  0.00  0.00    +0.149 HD
BRANCH   2   7
ATOM      6  C   UNL     1       0.257   0.559  -0.579  0.00  0.00    +0.033 C 
ATOM      7  C   UNL     1      -0.060  -0.901  -0.250  0.00  0.00    +0.100 C 
BRANCH   7   8
ATOM      8  C   UNL     1       0.596  -1.276   1.054  0.00  0.00    -0.027 A 
ATOM      9  C   UNL     1       0.005  -0.919   2.252  0.00  0.00    +0.005 A 
ATOM     10  C   UNL     1       0.606  -1.263   3.448  0.00  0.00    +0.000 A 
ATOM     11  C   UNL     1       1.798  -1.964   3.447  0.00  0.00    +0.000 A 
ATOM     12  C   UNL     1       2.388  -2.321   2.249  0.00  0.00    +0.000 A 
ATOM     13  C   UNL     1       1.784  -1.981   1.053  0.00  0.00    +0.005 A 
ENDBRANCH   7   8
ENDBRANCH   2   7
ENDBRANCH   1   3
BRANCH   1  14
ATOM     14  N   UNL     1      -4.317  -1.697  -2.448  0.00  0.00    -0.302 N 
ATOM     15  C   UNL     1      -4.983  -0.706  -3.073  0.00  0.00    +0.236 C 
ATOM     16  O   UNL     1      -5.176   0.348  -2.504  0.00  0.00    -0.274 OA
ATOM     17  H   UNL     1      -4.217  -2.560  -2.878  0.00  0.00    +0.150 HD
BRANCH  15  18
ATOM     18  C   UNL     1      -5.489  -0.907  -4.478  0.00  0.00    +0.190 C 
ATOM     19  C   UNL     1      -4.470  -0.290  -5.476  0.00  0.00    +0.111 C 
ATOM     20  S   UNL     1      -5.055   1.463  -5.418  0.00  0.00    -0.004 S 
ATOM     21  O   UNL     1      -4.503   2.107  -4.278  0.00  0.00    -0.172 OA
ATOM     22  O   UNL     1      -4.906   2.052  -6.703  0.00  0.00    -0.172 OA
ATOM     23  C   UNL     1      -6.831   1.101  -5.114  0.00  0.00    +0.228 C 
ATOM     24  N   UNL     1      -6.812  -0.289  -4.603  0.00  0.00    -0.265 N 
ATOM     25  C   UNL     1      -7.430   0.044  -3.428  0.00  0.00    +0.221 C 
ATOM     26  O   UNL     1      -7.886  -0.596  -2.504  0.00  0.00    -0.275 OA
ATOM     27  C   UNL     1      -7.334   1.548  -3.741  0.00  0.00    +0.142 C 
ATOM     28  C   UNL     1      -4.622  -0.888  -6.876  0.00  0.00    +0.037 C 
ATOM     29  C   UNL     1      -3.033  -0.421  -4.966  0.00  0.00    +0.037 C 
ENDBRANCH  15  18
ENDBRANCH   1  14
BRANCH   1  30
ATOM     30  C   UNL     1      -4.047  -2.671  -0.221  0.00  0.00    +0.065 C 
BRANCH  30  31
ATOM     31  C   UNL     1      -5.539  -2.825  -0.072  0.00  0.00    -0.039 C 
ATOM     32  C   UNL     1      -6.355  -3.601  -0.821  0.00  0.00    -0.001 A 
ATOM     33  C   UNL     1      -6.108  -4.500  -1.954  0.00  0.00    +0.010 A 
ATOM     34  C   UNL     1      -7.151  -5.158  -2.510  0.00  0.00    +0.001 A 
ATOM     35  C   UNL     1      -8.460  -5.002  -2.031  0.00  0.00    +0.002 A 
ATOM     36  C   UNL     1      -8.765  -4.194  -0.994  0.00  0.00    +0.026 A 
ATOM     37  C   UNL     1      -7.745  -3.454  -0.334  0.00  0.00    +0.043 A 
ATOM     38  N   UNL     1      -7.787  -2.619   0.676  0.00  0.00    -0.380 N 
ATOM     39  C   UNL     1      -6.425  -2.146   0.948  0.00  0.00    +0.144 C 
ATOM     40  H   UNL     1      -8.584  -2.361   1.164  0.00  0.00    +0.160 HD
ENDBRANCH  30  31
ENDBRANCH   1  30
TORSDOF 7
