REMARK  Name = ZINC60354948
REMARK  11 active torsions:
REMARK  status: ('A' for Active; 'I' for Inactive)
REMARK    1  A    between atoms: C_1  and  C_2
REMARK    2  A    between atoms: C_5  and  C_7
REMARK    3  A    between atoms: C_7  and  C_9
REMARK    4  A    between atoms: C_7  and  N_32
REMARK    5  A    between atoms: C_9  and  N_10
REMARK    6  A    between atoms: C_11  and  C_13
REMARK    7  A    between atoms: C_16  and  N_22
REMARK    8  A    between atoms: C_17  and  N_19
REMARK    9  A    between atoms: N_22  and  C_23
REMARK   10  A    between atoms: C_23  and  C_25
REMARK   11  A    between atoms: C_23  and  C_26
REMARK                            x       y       z     vdW  Elec       q    Type
REMARK                         _______ _______ _______ _____ _____    ______ ____
ROOT
ATOM      1  C   UNL     1       4.934  -6.828   1.911  0.00  0.00    +0.039 A 
ATOM      2  C   UNL     1       4.953  -7.161   0.554  0.00  0.00    +0.015 A 
ATOM      3  C   UNL     1       5.692  -8.238   0.121  0.00  0.00    +0.026 A 
ATOM      4  C   UNL     1       6.421  -8.995   1.034  0.00  0.00    +0.058 A 
ATOM      5  C   UNL     1       6.404  -8.667   2.387  0.00  0.00    +0.148 A 
ATOM      6  C   UNL     1       5.671  -7.587   2.825  0.00  0.00    +0.047 A 
ENDROOT
BRANCH   1   8
ATOM      7  N   UNL     1       3.431  -4.944   1.497  0.00  0.00    -0.312 N 
ATOM      8  C   UNL     1       4.142  -5.674   2.378  0.00  0.00    +0.244 C 
ATOM      9  O   UNL     1       4.130  -5.383   3.559  0.00  0.00    -0.270 OA
ATOM     10  H   UNL     1       3.441  -5.176   0.555  0.00  0.00    +0.149 HD
BRANCH   7  11
ATOM     11  C   UNL     1       2.645  -3.798   1.960  0.00  0.00    +0.097 C 
BRANCH  11  12
ATOM     12  C   UNL     1       1.839  -3.226   0.792  0.00  0.00    +0.016 C 
BRANCH  12  17
ATOM     13  C   UNL     1      -2.363  -6.010   0.601  0.00  0.00    +0.086 C 
ATOM     14  C   UNL     1      -1.006  -5.452   0.257  0.00  0.00    +0.102 A 
ATOM     15  C   UNL     1      -0.235  -5.839  -0.775  0.00  0.00    +0.044 A 
ATOM     16  C   UNL     1       0.943  -5.058  -0.722  0.00  0.00    +0.043 A 
ATOM     17  C   UNL     1       0.821  -4.241   0.340  0.00  0.00    +0.093 A 
ATOM     18  O   UNL     1      -0.364  -4.480   0.925  0.00  0.00    -0.466 OA
ENDBRANCH  12  17
BRANCH  12  19
ATOM     19  N   UNL     1       1.151  -2.002   1.224  0.00  0.00    +0.387 N 
ATOM     20  C   UNL     1       2.142  -0.935   1.520  0.00  0.00    -0.078 C 
ATOM     21  C   UNL     1       1.309   0.365   1.397  0.00  0.00    -0.020 C 
ATOM     22  C   UNL     1       0.363   0.060   0.213  0.00  0.00    -0.020 C 
ATOM     23  C   UNL     1       0.308  -1.477   0.129  0.00  0.00    -0.078 C 
ATOM     24  H   UNL     1       0.587  -2.189   2.039  0.00  0.00    -0.081 HD
ENDBRANCH  12  19
ENDBRANCH  11  12
ENDBRANCH   7  11
ENDBRANCH   1   8
BRANCH   5  25
ATOM     25  N   UNL     1       7.179  -9.475   3.354  0.00  0.00    +0.058 N 
ATOM     26  O   UNL     1       6.733  -9.691   4.457  0.00  0.00    -0.126 OA
ATOM     27  O   UNL     1       8.259  -9.920   3.042  0.00  0.00    -0.126 OA
ENDBRANCH   5  25
BRANCH   4  28
ATOM     28  N   UNL     1       7.168 -10.083   0.594  0.00  0.00    -0.334 N 
ATOM     29  H   UNL     1       7.726 -10.572   1.218  0.00  0.00    +0.147 HD
BRANCH  28  30
ATOM     30  C   UNL     1       7.110 -10.490  -0.812  0.00  0.00    +0.116 C 
ATOM     31  C   UNL     1       8.110  -9.662  -1.623  0.00  0.00    +0.034 C 
BRANCH  30  32
ATOM     32  C   UNL     1       7.458 -11.951  -0.927  0.00  0.00    +0.061 A 
ATOM     33  C   UNL     1       6.996 -12.681  -2.007  0.00  0.00    +0.025 A 
ATOM     34  C   UNL     1       7.322 -14.025  -2.103  0.00  0.00    +0.003 A 
ATOM     35  C   UNL     1       8.103 -14.588  -1.105  0.00  0.00    +0.020 A 
ATOM     36  C   UNL     1       8.528 -13.796  -0.055  0.00  0.00    +0.111 A 
ATOM     37  N   UNL     1       8.204 -12.519   0.001  0.00  0.00    -0.258 NA
ENDBRANCH  30  32
ENDBRANCH  28  30
ENDBRANCH   4  28
TORSDOF 9
