REMARK  Name = ZINC66605145
REMARK  9 active torsions:
REMARK  status: ('A' for Active; 'I' for Inactive)
REMARK    1  A    between atoms: C_1  and  C_2
REMARK    2  A    between atoms: C_2  and  C_4
REMARK    3  A    between atoms: C_2  and  N_21
REMARK    4  A    between atoms: C_4  and  C_5
REMARK    5  A    between atoms: N_7  and  C_8
REMARK    6  A    between atoms: C_11  and  N_14
REMARK    7  A    between atoms: N_17  and  C_18
REMARK    8  A    between atoms: C_18  and  C_19
REMARK    9  A    between atoms: C_22  and  C_24
REMARK                            x       y       z     vdW  Elec       q    Type
REMARK                         _______ _______ _______ _____ _____    ______ ____
ROOT
ATOM      1  C   UNL     1       0.835  -2.018   1.153  0.00  0.00    +0.219 C 
ATOM      2  O   UNL     1       0.370  -2.628   0.214  0.00  0.00    -0.275 OA
ATOM      3  N   UNL     1       1.466  -2.681   2.143  0.00  0.00    -0.285 N 
ATOM      4  H   UNL     1       1.896  -2.189   2.859  0.00  0.00    +0.155 HD
ENDROOT
BRANCH   3   5
ATOM      5  C   UNL     1       1.500  -4.082   2.136  0.00  0.00    +0.033 A 
ATOM      6  C   UNL     1       1.441  -4.784   3.333  0.00  0.00    +0.025 A 
ATOM      7  C   UNL     1       1.474  -6.164   3.326  0.00  0.00    +0.025 A 
ATOM      8  C   UNL     1       1.567  -6.850   2.123  0.00  0.00    +0.035 A 
ATOM      9  C   UNL     1       1.626  -6.149   0.926  0.00  0.00    +0.025 A 
ATOM     10  C   UNL     1       1.586  -4.769   0.932  0.00  0.00    +0.025 A 
BRANCH   8  11
ATOM     11  N   UNL     1       1.601  -8.251   2.116  0.00  0.00    -0.269 N 
ATOM     12  C   UNL     1       2.348  -8.902   1.203  0.00  0.00    +0.304 C 
ATOM     13  O   UNL     1       2.924  -8.279   0.332  0.00  0.00    -0.253 OA
ATOM     14  N   UNL     1       2.455 -10.245   1.254  0.00  0.00    -0.296 N 
ATOM     15  H   UNL     1       1.088  -8.752   2.769  0.00  0.00    +0.156 HD
ATOM     16  H   UNL     1       1.996 -10.742   1.948  0.00  0.00    +0.151 HD
BRANCH  14  17
ATOM     17  C   UNL     1       3.267 -10.953   0.260  0.00  0.00    +0.132 C 
BRANCH  17  18
ATOM     18  C   UNL     1       3.221 -12.434   0.538  0.00  0.00    -0.016 C 
ATOM     19  C   UNL     1       2.846 -13.265  -0.402  0.00  0.00    +0.005 C 
ENDBRANCH  17  18
ENDBRANCH  14  17
ENDBRANCH   8  11
ENDBRANCH   3   5
BRANCH   1  20
ATOM     20  C   UNL     1       0.709  -0.517   1.214  0.00  0.00    +0.118 C 
BRANCH  20  22
ATOM     21  C   UNL     1      -0.064   1.511  -0.024  0.00  0.00    +0.028 C 
ATOM     22  C   UNL     1      -0.043  -0.019  -0.022  0.00  0.00    +0.079 C 
BRANCH  22  23
ATOM     23  N   UNL     1      -1.418  -0.525   0.006  0.00  0.00    -0.312 N 
ATOM     24  C   UNL     1      -2.108  -0.665  -1.144  0.00  0.00    +0.216 C 
ATOM     25  O   UNL     1      -1.591  -0.371  -2.201  0.00  0.00    -0.276 OA
ATOM     26  H   UNL     1      -1.831  -0.760   0.851  0.00  0.00    +0.149 HD
BRANCH  24  27
ATOM     27  C   UNL     1      -3.522  -1.186  -1.116  0.00  0.00    +0.075 C 
ATOM     28  C   UNL     1      -3.536  -2.588  -0.503  0.00  0.00    +0.013 C 
ATOM     29  C   UNL     1      -4.972  -3.117  -0.475  0.00  0.00    +0.001 C 
ATOM     30  C   UNL     1      -5.521  -3.177  -1.901  0.00  0.00    +0.000 C 
ATOM     31  C   UNL     1      -5.507  -1.775  -2.514  0.00  0.00    +0.001 C 
ATOM     32  C   UNL     1      -4.071  -1.246  -2.542  0.00  0.00    +0.013 C 
ENDBRANCH  24  27
ENDBRANCH  22  23
ENDBRANCH  20  22
ENDBRANCH   1  20
TORSDOF 8
