REMARK  Name = ZINC10003750
REMARK  13 active torsions:
REMARK  status: ('A' for Active; 'I' for Inactive)
REMARK    1  A    between atoms: C_1  and  C_2
REMARK    2  A    between atoms: C_2  and  N_3
REMARK    3  A    between atoms: N_3  and  C_4
REMARK    4  A    between atoms: N_3  and  C_6
REMARK    5  A    between atoms: C_4  and  C_5
REMARK    6  A    between atoms: C_9  and  S_15
REMARK    7  A    between atoms: C_11  and  N_12
REMARK    8  A    between atoms: S_15  and  N_18
REMARK    9  A    between atoms: C_22  and  C_24
REMARK   10  A    between atoms: N_26  and  CA_27
REMARK   11  A    between atoms: CA_27  and  CB_29
REMARK   12  A    between atoms: CA_27  and  C_33
REMARK   13  A    between atoms: CB_29  and  CG_30
REMARK                            x       y       z     vdW  Elec       q    Type
REMARK                         _______ _______ _______ _____ _____    ______ ____
ROOT
ATOM      1  N   UNK A   0      -3.255  -2.718  -1.662  0.00  0.00    -0.165 NA
ATOM      2  C   UNK A   0      -3.000  -1.268  -1.664  0.00  0.00    +0.110 C 
ATOM      3  C   UNK A   0      -2.969  -0.810  -3.138  0.00  0.00    +0.019 C 
ATOM      4  C   UNK A   0      -2.642  -2.121  -3.902  0.00  0.00    +0.031 C 
ATOM      5  C   UNK A   0      -3.404  -3.172  -3.057  0.00  0.00    +0.165 C 
ENDROOT
BRANCH   5   6
ATOM      6  C   UNK A   0      -2.786  -4.535  -3.234  0.00  0.00    +0.233 C 
ATOM      7  O   UNK A   0      -1.704  -4.779  -2.742  0.00  0.00    -0.274 OA
ATOM      8  N   ASN A   1      -3.434  -5.483  -3.939  0.00  0.00    -0.301 N 
ATOM      9  H   ASN A   1      -4.299  -5.287  -4.332  0.00  0.00    +0.150 HD
BRANCH   8  10
ATOM     10  CA  ASN A   1      -2.833  -6.808  -4.111  0.00  0.00    +0.195 C 
BRANCH  10  11
ATOM     11  C   ASN A   1      -1.891  -6.783  -5.287  0.00  0.00    +0.376 C 
ATOM     12  O   ASN A   1      -1.737  -5.763  -5.916  0.00  0.00    -0.244 OA
ATOM     13  OXT ASN A   1      -1.222  -7.894  -5.634  0.00  0.00    -0.244 OA
ENDBRANCH  10  11
BRANCH  10  14
ATOM     14  CB  ASN A   1      -3.936  -7.839  -4.362  0.00  0.00    +0.129 C 
BRANCH  14  15
ATOM     15  CG  ASN A   1      -4.806  -7.952  -3.138  0.00  0.00    +0.213 C 
ATOM     16  OD1 ASN A   1      -4.569  -7.275  -2.160  0.00  0.00    -0.276 OA
ATOM     17  ND2 ASN A   1      -5.852  -8.802  -3.131  0.00  0.00    -0.329 N 
ATOM     18 HD21 ASN A   1      -6.415  -8.872  -2.344  0.00  0.00    +0.145 HD
ATOM     19 HD22 ASN A   1      -6.042  -9.344  -3.913  0.00  0.00    +0.145 HD
ENDBRANCH  14  15
ENDBRANCH  10  14
ENDBRANCH   8  10
ENDBRANCH   5   6
BRANCH   1  20
ATOM     20  S   UNK A   0      -3.356  -3.680  -0.318  0.00  0.00    +0.062 S 
ATOM     21  O   UNK A   0      -3.281  -5.024  -0.774  0.00  0.00    -0.153 OA
ATOM     22  O   UNK A   0      -2.444  -3.147   0.633  0.00  0.00    -0.153 OA
BRANCH  20  26
ATOM     23  C   UNK A   0      -7.504  -3.130   1.415  0.00  0.00    +0.060 A 
ATOM     24  C   UNK A   0      -7.247  -4.180   0.543  0.00  0.00    +0.027 A 
ATOM     25  C   UNK A   0      -5.982  -4.345   0.016  0.00  0.00    +0.030 A 
ATOM     26  C   UNK A   0      -4.970  -3.466   0.356  0.00  0.00    +0.108 A 
ATOM     27  C   UNK A   0      -5.220  -2.422   1.228  0.00  0.00    +0.063 A 
ATOM     28  C   UNK A   0      -6.485  -2.248   1.754  0.00  0.00    +0.149 A 
BRANCH  28  29
ATOM     29  N   UNK A   0      -6.753  -1.128   2.684  0.00  0.00    +0.058 N 
ATOM     30  O   UNK A   0      -5.859  -0.356   2.981  0.00  0.00    -0.126 OA
ATOM     31  O   UNK A   0      -7.868  -0.978   3.151  0.00  0.00    -0.126 OA
ENDBRANCH  28  29
BRANCH  23  32
ATOM     32  N   UNK A   0      -8.783  -2.960   1.950  0.00  0.00    -0.329 N 
BRANCH  32  34
ATOM     33  C   UNK A   0      -9.636  -1.338   0.326  0.00  0.00    +0.024 C 
ATOM     34  C   UNK A   0      -9.775  -2.755   0.887  0.00  0.00    +0.102 C 
ENDBRANCH  32  34
BRANCH  32  35
ATOM     35  C   UNK A   0      -9.152  -4.098   2.802  0.00  0.00    +0.102 C 
ATOM     36  C   UNK A   0     -10.348  -3.714   3.676  0.00  0.00    +0.024 C 
ENDBRANCH  32  35
ENDBRANCH  23  32
ENDBRANCH  20  26
ENDBRANCH   1  20
TORSDOF 11
