REMARK  Name = ZINC15713947
REMARK  8 active torsions:
REMARK  status: ('A' for Active; 'I' for Inactive)
REMARK    1  A    between atoms: C_1  and  C_2
REMARK    2  A    between atoms: C_5  and  C_25
REMARK    3  A    between atoms: C_6  and  C_8
REMARK    4  A    between atoms: C_8  and  O_10
REMARK    5  A    between atoms: O_10  and  C_11
REMARK    6  A    between atoms: C_11  and  C_13
REMARK    7  A    between atoms: C_11  and  C_14
REMARK    8  A    between atoms: N_19  and  C_20
REMARK                            x       y       z     vdW  Elec       q    Type
REMARK                         _______ _______ _______ _____ _____    ______ ____
ROOT
ATOM      1  C   UNL     1      -3.509  -1.122  -0.791  0.00  0.00    +0.259 C 
ATOM      2  C   UNL     1      -3.718  -1.313  -2.295  0.00  0.00    +0.062 C 
ENDROOT
BRANCH   1   3
ATOM      3  C   UNL     1      -4.736  -0.486  -0.191  0.00  0.00    +0.261 C 
ATOM      4  O   UNL     1      -4.670   0.625   0.291  0.00  0.00    -0.271 OA
ATOM      5  N   UNL     1      -5.908  -1.153  -0.188  0.00  0.00    -0.237 N 
ATOM      6  C   UNL     1      -7.005  -0.585   0.350  0.00  0.00    +0.306 C 
ATOM      7  O   UNL     1      -6.939   0.529   0.832  0.00  0.00    -0.252 OA
ATOM      8  N   UNL     1      -8.177  -1.251   0.352  0.00  0.00    -0.296 N 
ATOM      9  H   UNL     1      -5.961  -2.042  -0.573  0.00  0.00    +0.159 HD
ATOM     10  H   UNL     1      -8.230  -2.140  -0.033  0.00  0.00    +0.151 HD
BRANCH   8  11
ATOM     11  C   UNL     1      -9.370  -0.634   0.936  0.00  0.00    +0.074 C 
ATOM     12  C   UNL     1      -9.440  -0.943   2.446  0.00  0.00    +0.022 C 
ATOM     13  C   UNL     1     -10.950  -1.145   2.723  0.00  0.00    +0.002 C 
ATOM     14  C   UNL     1     -11.434  -1.889   1.454  0.00  0.00    +0.002 C 
ATOM     15  C   UNL     1     -10.637  -1.235   0.305  0.00  0.00    +0.022 C 
ENDBRANCH   8  11
ENDBRANCH   1   3
BRANCH   1  16
ATOM     16  O   UNL     1      -2.360  -0.263  -0.568  0.00  0.00    -0.449 OA
BRANCH  16  17
ATOM     17  C   UNL     1      -1.160  -0.864  -0.451  0.00  0.00    +0.340 C 
ATOM     18  O   UNL     1      -1.076  -2.073  -0.533  0.00  0.00    -0.245 OA
BRANCH  17  24
ATOM     19  C   UNL     1       1.043   3.597  -0.077  0.00  0.00    +0.044 C 
ATOM     20  C   UNL     1       1.118   2.092  -0.041  0.00  0.00    -0.050 A 
ATOM     21  C   UNL     1       2.328   1.468   0.208  0.00  0.00    +0.003 A 
ATOM     22  C   UNL     1       2.405   0.087   0.243  0.00  0.00    +0.004 A 
ATOM     23  C   UNL     1       1.276  -0.677   0.030  0.00  0.00    -0.036 A 
ATOM     24  C   UNL     1       0.053  -0.053  -0.222  0.00  0.00    +0.062 A 
ATOM     25  C   UNL     1      -0.019   1.341  -0.256  0.00  0.00    +0.018 A 
ATOM     26  C   UNL     1       1.363  -2.181   0.068  0.00  0.00    +0.044 C 
ENDBRANCH  17  24
ENDBRANCH  16  17
ENDBRANCH   1  16
TORSDOF 5
