REMARK  Name = ZINC58993419
REMARK  8 active torsions:
REMARK  status: ('A' for Active; 'I' for Inactive)
REMARK    1  A    between atoms: C_3  and  N_31
REMARK    2  A    between atoms: C_6  and  C_7
REMARK    3  A    between atoms: N_8  and  N_9
REMARK    4  A    between atoms: C_12  and  S_15
REMARK    5  A    between atoms: S_15  and  C_16
REMARK    6  A    between atoms: C_16  and  C_17
REMARK    7  A    between atoms: N_19  and  C_20
REMARK    8  A    between atoms: C_24  and  C_26
REMARK                            x       y       z     vdW  Elec       q    Type
REMARK                         _______ _______ _______ _____ _____    ______ ____
ROOT
ATOM      1  N   UNL     1      -2.444  -2.780   0.037  0.00  0.00    -0.205 N 
ATOM      2  C   UNL     1      -2.421  -4.163   0.026  0.00  0.00    +0.232 A 
ATOM      3  N   UNL     1      -1.344  -4.920   0.009  0.00  0.00    -0.186 NA
ATOM      4  C   UNL     1      -1.699  -6.209   0.003  0.00  0.00    +0.211 A 
ATOM      5  N   UNL     1      -3.008  -6.290   0.017  0.00  0.00    -0.144 NA
ATOM      6  N   UNL     1      -3.500  -4.975   0.038  0.00  0.00    -0.245 N 
ATOM      7  H   UNL     1      -3.291  -2.309   0.055  0.00  0.00    +0.177 HD
ATOM      8  H   UNL     1      -4.431  -4.703   0.055  0.00  0.00    +0.192 HD
ENDROOT
BRANCH   1  10
ATOM      9  C   UNL     1      -1.263  -0.762   0.033  0.00  0.00    +0.138 C 
ATOM     10  N   UNL     1      -1.242  -2.060   0.023  0.00  0.00    -0.188 NA
BRANCH   9  16
ATOM     11  C   UNL     1      -0.018   1.393   0.029  0.00  0.00    +0.012 A 
ATOM     12  C   UNL     1       1.169   2.095   0.015  0.00  0.00    +0.033 A 
ATOM     13  C   UNL     1       2.377   1.420  -0.010  0.00  0.00    +0.126 A 
ATOM     14  C   UNL     1       2.403   0.037  -0.021  0.00  0.00    +0.033 A 
ATOM     15  C   UNL     1       1.224  -0.679  -0.007  0.00  0.00    +0.012 A 
ATOM     16  C   UNL     1       0.001  -0.004   0.018  0.00  0.00    -0.005 A 
BRANCH  13  17
ATOM     17  N   UNL     1       3.647   2.182  -0.026  0.00  0.00    +0.056 N 
ATOM     18  O   UNL     1       3.627   3.390  -0.017  0.00  0.00    -0.126 OA
ATOM     19  O   UNL     1       4.703   1.594  -0.047  0.00  0.00    -0.126 OA
ENDBRANCH  13  17
ENDBRANCH   9  16
ENDBRANCH   1  10
BRANCH   4  20
ATOM     20  S   UNL     1      -0.589  -7.577  -0.020  0.00  0.00    -0.075 S 
BRANCH  20  21
ATOM     21  C   UNL     1      -1.679  -9.027  -0.019  0.00  0.00    +0.173 C 
BRANCH  21  22
ATOM     22  C   UNL     1      -0.845 -10.282  -0.038  0.00  0.00    +0.227 C 
ATOM     23  O   UNL     1       0.366 -10.206  -0.051  0.00  0.00    -0.275 OA
ATOM     24  N   UNL     1      -1.444 -11.489  -0.041  0.00  0.00    -0.285 N 
ATOM     25  H   UNL     1      -2.409 -11.552   0.037  0.00  0.00    +0.155 HD
BRANCH  24  26
ATOM     26  C   UNL     1      -0.674 -12.652  -0.156  0.00  0.00    +0.034 A 
ATOM     27  C   UNL     1       0.581 -12.717   0.434  0.00  0.00    +0.025 A 
ATOM     28  C   UNL     1       1.339 -13.866   0.319  0.00  0.00    +0.022 A 
ATOM     29  C   UNL     1       0.848 -14.952  -0.385  0.00  0.00    +0.053 A 
ATOM     30  C   UNL     1      -0.403 -14.890  -0.974  0.00  0.00    +0.075 A 
ATOM     31  C   UNL     1      -1.167 -13.746  -0.856  0.00  0.00    +0.037 A 
ATOM     32 CL   UNL     1       1.803 -16.395  -0.529  0.00  0.00    -0.083 Cl
BRANCH  30  33
ATOM     33  C   UNL     1      -0.934 -16.075  -1.739  0.00  0.00    +0.419 C 
ATOM     34  F   UNL     1      -2.206 -15.775  -2.238  0.00  0.00    -0.166 F 
ATOM     35  F   UNL     1      -0.073 -16.367  -2.803  0.00  0.00    -0.166 F 
ATOM     36  F   UNL     1      -1.016 -17.182  -0.888  0.00  0.00    -0.166 F 
ENDBRANCH  30  33
ENDBRANCH  24  26
ENDBRANCH  21  22
ENDBRANCH  20  21
ENDBRANCH   4  20
TORSDOF 8
