REMARK  Name = ZINC36219998
REMARK  10 active torsions:
REMARK  status: ('A' for Active; 'I' for Inactive)
REMARK    1  A    between atoms: C_1  and  C_2
REMARK    2  A    between atoms: C_2  and  C_3
REMARK    3  A    between atoms: C_2  and  C_4
REMARK    4  A    between atoms: N_6  and  C_7
REMARK    5  A    between atoms: C_11  and  C_13
REMARK    6  A    between atoms: C_15  and  C_29
REMARK    7  A    between atoms: N_17  and  C_21
REMARK    8  A    between atoms: C_21  and  C_22
REMARK    9  A    between atoms: N_31  and  C_32
REMARK   10  A    between atoms: C_32  and  C_33
REMARK                            x       y       z     vdW  Elec       q    Type
REMARK                         _______ _______ _______ _____ _____    ______ ____
ROOT
ATOM      1  C   UNL     1      -4.606  -5.772  -0.139  0.00  0.00    +0.238 C 
ATOM      2  C   UNL     1      -5.101  -6.253   1.246  0.00  0.00    +0.210 C 
ATOM      3  N   UNL     1      -6.064  -7.312   0.883  0.00  0.00    -0.248 N 
ATOM      4  C   UNL     1      -6.338  -7.185  -0.429  0.00  0.00    +0.405 C 
ATOM      5  O   UNL     1      -7.082  -7.930  -1.036  0.00  0.00    -0.226 OA
ATOM      6  O   UNL     1      -5.702  -6.146  -0.997  0.00  0.00    -0.440 OA
ENDROOT
BRANCH   1  11
ATOM      7  C   UNL     1      -2.932  -2.384  -0.075  0.00  0.00    +0.034 A 
ATOM      8  C   UNL     1      -4.028  -1.536  -0.166  0.00  0.00    +0.023 A 
ATOM      9  C   UNL     1      -5.302  -2.062  -0.248  0.00  0.00    +0.002 A 
ATOM     10  C   UNL     1      -5.488  -3.432  -0.239  0.00  0.00    +0.007 A 
ATOM     11  C   UNL     1      -4.399  -4.280  -0.149  0.00  0.00    -0.003 A 
ATOM     12  C   UNL     1      -3.122  -3.760  -0.073  0.00  0.00    +0.030 A 
BRANCH   7  15
ATOM     13  C   UNL     1      -0.693  -2.495   0.722  0.00  0.00    +0.220 C 
ATOM     14  O   UNL     1      -0.984  -3.478   1.370  0.00  0.00    -0.275 OA
ATOM     15  N   UNL     1      -1.640  -1.854   0.008  0.00  0.00    -0.285 N 
ATOM     16  H   UNL     1      -1.425  -1.025  -0.449  0.00  0.00    +0.155 HD
BRANCH  13  18
ATOM     17  C   UNL     1       1.592  -2.890   1.599  0.00  0.00    +0.017 C 
ATOM     18  C   UNL     1       0.727  -1.990   0.715  0.00  0.00    +0.069 C 
ATOM     19  C   UNL     1       1.267  -2.008  -0.716  0.00  0.00    +0.017 C 
ENDBRANCH  13  18
ENDBRANCH   7  15
ENDBRANCH   1  11
BRANCH   2  20
ATOM     20  C   UNL     1      -5.783  -5.134   1.989  0.00  0.00    +0.238 C 
ATOM     21  O   UNL     1      -6.994  -5.069   2.010  0.00  0.00    -0.274 OA
ATOM     22  N   UNL     1      -5.047  -4.205   2.631  0.00  0.00    -0.311 N 
ATOM     23  H   UNL     1      -4.079  -4.256   2.614  0.00  0.00    +0.149 HD
BRANCH  22  24
ATOM     24  C   UNL     1      -5.710  -3.116   3.354  0.00  0.00    +0.135 C 
BRANCH  24  25
ATOM     25  C   UNL     1      -4.654  -2.208   3.988  0.00  0.00    +0.135 C 
ATOM     26  C   UNL     1      -5.343  -1.129   4.852  0.00  0.00    +0.035 C 
ATOM     27  C   UNL     1      -4.480   0.129   4.557  0.00  0.00    +0.031 C 
ATOM     28  C   UNL     1      -4.103  -0.115   3.074  0.00  0.00    +0.160 C 
ATOM     29  O   UNL     1      -3.913  -1.536   2.963  0.00  0.00    -0.375 OA
ENDBRANCH  24  25
ENDBRANCH  22  24
ENDBRANCH   2  20
BRANCH   3  30
ATOM     30  C   UNL     1      -6.620  -8.320   1.788  0.00  0.00    +0.147 C 
BRANCH  30  31
ATOM     31  C   UNL     1      -7.888  -7.793   2.409  0.00  0.00    -0.029 A 
ATOM     32  C   UNL     1      -7.835  -7.084   3.595  0.00  0.00    +0.005 A 
ATOM     33  C   UNL     1      -8.998  -6.600   4.164  0.00  0.00    +0.002 A 
ATOM     34  C   UNL     1     -10.215  -6.824   3.548  0.00  0.00    +0.020 A 
ATOM     35  C   UNL     1     -10.269  -7.533   2.362  0.00  0.00    +0.041 A 
ATOM     36  C   UNL     1      -9.104  -8.012   1.789  0.00  0.00    +0.025 A 
ATOM     37 CL   UNL     1     -11.797  -7.815   1.588  0.00  0.00    -0.084 Cl
ENDBRANCH  30  31
ENDBRANCH   3  30
TORSDOF 8
