REMARK  Name = ZINC09861006
REMARK  10 active torsions:
REMARK  status: ('A' for Active; 'I' for Inactive)
REMARK    1  A    between atoms: C_1  and  C_2
REMARK    2  A    between atoms: C_2  and  C_3
REMARK    3  A    between atoms: C_2  and  C_4
REMARK    4  A    between atoms: C_2  and  C_5
REMARK    5  A    between atoms: C_11  and  C_19
REMARK    6  A    between atoms: C_13  and  C_17
REMARK    7  A    between atoms: C_14  and  N_16
REMARK    8  A    between atoms: C_22  and  O_25
REMARK    9  A    between atoms: O_25  and  C_26
REMARK   10  A    between atoms: C_26  and  C_28
REMARK                            x       y       z     vdW  Elec       q    Type
REMARK                         _______ _______ _______ _____ _____    ______ ____
ROOT
ATOM      1  C   UNL     1       0.717  -0.473  -1.237  0.00  0.00    +0.059 C 
ATOM      2  N   UNL     1       1.331   0.244  -2.122  0.00  0.00    -0.154 NA
ATOM      3  N   UNL     1       1.920  -0.530  -3.122  0.00  0.00    -0.115 NA
ATOM      4  C   UNL     1       1.759  -1.786  -2.915  0.00  0.00    +0.227 C 
ATOM      5  C   UNL     1       0.872  -1.909  -1.678  0.00  0.00    +0.136 C 
ATOM      6  C   UNL     1       1.687  -2.719  -0.662  0.00  0.00    +0.082 C 
ATOM      7  C   UNL     1       2.366  -3.855  -1.379  0.00  0.00    +0.095 C 
ATOM      8  C   UNL     1       2.600  -3.887  -2.708  0.00  0.00    +0.200 C 
ATOM      9  O   UNL     1       2.220  -2.885  -3.549  0.00  0.00    -0.425 OA
ENDROOT
BRANCH   6  10
ATOM     10  C   UNL     1       2.722  -1.830  -0.023  0.00  0.00    -0.038 A 
ATOM     11  C   UNL     1       3.630  -1.149  -0.813  0.00  0.00    +0.008 A 
ATOM     12  C   UNL     1       4.580  -0.334  -0.229  0.00  0.00    +0.046 A 
ATOM     13  C   UNL     1       4.623  -0.199   1.151  0.00  0.00    +0.132 A 
ATOM     14  C   UNL     1       3.711  -0.883   1.941  0.00  0.00    +0.046 A 
ATOM     15  C   UNL     1       2.760  -1.693   1.352  0.00  0.00    +0.008 A 
BRANCH  13  16
ATOM     16  O   UNL     1       5.557   0.603   1.728  0.00  0.00    -0.422 OA
BRANCH  16  17
ATOM     17  C   UNL     1       6.512   0.021   2.479  0.00  0.00    +0.346 C 
ATOM     18  O   UNL     1       6.579  -1.190   2.547  0.00  0.00    -0.244 OA
BRANCH  17  19
ATOM     19  C   UNL     1       7.478   0.856   3.222  0.00  0.00    +0.078 A 
ATOM     20  C   UNL     1       7.401   2.248   3.151  0.00  0.00    +0.016 A 
ATOM     21  C   UNL     1       8.305   3.022   3.847  0.00  0.00    +0.001 A 
ATOM     22  C   UNL     1       9.289   2.422   4.615  0.00  0.00    +0.001 A 
ATOM     23  C   UNL     1       9.373   1.044   4.690  0.00  0.00    +0.021 A 
ATOM     24  C   UNL     1       8.470   0.256   4.002  0.00  0.00    +0.055 A 
ATOM     25 CL   UNL     1       8.571  -1.474   4.103  0.00  0.00    -0.083 Cl
ENDBRANCH  17  19
ENDBRANCH  16  17
ENDBRANCH  13  16
ENDBRANCH   6  10
BRANCH   1  27
ATOM     26  C   UNL     1      -1.236   0.825  -0.431  0.00  0.00    +0.017 C 
ATOM     27  C   UNL     1      -0.003   0.024  -0.010  0.00  0.00    +0.003 C 
ATOM     28  C   UNL     1       0.934   0.920   0.803  0.00  0.00    +0.017 C 
ATOM     29  C   UNL     1      -0.436  -1.168   0.846  0.00  0.00    +0.017 C 
ENDBRANCH   1  27
BRANCH   8  30
ATOM     30  N   UNL     1       3.243  -4.979  -3.236  0.00  0.00    -0.328 N 
ATOM     31  H   UNL     1       3.519  -5.706  -2.656  0.00  0.00    +0.145 HD
ATOM     32  H   UNL     1       3.421  -5.023  -4.188  0.00  0.00    +0.145 HD
ENDBRANCH   8  30
BRANCH   7  33
ATOM     33  C   UNL     1       2.794  -4.977  -0.599  0.00  0.00    +0.100 C 
ATOM     34  N   UNL     1       3.133  -5.867   0.020  0.00  0.00    -0.191 NA
ENDBRANCH   7  33
TORSDOF 7
