REMARK  Name = ZINC27202298
REMARK  10 active torsions:
REMARK  status: ('A' for Active; 'I' for Inactive)
REMARK    1  A    between atoms: C_1  and  C_2
REMARK    2  A    between atoms: C_6  and  C_25
REMARK    3  A    between atoms: C_7  and  O_8
REMARK    4  A    between atoms: O_8  and  C_9
REMARK    5  A    between atoms: C_9  and  C_11
REMARK    6  A    between atoms: C_9  and  C_12
REMARK    7  A    between atoms: N_14  and  N_15
REMARK    8  A    between atoms: C_16  and  C_18
REMARK    9  A    between atoms: C_18  and  C_20
REMARK   10  A    between atoms: C_18  and  N_21
REMARK                            x       y       z     vdW  Elec       q    Type
REMARK                         _______ _______ _______ _____ _____    ______ ____
ROOT
ATOM      1  C   UNL     1      -5.894  -0.043   2.613  0.00  0.00    +0.270 C 
ATOM      2  O   UNL     1      -5.715   0.868   1.832  0.00  0.00    -0.270 OA
ATOM      3  N   UNL     1      -4.839  -0.698   3.136  0.00  0.00    -0.231 N 
ATOM      4  H   UNL     1      -5.001  -1.524   3.845  0.00  0.00    +0.173 HD
ENDROOT
BRANCH   3   5
ATOM      5  N   UNL     1      -3.536  -0.328   2.777  0.00  0.00    -0.233 N 
ATOM      6  C   UNL     1      -2.481  -0.984   3.300  0.00  0.00    +0.249 C 
ATOM      7  O   UNL     1      -2.660  -1.894   4.082  0.00  0.00    -0.272 OA
ATOM      8  H   UNL     1      -3.374   0.497   2.069  0.00  0.00    +0.173 HD
BRANCH   6   9
ATOM      9  C   UNL     1      -1.080  -0.586   2.915  0.00  0.00    +0.159 C 
ATOM     10  C   UNL     1      -0.902  -0.746   1.403  0.00  0.00    +0.038 C 
BRANCH   9  11
ATOM     11  N   UNL     1      -0.119  -1.443   3.613  0.00  0.00    -0.288 N 
ATOM     12  C   UNL     1       1.135  -1.005   3.839  0.00  0.00    +0.298 C 
ATOM     13  O   UNL     1       1.468   0.104   3.468  0.00  0.00    -0.253 OA
ATOM     14  N   UNL     1       2.021  -1.796   4.476  0.00  0.00    -0.313 N 
ATOM     15  H   UNL     1      -0.421  -2.445   3.952  0.00  0.00    +0.151 HD
ATOM     16  H   UNL     1       3.045  -1.438   4.661  0.00  0.00    +0.146 HD
ATOM     17  H   UNL     1       1.720  -2.799   4.812  0.00  0.00    +0.146 HD
ENDBRANCH   9  11
ENDBRANCH   6   9
ENDBRANCH   3   5
BRANCH   1  18
ATOM     18  C   UNL     1      -7.295  -0.440   2.999  0.00  0.00    +0.257 C 
ATOM     19  C   UNL     1      -7.512  -0.163   4.488  0.00  0.00    +0.062 C 
BRANCH  18  20
ATOM     20  O   UNL     1      -8.234   0.316   2.232  0.00  0.00    -0.479 OA
BRANCH  20  27
ATOM     21  C   UNL     1      -8.304  -1.435   0.017  0.00  0.00    +0.047 C 
ATOM     22  C   UNL     1      -9.515  -1.152   0.867  0.00  0.00    -0.007 A 
ATOM     23  C   UNL     1     -10.720  -1.762   0.579  0.00  0.00    +0.027 A 
ATOM     24  C   UNL     1     -11.834  -1.498   1.356  0.00  0.00    +0.042 A 
ATOM     25  C   UNL     1     -11.742  -0.627   2.427  0.00  0.00    +0.027 A 
ATOM     26  C   UNL     1     -10.538  -0.019   2.722  0.00  0.00    -0.007 A 
ATOM     27  C   UNL     1      -9.420  -0.282   1.944  0.00  0.00    +0.127 A 
ATOM     28  C   UNL     1     -10.438   0.931   3.888  0.00  0.00    +0.047 C 
ATOM     29 CL   UNL     1     -13.349  -2.262   0.988  0.00  0.00    -0.084 Cl
ENDBRANCH  20  27
ENDBRANCH  18  20
ENDBRANCH   1  18
TORSDOF 6
