REMARK  Name = ZINC63111101
REMARK  5 active torsions:
REMARK  status: ('A' for Active; 'I' for Inactive)
REMARK    1  A    between atoms: C_6  and  C_7
REMARK    2  A    between atoms: C_11  and  C_21
REMARK    3  A    between atoms: C_15  and  C_17
REMARK    4  A    between atoms: N_23  and  C_24
REMARK    5  A    between atoms: C_24  and  C_25
REMARK                            x       y       z     vdW  Elec       q    Type
REMARK                         _______ _______ _______ _____ _____    ______ ____
ROOT
ATOM      1  C   UNL     1      -1.268  -0.763   0.010  0.00  0.00    +0.050 C 
ATOM      2  N   UNL     1      -2.417  -0.119   0.019  0.00  0.00    -0.342 N 
ATOM      3  C   UNL     1      -3.594  -0.794   0.026  0.00  0.00    +0.116 C 
ATOM      4  C   UNL     1      -4.853  -0.309   0.035  0.00  0.00    +0.045 C 
ATOM      5  C   UNL     1      -5.780  -1.503   0.040  0.00  0.00    +0.185 C 
ATOM      6  N   UNL     1      -4.878  -2.668   0.032  0.00  0.00    -0.218 NA
ATOM      7  N   UNL     1      -3.599  -2.181   0.024  0.00  0.00    -0.215 N 
ATOM      8  C   UNL     1      -2.405  -2.864   0.015  0.00  0.00    +0.133 C 
ATOM      9  C   UNL     1      -1.245  -2.180   0.002  0.00  0.00    +0.055 C 
ATOM     10  H   UNL     1      -5.037  -3.254   0.838  0.00  0.00    +0.146 HD
ATOM     11  H   UNL     1      -2.422   0.851   0.021  0.00  0.00    +0.167 HD
ENDROOT
BRANCH   1  17
ATOM     12  C   UNL     1      -0.017   1.391   0.010  0.00  0.00    +0.014 A 
ATOM     13  C   UNL     1       1.168   2.097   0.002  0.00  0.00    +0.050 A 
ATOM     14  C   UNL     1       2.381   1.424  -0.013  0.00  0.00    +0.166 A 
ATOM     15  C   UNL     1       2.406   0.029  -0.021  0.00  0.00    +0.167 A 
ATOM     16  C   UNL     1       1.222  -0.682  -0.013  0.00  0.00    +0.059 A 
ATOM     17  C   UNL     1       0.002  -0.004   0.002  0.00  0.00    +0.002 A 
ATOM     18  O   UNL     1       3.708  -0.383  -0.037  0.00  0.00    -0.453 OA
ATOM     19  C   UNL     1       4.470   0.767  -0.451  0.00  0.00    +0.466 C 
ATOM     20  O   UNL     1       3.666   1.883  -0.024  0.00  0.00    -0.453 OA
ENDBRANCH   1  17
BRANCH   8  21
ATOM     21  C   UNL     1      -2.396  -4.371   0.012  0.00  0.00    +0.432 C 
ATOM     22  F   UNL     1      -1.074  -4.829   0.003  0.00  0.00    -0.165 F 
ATOM     23  F   UNL     1      -3.045  -4.844   1.158  0.00  0.00    -0.165 F 
ATOM     24  F   UNL     1      -3.060  -4.840  -1.126  0.00  0.00    -0.165 F 
ENDBRANCH   8  21
BRANCH   5  25
ATOM     25  C   UNL     1      -6.633  -1.503   1.282  0.00  0.00    +0.236 C 
ATOM     26  O   UNL     1      -6.557  -2.422   2.070  0.00  0.00    -0.274 OA
ATOM     27  N   UNL     1      -7.479  -0.481   1.518  0.00  0.00    -0.311 N 
ATOM     28  H   UNL     1      -7.540   0.254   0.888  0.00  0.00    +0.149 HD
BRANCH  27  29
ATOM     29  C   UNL     1      -8.309  -0.481   2.726  0.00  0.00    +0.133 C 
BRANCH  29  30
ATOM     30  C   UNL     1      -9.172   0.781   2.751  0.00  0.00    +0.120 C 
ATOM     31  C   UNL     1     -10.163   0.712   3.892  0.00  0.00    +0.009 C 
ATOM     32  C   UNL     1     -11.390   0.760   3.326  0.00  0.00    -0.003 A 
ATOM     33  C   UNL     1     -12.746   0.732   3.888  0.00  0.00    +0.029 A 
ATOM     34  C   UNL     1     -13.806   0.796   3.049  0.00  0.00    +0.042 A 
ATOM     35  C   UNL     1     -13.641   0.888   1.659  0.00  0.00    +0.022 A 
ATOM     36  C   UNL     1     -12.427   0.919   1.069  0.00  0.00    +0.027 A 
ATOM     37  C   UNL     1     -11.244   0.857   1.856  0.00  0.00    +0.043 A 
ATOM     38  N   UNL     1      -9.974   0.871   1.525  0.00  0.00    -0.376 N 
ATOM     39 CL   UNL     1     -15.411   0.764   3.709  0.00  0.00    -0.084 Cl
ATOM     40  H   UNL     1      -9.623   0.929   0.623  0.00  0.00    +0.160 HD
ENDBRANCH  29  30
ENDBRANCH  27  29
ENDBRANCH   5  25
TORSDOF 5
