REMARK  Name = ZINC18126928
REMARK  2 active torsions:
REMARK  status: ('A' for Active; 'I' for Inactive)
REMARK    1  A    between atoms: C_6  and  N_7
REMARK    2  A    between atoms: C_13  and  C_18
REMARK                            x       y       z     vdW  Elec       q    Type
REMARK                         _______ _______ _______ _____ _____    ______ ____
ROOT
ATOM      1  N   UNL     1      -3.490   1.859   0.180  0.00  0.00    -0.328 N 
ATOM      2  C   UNL     1      -2.517   1.392  -0.675  0.00  0.00    +0.180 C 
ATOM      3  N   UNL     1      -2.686   0.261  -1.299  0.00  0.00    -0.371 N 
ATOM      4  N   UNL     1      -1.365   2.122  -0.872  0.00  0.00    -0.296 N 
ATOM      5  C   UNL     1      -0.385   1.652  -1.734  0.00  0.00    +0.234 A 
ATOM      6  N   UNL     1       0.714   2.369  -1.916  0.00  0.00    -0.208 NA
ATOM      7  C   UNL     1       1.669   1.956  -2.735  0.00  0.00    +0.153 A 
ATOM      8  C   UNL     1       1.510   0.758  -3.407  0.00  0.00    +0.104 A 
ATOM      9  C   UNL     1       0.343   0.026  -3.196  0.00  0.00    +0.275 A 
ATOM     10  N   UNL     1      -0.573   0.501  -2.360  0.00  0.00    -0.173 NA
ATOM     11  O   UNL     1       0.146  -1.153  -3.833  0.00  0.00    -0.266 OA
ATOM     12  H   UNL     1      -3.393   2.858   0.630  0.00  0.00    +0.169 HD
ATOM     13  H   UNL     1      -1.909  -0.112  -1.983  0.00  0.00    +0.159 HD
ATOM     14  H   UNL     1      -1.222   3.078  -0.345  0.00  0.00    +0.172 HD
ATOM     15  H   UNL     1      -3.606  -0.321  -1.142  0.00  0.00    +0.159 HD
ENDROOT
BRANCH   1  21
ATOM     16  C   UNL     1      -4.454  -0.312   0.621  0.00  0.00    +0.028 A 
ATOM     17  C   UNL     1      -5.551  -1.096   0.920  0.00  0.00    +0.040 A 
ATOM     18  C   UNL     1      -6.800  -0.515   1.064  0.00  0.00    +0.124 A 
ATOM     19  C   UNL     1      -6.950   0.854   0.915  0.00  0.00    +0.040 A 
ATOM     20  C   UNL     1      -5.854   1.642   0.623  0.00  0.00    +0.028 A 
ATOM     21  C   UNL     1      -4.601   1.061   0.477  0.00  0.00    +0.042 A 
ATOM     22  F   UNL     1      -7.872  -1.284   1.350  0.00  0.00    -0.205 F 
ENDBRANCH   1  21
BRANCH   7  23
ATOM     23  C   UNL     1       2.914   2.781  -2.932  0.00  0.00    +0.435 C 
ATOM     24  F   UNL     1       2.720   3.674  -3.991  0.00  0.00    -0.164 F 
ATOM     25  F   UNL     1       3.188   3.498  -1.762  0.00  0.00    -0.164 F 
ATOM     26  F   UNL     1       3.991   1.937  -3.225  0.00  0.00    -0.164 F 
ENDBRANCH   7  23
TORSDOF 2
