REMARK  Name = ZINC04562824
REMARK  6 active torsions:
REMARK  status: ('A' for Active; 'I' for Inactive)
REMARK    1  A    between atoms: C_5  and  C_7
REMARK    2  A    between atoms: C_7  and  O_9
REMARK    3  A    between atoms: O_9  and  C_10
REMARK    4  A    between atoms: C_12  and  N_25
REMARK    5  A    between atoms: N_13  and  S_15
REMARK    6  A    between atoms: S_15  and  C_18
REMARK                            x       y       z     vdW  Elec       q    Type
REMARK                         _______ _______ _______ _____ _____    ______ ____
ROOT
ATOM      1  C   UNL     1      -2.442  -2.747   0.010  0.00  0.00    +0.246 A 
ATOM      2  C   UNL     1      -2.635  -4.136   0.004  0.00  0.00    +0.114 A 
ATOM      3  C   UNL     1      -3.975  -4.370   0.016  0.00  0.00    +0.143 A 
ATOM      4  N   UNL     1      -4.602  -3.166   0.029  0.00  0.00    -0.112 N 
ATOM      5  N   UNL     1      -3.618  -2.168   0.029  0.00  0.00    -0.110 NA
ENDROOT
BRANCH   4   6
ATOM      6  S   UNL     1      -6.239  -2.919   0.046  0.00  0.00    +0.101 S 
ATOM      7  O   UNL     1      -6.461  -1.624  -0.496  0.00  0.00    -0.146 OA
ATOM      8  O   UNL     1      -6.832  -4.087  -0.505  0.00  0.00    -0.146 OA
BRANCH   6   9
ATOM      9  C   UNL     1      -6.738  -2.851   1.734  0.00  0.00    +0.113 A 
ATOM     10  C   UNL     1      -7.117  -4.007   2.390  0.00  0.00    +0.030 A 
ATOM     11  C   UNL     1      -7.503  -3.955   3.716  0.00  0.00    +0.022 A 
ATOM     12  C   UNL     1      -7.521  -2.744   4.384  0.00  0.00    +0.041 A 
ATOM     13  C   UNL     1      -7.146  -1.586   3.726  0.00  0.00    +0.022 A 
ATOM     14  C   UNL     1      -6.755  -1.640   2.401  0.00  0.00    +0.030 A 
ATOM     15 CL   UNL     1      -8.011  -2.676   6.048  0.00  0.00    -0.084 Cl
ENDBRANCH   6   9
ENDBRANCH   4   6
BRANCH   3  16
ATOM     16  N   UNL     1      -4.592  -5.618   0.015  0.00  0.00    -0.342 N 
ATOM     17  H   UNL     1      -4.054  -6.425   0.006  0.00  0.00    +0.144 HD
ATOM     18  H   UNL     1      -5.560  -5.681   0.025  0.00  0.00    +0.144 HD
ENDBRANCH   3  16
BRANCH   1  19
ATOM     19  O   UNL     1      -1.241  -2.110   0.002  0.00  0.00    -0.402 OA
BRANCH  19  20
ATOM     20  C   UNL     1      -1.263  -0.763   0.009  0.00  0.00    +0.349 C 
ATOM     21  O   UNL     1      -2.325  -0.173   0.022  0.00  0.00    -0.244 OA
BRANCH  20  26
ATOM     22  C   UNL     1       2.404   0.036  -0.021  0.00  0.00    +0.001 A 
ATOM     23  C   UNL     1       2.379   1.421  -0.013  0.00  0.00    +0.003 A 
ATOM     24  C   UNL     1       1.174   2.098   0.002  0.00  0.00    +0.039 A 
ATOM     25  C   UNL     1      -0.017   1.395   0.010  0.00  0.00    +0.137 A 
ATOM     26  C   UNL     1       0.002  -0.004   0.002  0.00  0.00    +0.095 A 
ATOM     27  C   UNL     1       1.226  -0.679  -0.013  0.00  0.00    +0.018 A 
ATOM     28  F   UNL     1      -1.195   2.057   0.019  0.00  0.00    -0.205 F 
ENDBRANCH  20  26
ENDBRANCH  19  20
ENDBRANCH   1  19
TORSDOF 6
