REMARK  Name = ZINC33113666
REMARK  12 active torsions:
REMARK  status: ('A' for Active; 'I' for Inactive)
REMARK    1  A    between atoms: C_1  and  C_2
REMARK    2  A    between atoms: C_2  and  O_3
REMARK    3  A    between atoms: O_3  and  C_4
REMARK    4  A    between atoms: C_4  and  C_6
REMARK    5  A    between atoms: C_11  and  O_19
REMARK    6  A    between atoms: C_14  and  N_15
REMARK    7  A    between atoms: C_16  and  C_18
REMARK    8  A    between atoms: O_19  and  C_20
REMARK    9  A    between atoms: C_20  and  C_22
REMARK   10  A    between atoms: C_20  and  C_23
REMARK   11  A    between atoms: N_25  and  C_26
REMARK   12  A    between atoms: C_31  and  C_32
REMARK                            x       y       z     vdW  Elec       q    Type
REMARK                         _______ _______ _______ _____ _____    ______ ____
ROOT
ATOM      1  C   UNL     1       3.795  -0.332   8.677  0.00  0.00    +0.095 A 
ATOM      2  C   UNL     1       2.348  -0.116   8.580  0.00  0.00    +0.009 A 
ATOM      3  C   UNL     1       1.488   0.479   9.531  0.00  0.00    +0.011 A 
ATOM      4  C   UNL     1       0.145   0.607   9.281  0.00  0.00    +0.019 A 
ATOM      5  C   UNL     1      -0.412   0.158   8.093  0.00  0.00    +0.061 A 
ATOM      6  C   UNL     1       0.405  -0.430   7.139  0.00  0.00    +0.150 A 
ATOM      7  C   UNL     1       1.758  -0.567   7.388  0.00  0.00    +0.065 A 
ATOM      8  S   UNL     1       3.108  -1.249   6.460  0.00  0.00    -0.069 S 
ATOM      9  C   UNL     1       4.431  -0.958   7.617  0.00  0.00    +0.087 A 
ATOM     10 BR   UNL     1      -2.266   0.347   7.776  0.00  0.00    -0.046 Br
ENDROOT
BRANCH   9  11
ATOM     11  N   UNL     1       5.771  -1.269   7.484  0.00  0.00    -0.280 N 
ATOM     12  C   UNL     1       6.214  -1.872   6.364  0.00  0.00    +0.214 C 
ATOM     13  O   UNL     1       5.438  -2.142   5.472  0.00  0.00    -0.276 OA
ATOM     14  C   UNL     1       7.676  -2.211   6.218  0.00  0.00    +0.109 C 
ATOM     15  H   UNL     1       6.475  -1.024   8.293  0.00  0.00    +0.155 HD
ENDBRANCH   9  11
BRANCH   1  16
ATOM     16  C   UNL     1       4.518   0.070   9.828  0.00  0.00    +0.342 C 
ATOM     17  O   UNL     1       4.658  -0.702  10.759  0.00  0.00    -0.245 OA
BRANCH  16  18
ATOM     18  O   UNL     1       5.051   1.308   9.892  0.00  0.00    -0.461 OA
BRANCH  18  20
ATOM     19  C   UNL     1       6.294   3.077  10.970  0.00  0.00    +0.048 C 
ATOM     20  C   UNL     1       5.767   1.645  11.081  0.00  0.00    +0.229 C 
ENDBRANCH  18  20
ENDBRANCH  16  18
ENDBRANCH   1  16
BRANCH   6  21
ATOM     21  O   UNL     1      -0.123  -0.876   5.968  0.00  0.00    -0.478 OA
BRANCH  21  22
ATOM     22  C   UNL     1      -0.169   0.052   4.882  0.00  0.00    +0.256 C 
ATOM     23  C   UNL     1      -1.494   0.817   4.920  0.00  0.00    +0.062 C 
BRANCH  22  24
ATOM     24  C   UNL     1      -0.057  -0.694   3.578  0.00  0.00    +0.258 C 
ATOM     25  O   UNL     1      -0.040  -1.907   3.573  0.00  0.00    -0.271 OA
ATOM     26  N   UNL     1       0.025  -0.015   2.417  0.00  0.00    -0.282 N 
ATOM     27  H   UNL     1       0.084   1.084   2.426  0.00  0.00    +0.155 HD
BRANCH  26  28
ATOM     28  C   UNL     1       0.034  -0.706   1.201  0.00  0.00    +0.036 A 
ATOM     29  C   UNL     1       0.656  -1.944   1.109  0.00  0.00    +0.023 A 
ATOM     30  C   UNL     1       0.662  -2.625  -0.093  0.00  0.00    +0.002 A 
ATOM     31  C   UNL     1       0.050  -2.074  -1.204  0.00  0.00    +0.000 A 
ATOM     32  C   UNL     1      -0.574  -0.844  -1.115  0.00  0.00    +0.005 A 
ATOM     33  C   UNL     1      -0.580  -0.156   0.083  0.00  0.00    -0.029 A 
ATOM     34  C   UNL     1      -1.256   1.188   0.178  0.00  0.00    +0.045 C 
ENDBRANCH  26  28
ENDBRANCH  22  24
ENDBRANCH  21  22
ENDBRANCH   6  21
TORSDOF 8
