REMARK  Name = ZINC22239437
REMARK  6 active torsions:
REMARK  status: ('A' for Active; 'I' for Inactive)
REMARK    1  A    between atoms: C_1  and  C_2
REMARK    2  A    between atoms: C_2  and  C_4
REMARK    3  A    between atoms: C_2  and  S_15
REMARK    4  A    between atoms: C_4  and  C_6
REMARK    5  A    between atoms: S_15  and  C_16
REMARK    6  A    between atoms: N_20  and  C_21
REMARK                            x       y       z     vdW  Elec       q    Type
REMARK                         _______ _______ _______ _____ _____    ______ ____
ROOT
ATOM      1  S   UNL     1      -0.630   3.439   0.607  0.00  0.00    -0.075 S 
ENDROOT
BRANCH   1   2
ATOM      2  C   UNL     1       0.994   3.860   1.146  0.00  0.00    +0.194 A 
ATOM      3  N   UNL     1       1.990   3.025   1.317  0.00  0.00    -0.121 NA
ATOM      4  N   UNL     1       3.102   3.760   1.750  0.00  0.00    -0.112 NA
ATOM      5  C   UNL     1       2.749   5.019   1.829  0.00  0.00    +0.221 A 
ATOM      6  N   UNL     1       1.439   5.115   1.453  0.00  0.00    -0.287 N 
ATOM      7  N   UNL     1       3.565   6.072   2.222  0.00  0.00    -0.295 N 
ATOM      8  C   UNL     1       3.616   7.114   1.185  0.00  0.00    +0.136 C 
ATOM      9  C   UNL     1       4.476   8.279   1.683  0.00  0.00    +0.179 C 
ATOM     10  O   UNL     1       5.776   7.792   2.026  0.00  0.00    -0.377 OA
ATOM     11  C   UNL     1       5.763   6.777   3.034  0.00  0.00    +0.179 C 
ATOM     12  C   UNL     1       4.917   5.597   2.550  0.00  0.00    +0.136 C 
BRANCH   6  13
ATOM     13  C   UNL     1       0.649   6.348   1.393  0.00  0.00    +0.093 C 
ATOM     14  C   UNL     1      -0.874   6.209   1.359  0.00  0.00    +0.027 C 
ATOM     15  C   UNL     1      -0.116   6.634   0.099  0.00  0.00    +0.027 C 
ENDBRANCH   6  13
ENDBRANCH   1   2
BRANCH   1  17
ATOM     16  C   UNL     1       0.409   1.318  -0.772  0.00  0.00    +0.028 C 
ATOM     17  C   UNL     1      -0.561   1.643   0.366  0.00  0.00    +0.122 C 
BRANCH  17  18
ATOM     18  C   UNL     1      -1.934   1.130   0.018  0.00  0.00    +0.176 C 
ATOM     19  O   UNL     1      -2.745   1.869  -0.497  0.00  0.00    -0.291 OA
BRANCH  18  20
ATOM     20  C   UNL     1      -2.291  -0.270   0.302  0.00  0.00    +0.019 A 
ATOM     21  C   UNL     1      -1.357  -1.128   0.891  0.00  0.00    +0.012 A 
ATOM     22  C   UNL     1      -1.702  -2.434   1.158  0.00  0.00    +0.004 A 
ATOM     23  C   UNL     1      -2.966  -2.907   0.837  0.00  0.00    -0.044 A 
ATOM     24  C   UNL     1      -3.894  -2.064   0.250  0.00  0.00    -0.044 A 
ATOM     25  C   UNL     1      -3.563  -0.750  -0.019  0.00  0.00    +0.015 A 
ATOM     26  C   UNL     1      -5.185  -2.817   0.003  0.00  0.00    +0.036 C 
ATOM     27  C   UNL     1      -4.805  -4.310   0.097  0.00  0.00    +0.009 C 
ATOM     28  C   UNL     1      -3.572  -4.282   1.024  0.00  0.00    +0.036 C 
ENDBRANCH  18  20
ENDBRANCH  17  18
ENDBRANCH   1  17
TORSDOF 5
