REMARK  Name = ZINC24797700
REMARK  12 active torsions:
REMARK  status: ('A' for Active; 'I' for Inactive)
REMARK    1  A    between atoms: C_1  and  C_2
REMARK    2  A    between atoms: C_2  and  C_3
REMARK    3  A    between atoms: C_3  and  N_4
REMARK    4  A    between atoms: N_4  and  C_5
REMARK    5  A    between atoms: N_4  and  C_18
REMARK    6  A    between atoms: C_5  and  C_6
REMARK    7  A    between atoms: N_8  and  C_9
REMARK    8  A    between atoms: C_18  and  C_19
REMARK    9  A    between atoms: N_21  and  N_22
REMARK   10  A    between atoms: C_25  and  C_29
REMARK   11  A    between atoms: C_25  and  C_30
REMARK   12  A    between atoms: C_30  and  C_31
REMARK                            x       y       z     vdW  Elec       q    Type
REMARK                         _______ _______ _______ _____ _____    ______ ____
ROOT
ATOM      1  N   UNL     1       3.234   6.966   2.974  0.00  0.00    +0.391 N 
ATOM      2  H   UNL     1       4.060   6.342   3.347  0.00  0.00    -0.080 HD
ENDROOT
BRANCH   1   3
ATOM      3  C   UNL     1       3.201   6.844   1.511  0.00  0.00    -0.078 C 
BRANCH   3   5
ATOM      4  C   UNL     1       1.934   7.444  -0.557  0.00  0.00    +0.002 C 
ATOM      5  C   UNL     1       1.998   7.613   0.962  0.00  0.00    -0.022 C 
ENDBRANCH   3   5
ENDBRANCH   1   3
BRANCH   1   6
ATOM      6  C   UNL     1       3.497   8.353   3.381  0.00  0.00    +0.020 C 
BRANCH   6   7
ATOM      7  C   UNL     1       4.937   8.695   3.096  0.00  0.00    +0.201 C 
ATOM      8  O   UNL     1       5.697   7.838   2.699  0.00  0.00    -0.278 OA
ATOM      9  N   UNL     1       5.380   9.954   3.284  0.00  0.00    -0.285 N 
ATOM     10  H   UNL     1       4.715  10.712   3.724  0.00  0.00    +0.155 HD
BRANCH   9  11
ATOM     11  C   UNL     1       6.689  10.298   2.919  0.00  0.00    +0.072 A 
ATOM     12  C   UNL     1       7.686   9.333   2.917  0.00  0.00    +0.029 A 
ATOM     13  C   UNL     1       8.975   9.671   2.552  0.00  0.00    +0.043 A 
ATOM     14  C   UNL     1       9.277  10.975   2.198  0.00  0.00    +0.161 A 
ATOM     15  C   UNL     1       8.285  11.944   2.204  0.00  0.00    +0.195 A 
ATOM     16  C   UNL     1       6.991  11.607   2.564  0.00  0.00    +0.182 A 
ATOM     17  F   UNL     1       6.024  12.550   2.570  0.00  0.00    -0.200 F 
ATOM     18  F   UNL     1       8.581  13.216   1.859  0.00  0.00    -0.199 F 
ATOM     19  F   UNL     1      10.539  11.304   1.846  0.00  0.00    -0.202 F 
ENDBRANCH   9  11
ENDBRANCH   6   7
ENDBRANCH   1   6
BRANCH   1  20
ATOM     20  C   UNL     1       1.988   6.470   3.572  0.00  0.00    +0.021 C 
BRANCH  20  21
ATOM     21  C   UNL     1       1.875   4.985   3.339  0.00  0.00    +0.213 C 
ATOM     22  O   UNL     1       2.747   4.398   2.734  0.00  0.00    -0.276 OA
ATOM     23  N   UNL     1       0.805   4.309   3.803  0.00  0.00    -0.225 N 
ATOM     24  H   UNL     1       0.014   4.842   4.352  0.00  0.00    +0.173 HD
BRANCH  23  25
ATOM     25  N   UNL     1       0.700   2.929   3.586  0.00  0.00    -0.137 N 
ATOM     26  C   UNL     1      -0.126   2.365   2.683  0.00  0.00    +0.263 C 
ATOM     27  O   UNL     1      -0.890   2.935   1.934  0.00  0.00    -0.271 OA
ATOM     28  C   UNL     1       0.099   0.871   2.799  0.00  0.00    +0.111 C 
ATOM     29  N   UNL     1       1.122   0.755   3.853  0.00  0.00    -0.284 N 
ATOM     30  C   UNL     1       1.409   2.009   4.250  0.00  0.00    +0.326 C 
ATOM     31  O   UNL     1       2.221   2.274   5.114  0.00  0.00    -0.251 OA
ATOM     32  C   UNL     1       0.620   0.301   1.478  0.00  0.00    +0.041 C 
ATOM     33  H   UNL     1       1.490  -0.236   4.156  0.00  0.00    +0.151 HD
BRANCH  28  34
ATOM     34  C   UNL     1      -1.189   0.160   3.219  0.00  0.00    +0.032 C 
ATOM     35  C   UNL     1      -0.890  -1.313   3.502  0.00  0.00    +0.006 C 
ENDBRANCH  28  34
ENDBRANCH  23  25
ENDBRANCH  20  21
ENDBRANCH   1  20
TORSDOF 9
