REMARK  Name = ZINC01887452
REMARK  4 active torsions:
REMARK  status: ('A' for Active; 'I' for Inactive)
REMARK    1  A    between atoms: C_12  and  C_35
REMARK    2  A    between atoms: C_14  and  C_26
REMARK    3  A    between atoms: C_26  and  C_28
REMARK    4  A    between atoms: N_37  and  C_38
REMARK                            x       y       z     vdW  Elec       q    Type
REMARK                         _______ _______ _______ _____ _____    ______ ____
ROOT
ATOM      1  C   UNL     1       0.140   1.678   0.446  0.00  0.00    +0.001 A 
ATOM      2  C   UNL     1       1.328   2.375   0.303  0.00  0.00    +0.002 A 
ATOM      3  C   UNL     1       2.532   1.697   0.216  0.00  0.00    +0.024 A 
ATOM      4  C   UNL     1       2.543   0.321   0.277  0.00  0.00    +0.038 A 
ATOM      5  C   UNL     1       1.339  -0.396   0.437  0.00  0.00    -0.004 A 
ATOM      6  C   UNL     1       0.137   0.299   0.512  0.00  0.00    +0.010 A 
ATOM      7  C   UNL     1       1.399  -1.866   0.543  0.00  0.00    +0.007 C 
ATOM      8  C   UNL     1       2.481  -2.539   0.162  0.00  0.00    -0.003 C 
ATOM      9  C   UNL     1       3.675  -1.813  -0.396  0.00  0.00    +0.117 C 
ATOM     10  N   UNL     1       3.695  -0.449   0.179  0.00  0.00    -0.309 N 
ATOM     11  C   UNL     1       5.054  -0.163   0.643  0.00  0.00    +0.172 C 
ATOM     12  C   UNL     1       5.590  -1.554   1.088  0.00  0.00    +0.111 C 
ATOM     13  C   UNL     1       4.987  -2.487   0.002  0.00  0.00    +0.108 C 
ATOM     14  C   UNL     1       4.786  -3.875   0.508  0.00  0.00    -0.008 A 
ATOM     15  C   UNL     1       4.041  -4.375   1.554  0.00  0.00    +0.006 A 
ATOM     16  C   UNL     1       4.077  -5.751   1.754  0.00  0.00    +0.000 A 
ATOM     17  C   UNL     1       4.826  -6.576   0.941  0.00  0.00    +0.002 A 
ATOM     18  C   UNL     1       5.578  -6.081  -0.113  0.00  0.00    +0.023 A 
ATOM     19  C   UNL     1       5.551  -4.703  -0.326  0.00  0.00    +0.038 A 
ATOM     20  N   UNL     1       6.197  -3.948  -1.291  0.00  0.00    -0.284 N 
ATOM     21  C   UNL     1       5.921  -2.630  -1.172  0.00  0.00    +0.231 C 
ATOM     22  O   UNL     1       6.343  -1.736  -1.874  0.00  0.00    -0.274 OA
ATOM     23  H   UNL     1       6.779  -4.321  -1.971  0.00  0.00    +0.155 HD
ENDROOT
BRANCH  11  24
ATOM     24  C   UNL     1       5.891   0.397  -0.479  0.00  0.00    +0.238 C 
ATOM     25  O   UNL     1       5.541   0.243  -1.631  0.00  0.00    -0.273 OA
ATOM     26  N   UNL     1       7.027   1.068  -0.203  0.00  0.00    -0.284 N 
ATOM     27  H   UNL     1       7.349   1.121   0.710  0.00  0.00    +0.155 HD
BRANCH  26  28
ATOM     28  C   UNL     1       7.742   1.688  -1.235  0.00  0.00    +0.034 A 
ATOM     29  C   UNL     1       7.065   2.257  -2.305  0.00  0.00    +0.025 A 
ATOM     30  C   UNL     1       7.773   2.868  -3.322  0.00  0.00    +0.022 A 
ATOM     31  C   UNL     1       9.155   2.913  -3.274  0.00  0.00    +0.041 A 
ATOM     32  C   UNL     1       9.832   2.347  -2.208  0.00  0.00    +0.022 A 
ATOM     33  C   UNL     1       9.128   1.740  -1.186  0.00  0.00    +0.025 A 
ATOM     34 CL   UNL     1      10.041   3.682  -4.553  0.00  0.00    -0.084 Cl
ENDBRANCH  26  28
ENDBRANCH  11  24
BRANCH  12  35
ATOM     35  C   UNL     1       5.080  -1.915   2.459  0.00  0.00    +0.170 C 
ATOM     36  O   UNL     1       4.038  -1.442   2.862  0.00  0.00    -0.292 OA
BRANCH  35  37
ATOM     37  C   UNL     1       5.846  -2.840   3.308  0.00  0.00    +0.018 A 
ATOM     38  C   UNL     1       7.051  -3.381   2.849  0.00  0.00    +0.013 A 
ATOM     39  C   UNL     1       7.763  -4.247   3.651  0.00  0.00    +0.020 A 
ATOM     40  C   UNL     1       7.288  -4.581   4.909  0.00  0.00    +0.041 A 
ATOM     41  C   UNL     1       6.095  -4.048   5.370  0.00  0.00    +0.020 A 
ATOM     42  C   UNL     1       5.375  -3.177   4.582  0.00  0.00    +0.013 A 
ATOM     43 CL   UNL     1       8.191  -5.673   5.911  0.00  0.00    -0.084 Cl
ENDBRANCH  35  37
ENDBRANCH  12  35
TORSDOF 4
