REMARK  Name = ZINC35349604
REMARK  24 active torsions:
REMARK  status: ('A' for Active; 'I' for Inactive)
REMARK    1  A    between atoms: C_1  and  C_2
REMARK    2  A    between atoms: C_2  and  C_3
REMARK    3  A    between atoms: C_3  and  C_5
REMARK    4  A    between atoms: C_3  and  N_6
REMARK    5  A    between atoms: N_6  and  C_7
REMARK    6  A    between atoms: C_7  and  C_8
REMARK    7  A    between atoms: N_12  and  C_13
REMARK    8  A    between atoms: C_13  and  C_14
REMARK    9  A    between atoms: C_18  and  O_20
REMARK   10  A    between atoms: O_20  and  C_21
REMARK   11  A    between atoms: C_22  and  C_24
REMARK   12  A    between atoms: C_24  and  N_25
REMARK   13  A    between atoms: N_25  and  C_26
REMARK   14  A    between atoms: C_26  and  C_27
REMARK   15  A    between atoms: C_27  and  C_28
REMARK   16  A    between atoms: C_27  and  C_29
REMARK   17  A    between atoms: C_30  and  C_32
REMARK   18  A    between atoms: C_32  and  C_33
REMARK   19  A    between atoms: C_33  and  C_35
REMARK   20  A    between atoms: C_33  and  C_36
REMARK   21  A    between atoms: C_36  and  C_37
REMARK   22  A    between atoms: C_37  and  C_38
REMARK   23  A    between atoms: C_37  and  C_39
REMARK   24  A    between atoms: C_37  and  C_40
REMARK                            x       y       z     vdW  Elec       q    Type
REMARK                         _______ _______ _______ _____ _____    ______ ____
ROOT
ATOM      1  N   UNL     1       0.657  -1.204   1.091  0.00  0.00    -0.292 N 
ATOM      2  C   UNL     1       0.225  -1.834   2.202  0.00  0.00    +0.234 C 
ATOM      3  O   UNL     1      -0.941  -1.760   2.527  0.00  0.00    -0.274 OA
ENDROOT
BRANCH   1   4
ATOM      4  C   UNL     1       2.037  -1.386   0.636  0.00  0.00    +0.073 C 
ATOM      5  C   UNL     1       2.712  -0.019   0.495  0.00  0.00    +0.028 C 
BRANCH   4   7
ATOM      6  C   UNL     1       1.503  -3.520  -0.548  0.00  0.00    +0.005 C 
ATOM      7  C   UNL     1       2.038  -2.097  -0.719  0.00  0.00    +0.019 C 
ENDBRANCH   4   7
ENDBRANCH   1   4
BRANCH   1   8
ATOM      8  C   UNL     1      -0.254  -0.337   0.340  0.00  0.00    +0.161 C 
BRANCH   8   9
ATOM      9  C   UNL     1      -1.101  -1.177  -0.582  0.00  0.00    +0.036 A 
ATOM     10  C   UNL     1      -1.444  -2.466  -0.385  0.00  0.00    +0.024 A 
ATOM     11  C   UNL     1      -2.236  -2.864  -1.480  0.00  0.00    +0.019 A 
ATOM     12  C   UNL     1      -2.347  -1.803  -2.304  0.00  0.00    +0.086 A 
ATOM     13  N   UNL     1      -1.657  -0.762  -1.755  0.00  0.00    -0.345 N 
BRANCH  13  14
ATOM     14  C   UNL     1      -1.532   0.578  -2.333  0.00  0.00    +0.156 C 
BRANCH  14  15
ATOM     15  C   UNL     1      -0.318   0.629  -3.225  0.00  0.00    -0.024 A 
ATOM     16  C   UNL     1       0.908   1.000  -2.704  0.00  0.00    +0.005 A 
ATOM     17  C   UNL     1       2.023   1.048  -3.519  0.00  0.00    +0.004 A 
ATOM     18  C   UNL     1       1.915   0.724  -4.858  0.00  0.00    +0.045 A 
ATOM     19  C   UNL     1       0.687   0.351  -5.383  0.00  0.00    +0.120 A 
ATOM     20  C   UNL     1      -0.430   0.298  -4.561  0.00  0.00    +0.051 A 
BRANCH  19  21
ATOM     21  O   UNL     1       0.579   0.032  -6.700  0.00  0.00    -0.495 OA
ATOM     22  C   UNL     1       1.770   0.103  -7.485  0.00  0.00    +0.277 C 
ENDBRANCH  19  21
ENDBRANCH  14  15
ENDBRANCH  13  14
ENDBRANCH   8   9
ENDBRANCH   1   8
BRANCH   2  23
ATOM     23  C   UNL     1       1.192  -2.631   3.040  0.00  0.00    +0.203 C 
BRANCH  23  24
ATOM     24  N   UNL     1       0.464  -3.301   4.120  0.00  0.00    -0.292 N 
ATOM     25  C   UNL     1       0.298  -2.681   5.306  0.00  0.00    +0.216 C 
ATOM     26  O   UNL     1       0.821  -1.606   5.506  0.00  0.00    -0.276 OA
BRANCH  24  27
ATOM     27  C   UNL     1      -0.082  -4.644   3.913  0.00  0.00    +0.111 C 
BRANCH  27  28
ATOM     28  C   UNL     1       1.013  -5.684   4.156  0.00  0.00    +0.000 C 
ATOM     29  C   UNL     1       1.520  -5.564   5.594  0.00  0.00    +0.009 C 
ATOM     30  C   UNL     1       0.445  -7.086   3.931  0.00  0.00    +0.009 C 
ENDBRANCH  27  28
ENDBRANCH  24  27
BRANCH  25  31
ATOM     31  C   UNL     1      -0.539  -3.325   6.381  0.00  0.00    +0.099 C 
BRANCH  31  32
ATOM     32  C   UNL     1      -0.581  -2.413   7.609  0.00  0.00    -0.005 C 
ATOM     33  C   UNL     1      -1.307  -1.114   7.255  0.00  0.00    +0.008 C 
BRANCH  32  34
ATOM     34  C   UNL     1      -1.324  -3.120   8.744  0.00  0.00    +0.010 C 
BRANCH  34  35
ATOM     35  C   UNL     1      -1.270  -2.255  10.005  0.00  0.00    -0.037 C 
ATOM     36  C   UNL     1      -2.283  -1.115   9.885  0.00  0.00    +0.010 C 
ATOM     37  C   UNL     1      -1.609  -3.112  11.226  0.00  0.00    +0.010 C 
ATOM     38  C   UNL     1       0.136  -1.674  10.165  0.00  0.00    +0.010 C 
ENDBRANCH  34  35
ENDBRANCH  32  34
ENDBRANCH  31  32
ENDBRANCH  25  31
ENDBRANCH  23  24
ENDBRANCH   2  23
TORSDOF 15
