REMARK  Name = ZINC39666465
REMARK  10 active torsions:
REMARK  status: ('A' for Active; 'I' for Inactive)
REMARK    1  A    between atoms: C_1  and  C_2
REMARK    2  A    between atoms: C_2  and  C_4
REMARK    3  A    between atoms: C_2  and  O_31
REMARK    4  A    between atoms: C_4  and  N_5
REMARK    5  A    between atoms: C_6  and  C_8
REMARK    6  A    between atoms: C_19  and  C_21
REMARK    7  A    between atoms: C_21  and  C_23
REMARK    8  A    between atoms: C_21  and  O_24
REMARK    9  A    between atoms: O_24  and  C_25
REMARK   10  A    between atoms: O_31  and  C_32
REMARK                            x       y       z     vdW  Elec       q    Type
REMARK                         _______ _______ _______ _____ _____    ______ ____
ROOT
ATOM      1  C   UNL     1       0.353  -4.178  -2.080  0.00  0.00    +0.100 C 
ATOM      2  C   UNL     1       0.928  -4.663  -0.730  0.00  0.00    +0.121 C 
ATOM      3  N   UNL     1       1.386  -6.047  -0.994  0.00  0.00    -0.297 N 
ATOM      4  C   UNL     1       1.981  -5.986  -2.351  0.00  0.00    +0.115 C 
ATOM      5  C   UNL     1       1.046  -5.048  -3.141  0.00  0.00    -0.004 C 
ATOM      6  C   UNL     1       0.013  -5.862  -3.914  0.00  0.00    -0.010 C 
ATOM      7  C   UNL     1       0.722  -6.677  -5.001  0.00  0.00    -0.082 C 
ATOM      8  N   UNL     1       1.438  -5.770  -5.906  0.00  0.00    +0.379 N 
ATOM      9  C   UNL     1       2.491  -5.058  -5.172  0.00  0.00    -0.082 C 
ATOM     10  C   UNL     1       1.858  -4.176  -4.093  0.00  0.00    -0.010 C 
ATOM     11  C   UNL     1       1.285  -7.119  -0.184  0.00  0.00    +0.256 C 
ATOM     12  O   UNL     1       0.690  -7.029   0.869  0.00  0.00    -0.272 OA
ATOM     13  H   UNL     1       1.853  -6.303  -6.655  0.00  0.00    -0.086 HD
ATOM     14  H   UNL     1       0.789  -5.101  -6.293  0.00  0.00    -0.086 HD
ENDROOT
BRANCH   1  16
ATOM     15  N   UNL     1      -0.150  -1.946  -3.021  0.00  0.00    -0.312 N 
ATOM     16  C   UNL     1       0.681  -2.723  -2.298  0.00  0.00    +0.218 C 
ATOM     17  O   UNL     1       1.693  -2.252  -1.824  0.00  0.00    -0.275 OA
ATOM     18  H   UNL     1      -0.959  -2.323  -3.400  0.00  0.00    +0.149 HD
BRANCH  15  19
ATOM     19  C   UNL     1       0.170  -0.532  -3.233  0.00  0.00    +0.148 C 
BRANCH  19  21
ATOM     20  C   UNL     1      -0.533   1.559  -4.406  0.00  0.00    +0.053 C 
ATOM     21  C   UNL     1      -0.927   0.117  -4.079  0.00  0.00    +0.187 C 
BRANCH  21  22
ATOM     22  O   UNL     1      -2.156   0.112  -3.351  0.00  0.00    -0.486 OA
BRANCH  22  23
ATOM     23  C   UNL     1      -3.304   0.175  -4.076  0.00  0.00    +0.139 A 
ATOM     24  C   UNL     1      -3.251   0.181  -5.462  0.00  0.00    +0.047 A 
ATOM     25  C   UNL     1      -4.418   0.245  -6.198  0.00  0.00    +0.004 A 
ATOM     26  C   UNL     1      -5.641   0.303  -5.554  0.00  0.00    +0.002 A 
ATOM     27  C   UNL     1      -5.698   0.299  -4.172  0.00  0.00    +0.023 A 
ATOM     28  C   UNL     1      -4.532   0.229  -3.432  0.00  0.00    +0.083 A 
ATOM     29 CL   UNL     1      -4.605   0.216  -1.697  0.00  0.00    -0.080 Cl
ENDBRANCH  22  23
ENDBRANCH  21  22
ENDBRANCH  19  21
ENDBRANCH  15  19
ENDBRANCH   1  16
BRANCH  11  30
ATOM     30  C   UNL     1       1.909  -8.430  -0.587  0.00  0.00    +0.256 C 
ATOM     31  C   UNL     1       3.433  -8.288  -0.595  0.00  0.00    +0.062 C 
BRANCH  30  32
ATOM     32  O   UNL     1       1.531  -9.445   0.345  0.00  0.00    -0.480 OA
BRANCH  32  33
ATOM     33  C   UNL     1       1.541 -10.728  -0.102  0.00  0.00    +0.122 A 
ATOM     34  C   UNL     1       1.087 -11.752   0.716  0.00  0.00    +0.045 A 
ATOM     35  C   UNL     1       1.098 -13.056   0.259  0.00  0.00    +0.004 A 
ATOM     36  C   UNL     1       1.562 -13.341  -1.012  0.00  0.00    +0.000 A 
ATOM     37  C   UNL     1       2.016 -12.322  -1.829  0.00  0.00    +0.004 A 
ATOM     38  C   UNL     1       2.001 -11.015  -1.379  0.00  0.00    +0.045 A 
ENDBRANCH  32  33
ENDBRANCH  30  32
ENDBRANCH  11  30
TORSDOF 8
