REMARK  Name = ZINC28933187
REMARK  8 active torsions:
REMARK  status: ('A' for Active; 'I' for Inactive)
REMARK    1  A    between atoms: C_1  and  C_2
REMARK    2  A    between atoms: C_9  and  C_16
REMARK    3  A    between atoms: C_11  and  O_12
REMARK    4  A    between atoms: C_16  and  O_17
REMARK    5  A    between atoms: O_17  and  C_18
REMARK    6  A    between atoms: C_18  and  C_20
REMARK    7  A    between atoms: C_20  and  N_21
REMARK    8  A    between atoms: C_22  and  C_24
REMARK                            x       y       z     vdW  Elec       q    Type
REMARK                         _______ _______ _______ _____ _____    ______ ____
ROOT
ATOM      1  C   UNL     1      -2.193   1.470   0.609  0.00  0.00    +0.109 C 
ATOM      2  C   UNL     1      -2.168  -0.036   0.609  0.00  0.00    +0.214 C 
ATOM      3  O   UNL     1      -3.058  -0.658   1.150  0.00  0.00    -0.276 OA
ATOM      4  N   UNL     1      -1.156  -0.694   0.009  0.00  0.00    -0.286 N 
ATOM      5  C   UNL     1      -1.081  -2.085   0.091  0.00  0.00    +0.037 A 
ATOM      6  C   UNL     1       0.164  -2.708   0.166  0.00  0.00    +0.024 A 
ATOM      7  C   UNL     1       0.253  -4.066   0.253  0.00  0.00    +0.014 A 
ATOM      8  C   UNL     1      -0.913  -4.841   0.254  0.00  0.00    +0.024 A 
ATOM      9  C   UNL     1      -0.848  -6.301   0.341  0.00  0.00    +0.007 A 
ATOM     10  C   UNL     1      -2.014  -6.998   0.339  0.00  0.00    +0.095 A 
ATOM     11  C   UNL     1      -3.242  -6.309   0.254  0.00  0.00    +0.285 A 
ATOM     12  O   UNL     1      -3.295  -4.971   0.176  0.00  0.00    -0.425 OA
ATOM     13  C   UNL     1      -2.173  -4.219   0.173  0.00  0.00    +0.141 A 
ATOM     14  C   UNL     1      -2.246  -2.837   0.092  0.00  0.00    +0.070 A 
ATOM     15  H   UNL     1      -0.388  -0.134  -0.545  0.00  0.00    +0.155 HD
ENDROOT
BRANCH  11  16
ATOM     16  O   UNL     1      -4.280  -6.946   0.253  0.00  0.00    -0.480 OA
ATOM     17  H   UNL     1      -5.246  -6.423   0.188  0.00  0.00    +0.295 HD
ENDBRANCH  11  16
BRANCH   9  18
ATOM     18  C   UNL     1       0.478  -7.013   0.429  0.00  0.00    +0.268 C 
BRANCH  18  19
ATOM     19  O   UNL     1       0.255  -8.445   0.503  0.00  0.00    -0.459 OA
BRANCH  19  20
ATOM     20  C   UNL     1       1.342  -9.228   0.587  0.00  0.00    +0.325 C 
ATOM     21  O   UNL     1       2.444  -8.732   0.599  0.00  0.00    -0.249 OA
BRANCH  20  22
ATOM     22  C   UNL     1       1.189 -10.725   0.668  0.00  0.00    +0.225 C 
BRANCH  22  23
ATOM     23  N   UNL     1       2.512 -11.348   0.751  0.00  0.00    -0.301 N 
ATOM     24  C   UNL     1       2.622 -12.689   0.832  0.00  0.00    +0.246 C 
ATOM     25  O   UNL     1       1.623 -13.381   0.836  0.00  0.00    -0.270 OA
ATOM     26  H   UNL     1       3.416 -10.721   0.748  0.00  0.00    +0.150 HD
BRANCH  24  27
ATOM     27  C   UNL     1       3.956 -13.317   0.916  0.00  0.00    +0.055 A 
ATOM     28  C   UNL     1       5.106 -12.524   0.912  0.00  0.00    +0.016 A 
ATOM     29  C   UNL     1       6.348 -13.116   0.991  0.00  0.00    +0.021 A 
ATOM     30  C   UNL     1       6.459 -14.495   1.075  0.00  0.00    +0.042 A 
ATOM     31  C   UNL     1       5.324 -15.287   1.079  0.00  0.00    +0.040 A 
ATOM     32  C   UNL     1       4.073 -14.706   1.006  0.00  0.00    +0.054 A 
ATOM     33 CL   UNL     1       2.650 -15.701   1.018  0.00  0.00    -0.083 Cl
ATOM     34 CL   UNL     1       8.028 -15.231   1.173  0.00  0.00    -0.083 Cl
ENDBRANCH  24  27
ENDBRANCH  22  23
ENDBRANCH  20  22
ENDBRANCH  19  20
ENDBRANCH  18  19
ENDBRANCH   9  18
TORSDOF 7
