REMARK  Name = ZINC09312234
REMARK  17 active torsions:
REMARK  status: ('A' for Active; 'I' for Inactive)
REMARK    1  A    between atoms: C_1  and  C_2
REMARK    2  A    between atoms: C_2  and  N_77
REMARK    3  A    between atoms: C_3  and  C_4
REMARK    4  A    between atoms: C_3  and  N_77
REMARK    5  A    between atoms: C_5  and  C_6
REMARK    6  A    between atoms: C_5  and  N_77
REMARK    7  A    between atoms: C_6  and  N_7
REMARK    8  A    between atoms: C_8  and  C_28
REMARK    9  A    between atoms: C_11  and  C_12
REMARK   10  A    between atoms: C_11  and  O_23
REMARK   11  A    between atoms: C_19  and  C_22
REMARK   12  A    between atoms: C_31  and  O_37
REMARK   13  A    between atoms: C_32  and  O_34
REMARK   14  A    between atoms: O_34  and  C_35
REMARK   15  A    between atoms: C_35  and  C_36
REMARK   16  A    between atoms: O_37  and  C_38
REMARK   17  A    between atoms: C_38  and  C_39
REMARK                            x       y       z     vdW  Elec       q    Type
REMARK                         _______ _______ _______ _____ _____    ______ ____
ROOT
ATOM      1  N   UNL     1      -0.215   3.707  -0.513  0.00  0.00    -0.285 N 
ATOM      2  C   UNL     1       1.226   3.844  -0.741  0.00  0.00    +0.144 C 
ATOM      3  C   UNL     1       1.838   2.489  -0.468  0.00  0.00    +0.071 C 
ATOM      4  C   UNL     1       3.174   2.148  -0.557  0.00  0.00    +0.133 C 
ATOM      5  C   UNL     1       0.776   1.647  -0.106  0.00  0.00    +0.249 C 
ATOM      6  O   UNL     1       0.867   0.469   0.190  0.00  0.00    -0.282 OA
ATOM      7  C   UNL     1      -0.482   2.441  -0.152  0.00  0.00    +0.288 C 
ATOM      8  O   UNL     1      -1.587   2.008   0.102  0.00  0.00    -0.266 OA
ENDROOT
BRANCH   4   9
ATOM      9  C   UNL     1       3.621   0.810  -0.139  0.00  0.00    +0.017 A 
ATOM     10  C   UNL     1       4.455   0.053  -0.970  0.00  0.00    +0.015 A 
ATOM     11  C   UNL     1       4.870  -1.197  -0.578  0.00  0.00    +0.046 A 
ATOM     12  C   UNL     1       4.465  -1.724   0.651  0.00  0.00    +0.124 A 
ATOM     13  C   UNL     1       3.640  -0.964   1.476  0.00  0.00    -0.002 A 
ATOM     14  C   UNL     1       3.221   0.286   1.097  0.00  0.00    +0.019 A 
ATOM     15  C   UNL     1       3.387  -1.785   2.727  0.00  0.00    +0.083 C 
ATOM     16  C   UNL     1       4.487  -2.868   2.626  0.00  0.00    +0.175 C 
ATOM     17  O   UNL     1       4.744  -2.931   1.213  0.00  0.00    -0.488 OA
ATOM     18  C   UNL     1       5.743  -2.436   3.386  0.00  0.00    +0.052 C 
ENDBRANCH   4   9
BRANCH   2  19
ATOM     19  C   UNL     1       1.803   4.869   0.200  0.00  0.00    -0.019 A 
ATOM     20  C   UNL     1       1.345   4.945   1.502  0.00  0.00    +0.009 A 
ATOM     21  C   UNL     1       1.875   5.880   2.371  0.00  0.00    +0.050 A 
ATOM     22  C   UNL     1       2.860   6.752   1.935  0.00  0.00    +0.162 A 
ATOM     23  C   UNL     1       3.317   6.680   0.622  0.00  0.00    +0.162 A 
ATOM     24  C   UNL     1       2.785   5.736  -0.242  0.00  0.00    +0.055 A 
BRANCH  23  25
ATOM     25  O   UNL     1       4.283   7.533   0.189  0.00  0.00    -0.489 OA
BRANCH  25  26
ATOM     26  C   UNL     1       4.704   7.400  -1.170  0.00  0.00    +0.226 C 
ATOM     27  C   UNL     1       5.788   8.437  -1.472  0.00  0.00    +0.048 C 
ENDBRANCH  25  26
ENDBRANCH  23  25
BRANCH  22  28
ATOM     28  O   UNL     1       3.378   7.676   2.787  0.00  0.00    -0.484 OA
BRANCH  28  29
ATOM     29  C   UNL     1       2.861   7.693   4.119  0.00  0.00    +0.256 C 
BRANCH  29  30
ATOM     30  C   UNL     1       3.550   8.774   4.912  0.00  0.00    +0.006 C 
ATOM     31  C   UNL     1       2.848   9.574   5.675  0.00  0.00    +0.007 C 
ENDBRANCH  29  30
ENDBRANCH  28  29
ENDBRANCH  22  28
ENDBRANCH   2  19
BRANCH   4  32
ATOM     32  O   UNL     1       4.069   3.042  -1.028  0.00  0.00    -0.506 OA
ATOM     33  H   UNL     1       4.982   2.634  -1.024  0.00  0.00    +0.292 HD
ENDBRANCH   4  32
BRANCH   1  34
ATOM     34  C   UNL     1      -1.205   4.777  -0.661  0.00  0.00    +0.090 C 
BRANCH  34  35
ATOM     35  C   UNL     1      -1.735   4.787  -2.096  0.00  0.00    -0.060 C 
BRANCH  35  36
ATOM     36  N   UNL     1      -2.747   5.856  -2.224  0.00  0.00    +0.380 N 
ATOM     37  H   UNL     1      -3.442   5.748  -1.475  0.00  0.00    -0.082 HD
BRANCH  36  39
ATOM     38  C   UNL     1      -0.968   7.326  -3.110  0.00  0.00    -0.017 C 
ATOM     39  C   UNL     1      -2.102   7.180  -2.094  0.00  0.00    -0.082 C 
ENDBRANCH  36  39
BRANCH  36  40
ATOM     40  C   UNL     1      -3.429   5.753  -3.531  0.00  0.00    -0.082 C 
ATOM     41  C   UNL     1      -4.689   6.621  -3.498  0.00  0.00    -0.017 C 
ENDBRANCH  36  40
ENDBRANCH  35  36
ENDBRANCH  34  35
ENDBRANCH   1  34
TORSDOF 13
