REMARK  Name = ZINC09700279
REMARK  10 active torsions:
REMARK  status: ('A' for Active; 'I' for Inactive)
REMARK    1  A    between atoms: C_1  and  C_2
REMARK    2  A    between atoms: C_5  and  N_12
REMARK    3  A    between atoms: C_8  and  C_10
REMARK    4  A    between atoms: C_8  and  C_11
REMARK    5  A    between atoms: C_13  and  C_15
REMARK    6  A    between atoms: C_15  and  C_16
REMARK    7  A    between atoms: C_22  and  C_24
REMARK    8  A    between atoms: N_29  and  C_31
REMARK    9  A    between atoms: C_34  and  O_37
REMARK   10  A    between atoms: O_37  and  C_38
REMARK                            x       y       z     vdW  Elec       q    Type
REMARK                         _______ _______ _______ _____ _____    ______ ____
ROOT
ATOM      1  C   UNL     1      -3.584   0.431   3.314  0.00  0.00    +0.059 A 
ATOM      2  C   UNL     1      -3.666  -0.126   4.547  0.00  0.00    +0.072 A 
ATOM      3  S   UNL     1      -5.143  -1.115   4.367  0.00  0.00    -0.060 S 
ATOM      4  C   UNL     1      -5.493  -0.700   2.717  0.00  0.00    +0.165 A 
ATOM      5  N   UNL     1      -4.511   0.131   2.426  0.00  0.00    -0.229 NA
ATOM      6  N   UNL     1      -6.542  -1.128   1.912  0.00  0.00    -0.264 N 
ATOM      7  C   UNL     1      -7.460  -1.986   2.401  0.00  0.00    +0.224 C 
ATOM      8  O   UNL     1      -7.370  -2.384   3.543  0.00  0.00    -0.275 OA
ATOM      9  H   UNL     1      -6.614  -0.810   0.999  0.00  0.00    +0.157 HD
ENDROOT
BRANCH   7  10
ATOM     10  C   UNL     1      -8.598  -2.450   1.529  0.00  0.00    +0.102 C 
ATOM     11  C   UNL     1      -9.520  -1.270   1.147  0.00  0.00    +0.110 C 
ATOM     12  C   UNL     1     -10.911  -1.866   1.161  0.00  0.00    +0.221 C 
ATOM     13  O   UNL     1     -11.889  -1.360   0.653  0.00  0.00    -0.275 OA
ATOM     14  N   UNL     1     -10.904  -3.039   1.818  0.00  0.00    -0.271 N 
ATOM     15  C   UNL     1      -9.563  -3.363   2.318  0.00  0.00    +0.127 C 
BRANCH  14  16
ATOM     16  C   UNL     1     -12.033  -3.849   2.001  0.00  0.00    +0.036 A 
ATOM     17  C   UNL     1     -13.283  -3.399   1.599  0.00  0.00    +0.027 A 
ATOM     18  C   UNL     1     -14.394  -4.200   1.776  0.00  0.00    +0.047 A 
ATOM     19  C   UNL     1     -14.263  -5.449   2.364  0.00  0.00    +0.120 A 
ATOM     20  C   UNL     1     -13.014  -5.898   2.770  0.00  0.00    +0.047 A 
ATOM     21  C   UNL     1     -11.902  -5.100   2.589  0.00  0.00    +0.027 A 
BRANCH  19  22
ATOM     22  O   UNL     1     -15.358  -6.235   2.542  0.00  0.00    -0.495 OA
ATOM     23  C   UNL     1     -16.612  -5.710   2.101  0.00  0.00    +0.277 C 
ENDBRANCH  19  22
ENDBRANCH  14  16
ENDBRANCH   7  10
BRANCH   1  24
ATOM     24  C   UNL     1      -2.462   1.376   2.968  0.00  0.00    +0.151 C 
BRANCH  24  26
ATOM     25  N   UNL     1      -0.702   1.569   1.241  0.00  0.00    -0.312 N 
ATOM     26  C   UNL     1      -1.747   0.879   1.738  0.00  0.00    +0.219 C 
ATOM     27  O   UNL     1      -2.112  -0.143   1.196  0.00  0.00    -0.275 OA
ATOM     28  H   UNL     1      -0.410   2.386   1.675  0.00  0.00    +0.149 HD
BRANCH  25  32
ATOM     29  C   UNL     1      -0.744   1.566  -3.703  0.00  0.00    +0.007 C 
ATOM     30  C   UNL     1      -0.012   1.073  -2.453  0.00  0.00    -0.012 C 
ATOM     31  C   UNL     1      -0.738   1.578  -1.204  0.00  0.00    +0.025 C 
ATOM     32  C   UNL     1      -0.006   1.086   0.046  0.00  0.00    +0.074 C 
ATOM     33  C   UNL     1       1.428   1.617   0.040  0.00  0.00    +0.028 C 
ATOM     34  C   UNL     1       2.154   1.112  -1.208  0.00  0.00    -0.033 C 
ATOM     35  C   UNL     1       1.423   1.605  -2.458  0.00  0.00    +0.009 C 
ATOM     36  C   UNL     1       3.589   1.644  -1.214  0.00  0.00    +0.011 C 
ATOM     37  C   UNL     1       2.178  -0.417  -1.201  0.00  0.00    +0.011 C 
ENDBRANCH  25  32
ENDBRANCH  24  26
ENDBRANCH   1  24
TORSDOF 6
