REMARK  Name = ZINC66952854
REMARK  8 active torsions:
REMARK  status: ('A' for Active; 'I' for Inactive)
REMARK    1  A    between atoms: C_1  and  C_2
REMARK    2  A    between atoms: C_3  and  N_13
REMARK    3  A    between atoms: C_5  and  C_9
REMARK    4  A    between atoms: C_9  and  O_11
REMARK    5  A    between atoms: O_11  and  C_12
REMARK    6  A    between atoms: N_16  and  C_17
REMARK    7  A    between atoms: C_17  and  C_18
REMARK    8  A    between atoms: C_18  and  O_28
REMARK                            x       y       z     vdW  Elec       q    Type
REMARK                         _______ _______ _______ _____ _____    ______ ____
ROOT
ATOM      1  N   UNL     1      -0.013   0.019  -2.413  0.00  0.00    -0.269 N 
ATOM      2  C   UNL     1       0.094  -0.640  -3.584  0.00  0.00    +0.304 C 
ATOM      3  O   UNL     1       0.113  -1.856  -3.597  0.00  0.00    -0.253 OA
ATOM      4  N   UNL     1       0.179   0.047  -4.740  0.00  0.00    -0.296 N 
ATOM      5  H   UNL     1      -0.110   0.984  -2.408  0.00  0.00    +0.156 HD
ATOM      6  H   UNL     1       0.164   1.017  -4.729  0.00  0.00    +0.150 HD
ENDROOT
BRANCH   1   9
ATOM      7  C   UNL     1      -1.267   1.188  -0.147  0.00  0.00    +0.048 C 
ATOM      8  C   UNL     1      -0.585  -0.154  -0.073  0.00  0.00    +0.006 A 
ATOM      9  C   UNL     1       0.017  -0.688  -1.206  0.00  0.00    +0.041 A 
ATOM     10  C   UNL     1       0.646  -1.921  -1.141  0.00  0.00    +0.038 A 
ATOM     11  C   UNL     1       0.673  -2.624   0.064  0.00  0.00    +0.063 A 
ATOM     12  C   UNL     1       0.066  -2.081   1.198  0.00  0.00    +0.053 A 
ATOM     13  C   UNL     1      -0.554  -0.847   1.125  0.00  0.00    +0.129 A 
ATOM     14  F   UNL     1      -1.136  -0.320   2.224  0.00  0.00    -0.205 F 
BRANCH  11  15
ATOM     15  C   UNL     1       1.341  -3.940   0.140  0.00  0.00    +0.339 C 
ATOM     16  O   UNL     1       1.868  -4.411  -0.848  0.00  0.00    -0.245 OA
BRANCH  15  17
ATOM     17  O   UNL     1       1.366  -4.616   1.305  0.00  0.00    -0.464 OA
ATOM     18  C   UNL     1       2.030  -5.882   1.306  0.00  0.00    +0.280 C 
ENDBRANCH  15  17
ENDBRANCH  11  15
ENDBRANCH   1   9
BRANCH   4  19
ATOM     19  C   UNL     1       0.295  -0.670  -6.012  0.00  0.00    +0.145 C 
BRANCH  19  20
ATOM     20  C   UNL     1       0.501   0.335  -7.147  0.00  0.00    +0.107 C 
ATOM     21  C   UNL     1       1.693   1.232  -6.816  0.00  0.00    +0.041 C 
ATOM     22  C   UNL     1       2.018   2.080  -8.051  0.00  0.00    +0.008 C 
ATOM     23  C   UNL     1       2.596   1.163  -9.127  0.00  0.00    +0.035 C 
ATOM     24  C   UNL     1       1.700  -0.028  -9.344  0.00  0.00    -0.041 A 
ATOM     25  C   UNL     1       0.741  -0.411  -8.434  0.00  0.00    -0.011 A 
ATOM     26  C   UNL     1      -0.049  -1.524  -8.692  0.00  0.00    +0.007 A 
ATOM     27  C   UNL     1       0.118  -2.247  -9.856  0.00  0.00    +0.000 A 
ATOM     28  C   UNL     1       1.079  -1.861 -10.772  0.00  0.00    +0.000 A 
ATOM     29  C   UNL     1       1.865  -0.756 -10.515  0.00  0.00    +0.004 A 
BRANCH  20  30
ATOM     30  O   UNL     1      -0.671   1.141  -7.281  0.00  0.00    -0.382 OA
ATOM     31  H   UNL     1      -1.472   0.640  -7.484  0.00  0.00    +0.211 HD
ENDBRANCH  20  30
ENDBRANCH  19  20
ENDBRANCH   4  19
TORSDOF 6
