REMARK  Name = ZINC02025254
REMARK  11 active torsions:
REMARK  status: ('A' for Active; 'I' for Inactive)
REMARK    1  A    between atoms: C_1  and  C_2
REMARK    2  A    between atoms: C_2  and  C_3
REMARK    3  A    between atoms: C_3  and  C_5
REMARK    4  A    between atoms: C_3  and  N_30
REMARK    5  A    between atoms: N_7  and  C_8
REMARK    6  A    between atoms: C_8  and  C_10
REMARK    7  A    between atoms: C_8  and  C_19
REMARK    8  A    between atoms: C_14  and  N_16
REMARK    9  A    between atoms: N_21  and  C_22
REMARK   10  A    between atoms: C_23  and  C_29
REMARK   11  A    between atoms: C_27  and  C_28
REMARK                            x       y       z     vdW  Elec       q    Type
REMARK                         _______ _______ _______ _____ _____    ______ ____
ROOT
ATOM      1  C   UNL     1      -0.193   4.682   0.257  0.00  0.00    +0.190 C 
ENDROOT
BRANCH   1   2
ATOM      2  C   UNL     1       0.793   3.543   0.240  0.00  0.00    -0.016 A 
ATOM      3  C   UNL     1       0.376   2.263   0.557  0.00  0.00    +0.006 A 
ATOM      4  C   UNL     1       1.280   1.217   0.538  0.00  0.00    +0.003 A 
ATOM      5  C   UNL     1       2.602   1.452   0.210  0.00  0.00    +0.033 A 
ATOM      6  C   UNL     1       3.019   2.731  -0.108  0.00  0.00    +0.127 A 
ATOM      7  C   UNL     1       2.114   3.777  -0.093  0.00  0.00    +0.038 A 
BRANCH   6   8
ATOM      8  N   UNL     1       4.433   2.982  -0.465  0.00  0.00    +0.056 N 
ATOM      9  O   UNL     1       5.230   2.061  -0.478  0.00  0.00    -0.126 OA
ATOM     10  O   UNL     1       4.800   4.109  -0.745  0.00  0.00    -0.126 OA
ENDBRANCH   6   8
ENDBRANCH   1   2
BRANCH   1  13
ATOM     11  C   UNL     1      -1.663   4.254  -1.639  0.00  0.00    +0.235 C 
ATOM     12  O   UNL     1      -0.781   4.646  -2.374  0.00  0.00    -0.274 OA
ATOM     13  N   UNL     1      -1.469   4.232  -0.305  0.00  0.00    -0.299 N 
ATOM     14  H   UNL     1      -2.174   3.919   0.282  0.00  0.00    +0.150 HD
BRANCH  11  15
ATOM     15  C   UNL     1      -2.975   3.791  -2.217  0.00  0.00    +0.170 C 
BRANCH  15  16
ATOM     16  N   UNL     1      -2.936   3.912  -3.676  0.00  0.00    -0.222 N 
ATOM     17  C   UNL     1      -2.050   3.282  -4.469  0.00  0.00    +0.254 C 
ATOM     18  O   UNL     1      -1.171   2.533  -4.093  0.00  0.00    -0.270 OA
ATOM     19  C   UNL     1      -2.329   3.650  -5.873  0.00  0.00    +0.049 A 
ATOM     20  C   UNL     1      -1.761   3.316  -7.092  0.00  0.00    +0.014 A 
ATOM     21  C   UNL     1      -2.274   3.857  -8.260  0.00  0.00    +0.001 A 
ATOM     22  C   UNL     1      -3.348   4.726  -8.217  0.00  0.00    +0.001 A 
ATOM     23  C   UNL     1      -3.927   5.069  -7.005  0.00  0.00    +0.014 A 
ATOM     24  C   UNL     1      -3.424   4.536  -5.829  0.00  0.00    +0.049 A 
ATOM     25  C   UNL     1      -3.777   4.673  -4.400  0.00  0.00    +0.254 C 
ATOM     26  O   UNL     1      -4.676   5.357  -3.954  0.00  0.00    -0.270 OA
ENDBRANCH  15  16
BRANCH  15  28
ATOM     27  C   UNL     1      -4.602   1.897  -2.312  0.00  0.00    +0.006 C 
ATOM     28  C   UNL     1      -3.215   2.330  -1.833  0.00  0.00    +0.029 C 
ENDBRANCH  15  28
ENDBRANCH  11  15
ENDBRANCH   1  13
BRANCH   1  29
ATOM     29  C   UNL     1      -0.404   5.143   1.676  0.00  0.00    +0.242 C 
ATOM     30  O   UNL     1      -1.511   5.100   2.169  0.00  0.00    -0.273 OA
ATOM     31  N   UNL     1       0.638   5.603   2.397  0.00  0.00    -0.283 N 
ATOM     32  H   UNL     1       1.532   5.589   2.021  0.00  0.00    +0.155 HD
BRANCH  31  33
ATOM     33  C   UNL     1       0.430   6.102   3.687  0.00  0.00    +0.039 A 
ATOM     34  C   UNL     1      -0.528   7.083   3.908  0.00  0.00    -0.029 A 
ATOM     35  C   UNL     1      -0.734   7.570   5.184  0.00  0.00    +0.005 A 
ATOM     36  C   UNL     1       0.019   7.089   6.239  0.00  0.00    +0.001 A 
ATOM     37  C   UNL     1       0.977   6.115   6.022  0.00  0.00    +0.005 A 
ATOM     38  C   UNL     1       1.184   5.621   4.749  0.00  0.00    -0.029 A 
ATOM     39  C   UNL     1       2.228   4.560   4.513  0.00  0.00    +0.045 C 
ATOM     40  C   UNL     1      -1.345   7.612   2.758  0.00  0.00    +0.045 C 
ENDBRANCH  31  33
ENDBRANCH   1  29
TORSDOF 8
