REMARK  Name = ZINC24893067
REMARK  14 active torsions:
REMARK  status: ('A' for Active; 'I' for Inactive)
REMARK    1  A    between atoms: C_1  and  C_2
REMARK    2  A    between atoms: C_5  and  C_7
REMARK    3  A    between atoms: C_7  and  C_8
REMARK    4  A    between atoms: N_10  and  N_11
REMARK    5  A    between atoms: C_12  and  C_14
REMARK    6  A    between atoms: C_14  and  N_15
REMARK    7  A    between atoms: N_15  and  C_16
REMARK    8  A    between atoms: N_15  and  C_25
REMARK    9  A    between atoms: C_16  and  C_17
REMARK   10  A    between atoms: C_20  and  O_23
REMARK   11  A    between atoms: O_23  and  C_24
REMARK   12  A    between atoms: C_25  and  C_27
REMARK   13  A    between atoms: C_25  and  C_28
REMARK   14  A    between atoms: C_28  and  C_29
REMARK                            x       y       z     vdW  Elec       q    Type
REMARK                         _______ _______ _______ _____ _____    ______ ____
ROOT
ATOM      1  N   UNL     1     -10.118  -1.179   4.004  0.00  0.00    +0.390 N 
ATOM      2  H   UNL     1     -10.742  -1.027   3.110  0.00  0.00    -0.080 HD
ENDROOT
BRANCH   1   3
ATOM      3  C   UNL     1     -10.220   0.028   4.835  0.00  0.00    -0.066 C 
ATOM      4  C   UNL     1      -9.922  -0.331   6.293  0.00  0.00    -0.013 C 
BRANCH   3   5
ATOM      5  C   UNL     1     -11.634   0.602   4.730  0.00  0.00    +0.027 C 
BRANCH   5   6
ATOM      6  C   UNL     1     -11.853   1.147   3.342  0.00  0.00    -0.012 A 
ATOM      7  C   UNL     1     -12.399   0.538   2.262  0.00  0.00    +0.011 A 
ATOM      8  C   UNL     1     -12.503   1.242   1.077  0.00  0.00    +0.008 A 
ATOM      9  C   UNL     1     -12.047   2.517   1.028  0.00  0.00    +0.045 A 
ATOM     10  S   UNL     1     -11.453   2.761   2.693  0.00  0.00    -0.102 S 
ENDBRANCH   5   6
ENDBRANCH   3   5
ENDBRANCH   1   3
BRANCH   1  11
ATOM     11  C   UNL     1      -8.735  -1.395   3.557  0.00  0.00    +0.021 C 
BRANCH  11  13
ATOM     12  N   UNL     1      -7.092  -0.273   2.088  0.00  0.00    -0.236 N 
ATOM     13  C   UNL     1      -8.328  -0.283   2.626  0.00  0.00    +0.213 C 
ATOM     14  O   UNL     1      -9.112   0.603   2.360  0.00  0.00    -0.276 OA
ATOM     15  H   UNL     1      -6.381  -1.076   2.329  0.00  0.00    +0.173 HD
BRANCH  12  18
ATOM     16  C   UNL     1      -5.478   0.772   0.685  0.00  0.00    +0.235 C 
ATOM     17  O   UNL     1      -4.693  -0.114   0.951  0.00  0.00    -0.274 OA
ATOM     18  N   UNL     1      -6.713   0.762   1.223  0.00  0.00    -0.234 N 
ATOM     19  H   UNL     1      -7.425   1.566   0.982  0.00  0.00    +0.173 HD
BRANCH  16  20
ATOM     20  C   UNL     1      -5.070   1.885  -0.246  0.00  0.00    +0.160 C 
BRANCH  20  25
ATOM     21  C   UNL     1      -1.448   0.133  -3.219  0.00  0.00    +0.066 C 
ATOM     22  C   UNL     1      -1.931   0.898  -2.014  0.00  0.00    +0.046 A 
ATOM     23  C   UNL     1      -1.051   1.499  -1.173  0.00  0.00    +0.070 A 
ATOM     24  S   UNL     1      -2.173   2.218   0.017  0.00  0.00    -0.080 S 
ATOM     25  C   UNL     1      -3.652   1.663  -0.704  0.00  0.00    +0.087 A 
ATOM     26  N   UNL     1      -3.218   1.004  -1.754  0.00  0.00    -0.249 NA
ENDBRANCH  20  25
ENDBRANCH  16  20
ENDBRANCH  12  18
ENDBRANCH  11  13
ENDBRANCH   1  11
BRANCH   1  27
ATOM     27  C   UNL     1     -10.631  -2.356   4.718  0.00  0.00    -0.042 C 
BRANCH  27  28
ATOM     28  C   UNL     1     -12.134  -2.281   4.794  0.00  0.00    -0.064 A 
ATOM     29  C   UNL     1     -12.750  -1.970   5.992  0.00  0.00    +0.005 A 
ATOM     30  C   UNL     1     -14.128  -1.895   6.063  0.00  0.00    +0.046 A 
ATOM     31  C   UNL     1     -14.894  -2.145   4.934  0.00  0.00    +0.120 A 
ATOM     32  C   UNL     1     -14.274  -2.462   3.734  0.00  0.00    +0.046 A 
ATOM     33  C   UNL     1     -12.895  -2.530   3.667  0.00  0.00    +0.005 A 
BRANCH  31  34
ATOM     34  O   UNL     1     -16.249  -2.077   5.003  0.00  0.00    -0.495 OA
ATOM     35  C   UNL     1     -16.819  -1.744   6.270  0.00  0.00    +0.277 C 
ENDBRANCH  31  34
ENDBRANCH  27  28
ENDBRANCH   1  27
TORSDOF 11
