REMARK  Name = ZINC49295314
REMARK  4 active torsions:
REMARK  status: ('A' for Active; 'I' for Inactive)
REMARK    1  A    between atoms: C_4  and  N_18
REMARK    2  A    between atoms: C_5  and  C_7
REMARK    3  A    between atoms: N_9  and  C_10
REMARK    4  A    between atoms: C_10  and  C_11
REMARK                            x       y       z     vdW  Elec       q    Type
REMARK                         _______ _______ _______ _____ _____    ______ ____
ROOT
ATOM      1  C   UNL     1       1.489  -2.110  -0.041  0.00  0.00    +0.266 C 
ATOM      2  O   UNL     1       2.605  -2.587   0.031  0.00  0.00    -0.268 OA
ATOM      3  N   UNL     1       0.415  -2.919  -0.139  0.00  0.00    -0.310 N 
ATOM      4  H   UNL     1      -0.475  -2.538  -0.197  0.00  0.00    +0.149 HD
ENDROOT
BRANCH   1   9
ATOM      5  C   UNL     1      -0.069   1.188   0.026  0.00  0.00    +0.131 A 
ATOM      6  C   UNL     1       1.037   2.027   0.010  0.00  0.00    +0.132 A 
ATOM      7  N   UNL     1       2.256   1.522  -0.022  0.00  0.00    -0.237 NA
ATOM      8  C   UNL     1       2.429   0.205  -0.039  0.00  0.00    +0.147 A 
ATOM      9  C   UNL     1       1.310  -0.643  -0.022  0.00  0.00    +0.165 A 
ATOM     10  N   UNL     1       0.087  -0.120   0.010  0.00  0.00    -0.246 NA
BRANCH   8  11
ATOM     11  N   UNL     1       3.704  -0.329  -0.073  0.00  0.00    -0.341 N 
ATOM     12  H   UNL     1       4.472   0.257  -0.164  0.00  0.00    +0.144 HD
ATOM     13  H   UNL     1       3.831  -1.288  -0.006  0.00  0.00    +0.144 HD
ENDBRANCH   8  11
ENDBRANCH   1   9
BRANCH   3  14
ATOM     14  C   UNL     1       0.593  -4.373  -0.158  0.00  0.00    +0.108 C 
BRANCH  14  15
ATOM     15  C   UNL     1      -0.773  -5.052  -0.275  0.00  0.00    +0.010 C 
ATOM     16  C   UNL     1      -0.585  -6.568  -0.410  0.00  0.00    +0.009 C 
ATOM     17  C   UNL     1      -1.947  -7.201  -0.703  0.00  0.00    +0.027 C 
ATOM     18  C   UNL     1      -2.970  -6.701   0.275  0.00  0.00    -0.031 C 
ATOM     19  C   UNL     1      -2.818  -5.644   1.006  0.00  0.00    -0.031 C 
ATOM     20  C   UNL     1      -1.596  -4.772   0.985  0.00  0.00    +0.032 C 
ENDBRANCH  14  15
ENDBRANCH   3  14
TORSDOF 4
