REMARK  Name = ZINC36288360
REMARK  4 active torsions:
REMARK  status: ('A' for Active; 'I' for Inactive)
REMARK    1  A    between atoms: C_4  and  S_7
REMARK    2  A    between atoms: S_7  and  N_10
REMARK    3  A    between atoms: N_10  and  C_11
REMARK    4  A    between atoms: C_12  and  C_20
REMARK                            x       y       z     vdW  Elec       q    Type
REMARK                         _______ _______ _______ _____ _____    ______ ____
ROOT
ATOM      1  C   UNL     1       5.559  -1.739   1.827  0.00  0.00    +0.129 A 
ATOM      2  C   UNL     1       6.083  -2.038   3.076  0.00  0.00    +0.087 A 
ATOM      3  C   UNL     1       7.349  -2.744   3.109  0.00  0.00    -0.021 A 
ATOM      4  C   UNL     1       7.862  -3.022   1.889  0.00  0.00    -0.021 A 
ATOM      5  S   UNL     1       6.682  -2.369   0.748  0.00  0.00    -0.076 S 
ATOM      6  C   UNL     1       9.150  -3.733   1.615  0.00  0.00    -0.039 C 
ATOM      7  N   UNL     1       9.947  -3.743   2.855  0.00  0.00    +0.382 N 
ATOM      8  C   UNL     1       9.123  -4.231   3.968  0.00  0.00    -0.077 C 
ATOM      9  C   UNL     1       8.092  -3.170   4.367  0.00  0.00    +0.018 C 
ATOM     10  H   UNL     1      10.745  -4.349   2.736  0.00  0.00    -0.085 HD
ATOM     11  H   UNL     1      10.264  -2.807   3.057  0.00  0.00    -0.085 HD
ENDROOT
BRANCH   2  12
ATOM     12  C   UNL     1       5.404  -1.664   4.280  0.00  0.00    +0.102 C 
ATOM     13  N   UNL     1       4.865  -1.368   5.236  0.00  0.00    -0.191 NA
ENDBRANCH   2  12
BRANCH   1  14
ATOM     14  N   UNL     1       4.378  -1.079   1.536  0.00  0.00    -0.089 NA
BRANCH  14  15
ATOM     15  S   UNL     1       3.934  -0.832  -0.041  0.00  0.00    +0.092 S 
ATOM     16  O   UNL     1       3.674  -2.114  -0.595  0.00  0.00    -0.148 OA
ATOM     17  O   UNL     1       4.890   0.060  -0.597  0.00  0.00    -0.148 OA
BRANCH  15  21
ATOM     18  C   UNL     1      -0.017   1.378   0.010  0.00  0.00    +0.000 A 
ATOM     19  C   UNL     1       1.171   2.086   0.002  0.00  0.00    +0.002 A 
ATOM     20  C   UNL     1       2.377   1.411  -0.013  0.00  0.00    +0.029 A 
ATOM     21  C   UNL     1       2.396   0.029  -0.020  0.00  0.00    +0.110 A 
ATOM     22  C   UNL     1       1.208  -0.679  -0.012  0.00  0.00    +0.029 A 
ATOM     23  C   UNL     1       0.002  -0.004   0.002  0.00  0.00    +0.002 A 
ENDBRANCH  15  21
ENDBRANCH  14  15
ENDBRANCH   1  14
TORSDOF 4
