REMARK  Name = ZINC42908437
REMARK  13 active torsions:
REMARK  status: ('A' for Active; 'I' for Inactive)
REMARK    1  A    between atoms: C_1  and  C_2
REMARK    2  A    between atoms: C_2  and  C_3
REMARK    3  A    between atoms: C_3  and  C_4
REMARK    4  A    between atoms: C_3  and  C_6
REMARK    5  A    between atoms: C_4  and  C_5
REMARK    6  A    between atoms: C_6  and  C_8
REMARK    7  A    between atoms: C_6  and  N_23
REMARK    8  A    between atoms: C_8  and  N_9
REMARK    9  A    between atoms: N_12  and  C_13
REMARK   10  A    between atoms: C_15  and  C_21
REMARK   11  A    between atoms: C_15  and  C_22
REMARK   12  A    between atoms: C_17  and  C_19
REMARK   13  A    between atoms: C_17  and  C_20
REMARK                            x       y       z     vdW  Elec       q    Type
REMARK                         _______ _______ _______ _____ _____    ______ ____
ROOT
ATOM      1  N   UNL     1      -3.793  -0.527   3.106  0.00  0.00    -0.298 N 
ATOM      2  C   UNL     1      -5.086  -0.781   3.389  0.00  0.00    +0.300 C 
ATOM      3  O   UNL     1      -5.782  -1.367   2.581  0.00  0.00    -0.253 OA
ATOM      4  N   UNL     1      -5.609  -0.387   4.567  0.00  0.00    -0.297 N 
ATOM      5  H   UNL     1      -3.239  -0.060   3.750  0.00  0.00    +0.150 HD
ATOM      6  H   UNL     1      -5.054   0.080   5.211  0.00  0.00    +0.151 HD
ENDROOT
BRANCH   4   7
ATOM      7  C   UNL     1      -7.017  -0.664   4.875  0.00  0.00    +0.072 C 
ATOM      8  C   UNL     1      -7.885   0.466   4.318  0.00  0.00    +0.009 C 
ATOM      9  C   UNL     1      -9.355   0.199   4.641  0.00  0.00    -0.072 C 
ATOM     10  N   UNL     1      -9.571  -0.022   6.063  0.00  0.00    +0.386 N 
ATOM     11  C   UNL     1      -8.668  -0.930   6.752  0.00  0.00    -0.072 C 
ATOM     12  C   UNL     1      -7.202  -0.707   6.391  0.00  0.00    +0.009 C 
ATOM     13  C   UNL     1      -9.047  -2.394   6.515  0.00  0.00    -0.010 C 
ATOM     14  C   UNL     1      -8.811  -0.666   8.270  0.00  0.00    -0.010 C 
ATOM     15  C   UNL     1      -9.881  -0.958   3.792  0.00  0.00    -0.010 C 
ATOM     16  C   UNL     1     -10.150   1.462   4.238  0.00  0.00    -0.010 C 
ATOM     17  H   UNL     1      -9.540   0.884   6.537  0.00  0.00    -0.084 HD
ATOM     18  H   UNL     1     -10.528  -0.359   6.194  0.00  0.00    -0.084 HD
ENDBRANCH   4   7
BRANCH   1  19
ATOM     19  C   UNL     1      -3.225  -0.956   1.825  0.00  0.00    +0.124 C 
BRANCH  19  20
ATOM     20  C   UNL     1      -1.810  -0.395   1.682  0.00  0.00    +0.077 C 
BRANCH  20  21
ATOM     21  N   UNL     1      -1.876   1.063   1.512  0.00  0.00    -0.293 NA
ATOM     22  C   UNL     1      -0.531   1.657   1.529  0.00  0.00    +0.113 C 
ATOM     23  C   UNL     1      -0.642   3.165   1.289  0.00  0.00    +0.175 C 
ATOM     24  O   UNL     1      -1.500   3.738   2.280  0.00  0.00    -0.377 OA
ATOM     25  C   UNL     1      -2.818   3.183   2.291  0.00  0.00    +0.175 C 
ATOM     26  C   UNL     1      -2.729   1.675   2.540  0.00  0.00    +0.113 C 
ENDBRANCH  20  21
BRANCH  20  27
ATOM     27  C   UNL     1      -1.134  -1.021   0.460  0.00  0.00    +0.007 C 
BRANCH  27  29
ATOM     28  C   UNL     1       0.088  -2.721   1.822  0.00  0.00    +0.004 C 
ATOM     29  C   UNL     1      -0.932  -2.518   0.700  0.00  0.00    +0.002 C 
ENDBRANCH  27  29
BRANCH  27  30
ATOM     30  C   UNL     1      -2.019  -0.817  -0.772  0.00  0.00    +0.002 C 
ATOM     31  C   UNL     1      -2.085   0.674  -1.111  0.00  0.00    +0.004 C 
ENDBRANCH  27  30
ENDBRANCH  20  27
ENDBRANCH  19  20
ENDBRANCH   1  19
TORSDOF 7
