REMARK  Name = ZINC24346492
REMARK  10 active torsions:
REMARK  status: ('A' for Active; 'I' for Inactive)
REMARK    1  A    between atoms: C_1  and  C_2
REMARK    2  A    between atoms: C_2  and  C_3
REMARK    3  A    between atoms: C_2  and  C_4
REMARK    4  A    between atoms: N_8  and  C_12
REMARK    5  A    between atoms: C_12  and  C_13
REMARK    6  A    between atoms: N_15  and  C_16
REMARK    7  A    between atoms: C_21  and  C_22
REMARK    8  A    between atoms: C_22  and  C_23
REMARK    9  A    between atoms: C_22  and  C_24
REMARK   10  A    between atoms: C_22  and  C_25
REMARK                            x       y       z     vdW  Elec       q    Type
REMARK                         _______ _______ _______ _____ _____    ______ ____
ROOT
ATOM      1  C   UNL     1       2.763  -2.451   0.585  0.00  0.00    +0.235 C 
ATOM      2  O   UNL     1       3.714  -1.700   0.620  0.00  0.00    -0.274 OA
ATOM      3  N   UNL     1       1.528  -1.966   0.347  0.00  0.00    -0.284 N 
ATOM      4  H   UNL     1       0.653  -2.629   0.419  0.00  0.00    +0.155 HD
ENDROOT
BRANCH   3   5
ATOM      5  C   UNL     1       1.359  -0.618   0.010  0.00  0.00    +0.037 A 
ATOM      6  C   UNL     1       2.449   0.138  -0.402  0.00  0.00    +0.023 A 
ATOM      7  C   UNL     1       2.279   1.467  -0.735  0.00  0.00    +0.002 A 
ATOM      8  C   UNL     1       1.025   2.046  -0.658  0.00  0.00    +0.000 A 
ATOM      9  C   UNL     1      -0.062   1.296  -0.249  0.00  0.00    +0.006 A 
ATOM     10  C   UNL     1       0.102  -0.035   0.086  0.00  0.00    -0.021 A 
BRANCH  10  11
ATOM     11  C   UNL     1      -1.083  -0.851   0.532  0.00  0.00    -0.011 C 
ATOM     12  C   UNL     1      -2.308   0.056   0.663  0.00  0.00    +0.015 C 
ATOM     13  C   UNL     1      -1.367  -1.945  -0.499  0.00  0.00    +0.015 C 
ATOM     14  C   UNL     1      -0.778  -1.495   1.887  0.00  0.00    +0.015 C 
ENDBRANCH  10  11
ENDBRANCH   3   5
BRANCH   1  15
ATOM     15  C   UNL     1       2.962  -3.929   0.806  0.00  0.00    +0.214 C 
BRANCH  15  19
ATOM     16  C   UNL     1       6.422  -4.526   2.017  0.00  0.00    +0.164 C 
ATOM     17  C   UNL     1       4.962  -4.197   2.258  0.00  0.00    +0.244 C 
ATOM     18  O   UNL     1       4.428  -3.976   3.324  0.00  0.00    -0.273 OA
ATOM     19  N   UNL     1       4.382  -4.200   1.042  0.00  0.00    -0.216 N 
ATOM     20  C   UNL     1       5.262  -4.488   0.076  0.00  0.00    +0.310 C 
ATOM     21  O   UNL     1       4.974  -4.553  -1.103  0.00  0.00    -0.252 OA
ATOM     22  N   UNL     1       6.503  -4.693   0.555  0.00  0.00    -0.287 N 
ATOM     23  H   UNL     1       7.465  -4.938   0.082  0.00  0.00    +0.151 HD
BRANCH  16  25
ATOM     24  C   UNL     1       8.282  -6.131   2.471  0.00  0.00    +0.009 C 
ATOM     25  C   UNL     1       6.806  -5.824   2.731  0.00  0.00    +0.012 C 
ATOM     26  C   UNL     1       6.576  -5.665   4.236  0.00  0.00    +0.009 C 
ENDBRANCH  16  25
ENDBRANCH  15  19
ENDBRANCH   1  15
TORSDOF 5
