REMARK  Name = ZINC27498061
REMARK  10 active torsions:
REMARK  status: ('A' for Active; 'I' for Inactive)
REMARK    1  A    between atoms: C_1  and  C_2
REMARK    2  A    between atoms: C_2  and  C_3
REMARK    3  A    between atoms: C_2  and  C_4
REMARK    4  A    between atoms: C_4  and  C_6
REMARK    5  A    between atoms: C_4  and  N_23
REMARK    6  A    between atoms: N_8  and  C_9
REMARK    7  A    between atoms: C_9  and  C_10
REMARK    8  A    between atoms: C_10  and  C_12
REMARK    9  A    between atoms: C_10  and  N_17
REMARK   10  A    between atoms: C_24  and  C_26
REMARK                            x       y       z     vdW  Elec       q    Type
REMARK                         _______ _______ _______ _____ _____    ______ ____
ROOT
ATOM      1  C   UNL     1      -3.517  -0.080   1.659  0.00  0.00    +0.234 C 
ATOM      2  O   UNL     1      -4.394  -0.335   0.862  0.00  0.00    -0.274 OA
ATOM      3  N   UNL     1      -2.249  -0.463   1.411  0.00  0.00    -0.315 N 
ATOM      4  H   UNL     1      -1.469  -0.306   2.171  0.00  0.00    +0.149 HD
ENDROOT
BRANCH   1   5
ATOM      5  C   UNL     1      -3.845   0.666   2.927  0.00  0.00    +0.162 C 
BRANCH   5   6
ATOM      6  N   UNL     1      -5.278   0.545   3.208  0.00  0.00    -0.300 N 
ATOM      7  C   UNL     1      -5.729   0.667   4.472  0.00  0.00    +0.250 C 
ATOM      8  O   UNL     1      -4.947   0.877   5.379  0.00  0.00    -0.270 OA
ATOM      9  H   UNL     1      -5.985   0.355   2.387  0.00  0.00    +0.150 HD
BRANCH   7  10
ATOM     10  C   UNL     1      -7.172   0.546   4.755  0.00  0.00    +0.107 A 
ATOM     11  C   UNL     1      -7.729  -0.704   5.046  0.00  0.00    +0.138 A 
ATOM     12  C   UNL     1      -9.081  -0.808   5.315  0.00  0.00    +0.039 A 
ATOM     13  C   UNL     1      -9.884   0.318   5.286  0.00  0.00    +0.006 A 
ATOM     14  C   UNL     1      -9.343   1.556   4.994  0.00  0.00    +0.039 A 
ATOM     15  C   UNL     1      -7.992   1.679   4.728  0.00  0.00    +0.138 A 
ATOM     16  F   UNL     1      -7.465   2.890   4.442  0.00  0.00    -0.205 F 
ATOM     17  F   UNL     1      -6.948  -1.806   5.069  0.00  0.00    -0.205 F 
ENDBRANCH   7  10
ENDBRANCH   5   6
BRANCH   5  19
ATOM     18  C   UNL     1      -4.271   2.733   1.591  0.00  0.00    +0.009 C 
ATOM     19  C   UNL     1      -3.480   2.142   2.760  0.00  0.00    +0.012 C 
ATOM     20  C   UNL     1      -3.823   2.901   4.043  0.00  0.00    +0.009 C 
ENDBRANCH   5  19
ENDBRANCH   1   5
BRANCH   3  21
ATOM     21  C   UNL     1      -1.909  -1.088   0.131  0.00  0.00    +0.096 C 
BRANCH  21  22
ATOM     22  C   UNL     1      -0.417  -1.423   0.107  0.00  0.00    +0.016 C 
BRANCH  22  23
ATOM     23  N   UNL     1       0.362  -0.211   0.392  0.00  0.00    +0.387 N 
ATOM     24  C   UNL     1       0.030   0.863  -0.553  0.00  0.00    -0.078 C 
ATOM     25  C   UNL     1       0.749   2.149  -0.139  0.00  0.00    -0.019 C 
ATOM     26  C   UNL     1       2.260   1.903  -0.128  0.00  0.00    -0.004 C 
ATOM     27  C   UNL     1       2.574   0.748   0.827  0.00  0.00    -0.019 C 
ATOM     28  C   UNL     1       1.803  -0.498   0.385  0.00  0.00    -0.078 C 
ATOM     29  H   UNL     1       0.094   0.135   1.401  0.00  0.00    -0.081 HD
ENDBRANCH  22  23
BRANCH  22  30
ATOM     30  C   UNL     1      -0.043  -1.952  -1.254  0.00  0.00    +0.093 A 
ATOM     31  C   UNL     1       0.250  -3.232  -1.547  0.00  0.00    +0.043 A 
ATOM     32  C   UNL     1       0.538  -3.280  -2.930  0.00  0.00    +0.041 A 
ATOM     33  C   UNL     1       0.413  -2.025  -3.398  0.00  0.00    +0.195 A 
ATOM     34  O   UNL     1       0.061  -1.225  -2.378  0.00  0.00    -0.469 OA
ENDBRANCH  22  30
ENDBRANCH  21  22
ENDBRANCH   3  21
TORSDOF 8
