REMARK  Name = ZINC12133536
REMARK  8 active torsions:
REMARK  status: ('A' for Active; 'I' for Inactive)
REMARK    1  A    between atoms: C_1  and  C_2
REMARK    2  A    between atoms: C_2  and  C_4
REMARK    3  A    between atoms: C_2  and  S_17
REMARK    4  A    between atoms: N_6  and  C_7
REMARK    5  A    between atoms: S_17  and  C_18
REMARK    6  A    between atoms: C_21  and  C_29
REMARK    7  A    between atoms: N_22  and  C_23
REMARK    8  A    between atoms: C_29  and  N_68
REMARK                            x       y       z     vdW  Elec       q    Type
REMARK                         _______ _______ _______ _____ _____    ______ ____
ROOT
ATOM      1  C   UNL     1      -2.398   9.594  -2.309  0.00  0.00    +0.197 A 
ATOM      2  N   UNL     1      -2.149  10.252  -1.201  0.00  0.00    -0.122 NA
ATOM      3  N   UNL     1      -2.027  11.506  -1.454  0.00  0.00    -0.135 NA
ATOM      4  C   UNL     1      -2.191  11.724  -2.728  0.00  0.00    +0.122 A 
ATOM      5  N   UNL     1      -2.427  10.513  -3.322  0.00  0.00    -0.276 N 
ENDROOT
BRANCH   5   6
ATOM      6  C   UNL     1      -2.655  10.266  -4.684  0.00  0.00    +0.050 A 
ATOM      7  C   UNL     1      -1.638  10.470  -5.607  0.00  0.00    +0.026 A 
ATOM      8  C   UNL     1      -1.864  10.220  -6.947  0.00  0.00    +0.002 A 
ATOM      9  C   UNL     1      -3.104   9.780  -7.370  0.00  0.00    +0.000 A 
ATOM     10  C   UNL     1      -4.120   9.582  -6.454  0.00  0.00    +0.002 A 
ATOM     11  C   UNL     1      -3.899   9.824  -5.112  0.00  0.00    +0.026 A 
ENDBRANCH   5   6
BRANCH   1  12
ATOM     12  S   UNL     1      -2.642   7.856  -2.464  0.00  0.00    -0.073 S 
BRANCH  12  14
ATOM     13  C   UNL     1      -3.578   7.959   0.101  0.00  0.00    +0.029 C 
ATOM     14  C   UNL     1      -2.447   7.356  -0.735  0.00  0.00    +0.137 C 
BRANCH  14  15
ATOM     15  C   UNL     1      -2.497   5.853  -0.638  0.00  0.00    +0.227 C 
ATOM     16  O   UNL     1      -2.998   5.204  -1.532  0.00  0.00    -0.275 OA
ATOM     17  N   UNL     1      -1.985   5.230   0.442  0.00  0.00    -0.309 N 
ATOM     18  H   UNL     1      -1.585   5.749   1.157  0.00  0.00    +0.149 HD
BRANCH  17  19
ATOM     19  C   UNL     1      -2.034   3.769   0.537  0.00  0.00    +0.035 C 
ATOM     20  C   UNL     1      -1.271   3.156  -0.639  0.00  0.00    +0.029 C 
ATOM     21  C   UNL     1      -1.321   1.630  -0.541  0.00  0.00    -0.008 C 
ATOM     22  C   UNL     1      -0.679   1.183   0.774  0.00  0.00    +0.007 C 
ATOM     23  C   UNL     1      -1.442   1.795   1.950  0.00  0.00    -0.008 C 
ATOM     24  C   UNL     1      -1.391   3.321   1.851  0.00  0.00    +0.029 C 
ATOM     25  C   UNL     1      -2.899   1.330   1.910  0.00  0.00    +0.007 C 
ATOM     26  C   UNL     1      -3.542   1.778   0.596  0.00  0.00    -0.008 C 
ATOM     27  C   UNL     1      -2.779   1.165  -0.580  0.00  0.00    +0.007 C 
ATOM     28  C   UNL     1      -3.491   3.304   0.497  0.00  0.00    +0.029 C 
ENDBRANCH  17  19
ENDBRANCH  14  15
ENDBRANCH  12  14
ENDBRANCH   1  12
BRANCH   4  29
ATOM     29  C   UNL     1      -2.124  13.061  -3.421  0.00  0.00    -0.001 C 
BRANCH  29  34
ATOM     30  C   UNL     1      -4.131  13.755  -2.229  0.00  0.00    -0.078 C 
ATOM     31  C   UNL     1      -5.255  14.787  -2.496  0.00  0.00    -0.020 C 
ATOM     32  C   UNL     1      -4.595  15.766  -3.494  0.00  0.00    -0.020 C 
ATOM     33  C   UNL     1      -3.446  14.969  -4.139  0.00  0.00    -0.078 C 
ATOM     34  N   UNL     1      -3.500  13.629  -3.553  0.00  0.00    +0.384 N 
ATOM     35  H   UNL     1      -4.064  13.012  -4.149  0.00  0.00    -0.081 HD
ENDBRANCH  29  34
ENDBRANCH   4  29
TORSDOF 7
