REMARK  Name = ZINC39110391
REMARK  6 active torsions:
REMARK  status: ('A' for Active; 'I' for Inactive)
REMARK    1  A    between atoms: C_1  and  C_2
REMARK    2  A    between atoms: N_5  and  C_16
REMARK    3  A    between atoms: C_6  and  C_7
REMARK    4  A    between atoms: C_7  and  C_8
REMARK    5  A    between atoms: C_8  and  C_9
REMARK    6  A    between atoms: C_9  and  C_15
REMARK                            x       y       z     vdW  Elec       q    Type
REMARK                         _______ _______ _______ _____ _____    ______ ____
ROOT
ATOM      1  C   UNL     1       1.475  -0.181   2.994  0.00  0.00    +0.035 C 
ENDROOT
BRANCH   1   2
ATOM      2  C   UNL     1       1.482   0.279   4.454  0.00  0.00    +0.069 C 
ATOM      3  C   UNL     1       2.926   0.326   5.009  0.00  0.00    +0.259 C 
ATOM      4  O   UNL     1       3.053  -0.970   5.626  0.00  0.00    -0.448 OA
ATOM      5  C   UNL     1       1.823  -1.386   5.975  0.00  0.00    +0.401 C 
ATOM      6  O   UNL     1       1.617  -2.263   6.791  0.00  0.00    -0.226 OA
ATOM      7  N   UNL     1       0.845  -0.728   5.325  0.00  0.00    -0.273 N 
ATOM      8  C   UNL     1       0.794   1.638   4.597  0.00  0.00    +0.035 C 
ATOM      9  H   UNL     1      -0.108  -0.886   5.414  0.00  0.00    +0.153 HD
ENDBRANCH   1   2
BRANCH   1  10
ATOM     10  C   UNL     1       0.030  -0.355   2.522  0.00  0.00    +0.056 C 
BRANCH  10  16
ATOM     11  C   UNL     1      -0.018   1.503   0.010  0.00  0.00    +0.045 C 
ATOM     12  C   UNL     1       0.002  -0.004   0.002  0.00  0.00    -0.030 A 
ATOM     13  C   UNL     1       0.009  -0.832  -1.138  0.00  0.00    +0.022 A 
ATOM     14  C   UNL     1       0.029  -2.110  -0.709  0.00  0.00    +0.086 A 
ATOM     15  N   UNL     1       0.035  -2.102   0.654  0.00  0.00    -0.353 N 
ATOM     16  C   UNL     1       0.023  -0.808   1.085  0.00  0.00    +0.021 A 
ATOM     17  C   UNL     1       0.055  -3.287   1.515  0.00  0.00    +0.148 C 
ENDBRANCH  10  16
ENDBRANCH   1  10
TORSDOF 3
