REMARK  Name = ZINC35796550
REMARK  12 active torsions:
REMARK  status: ('A' for Active; 'I' for Inactive)
REMARK    1  A    between atoms: C_1  and  N_2
REMARK    2  A    between atoms: N_2  and  C_3
REMARK    3  A    between atoms: N_2  and  C_4
REMARK    4  A    between atoms: C_4  and  C_5
REMARK    5  A    between atoms: C_5  and  N_6
REMARK    6  A    between atoms: C_7  and  C_9
REMARK    7  A    between atoms: C_12  and  C_14
REMARK    8  A    between atoms: C_14  and  N_15
REMARK    9  A    between atoms: C_18  and  C_26
REMARK   10  A    between atoms: C_26  and  C_28
REMARK   11  A    between atoms: C_28  and  O_29
REMARK   12  A    between atoms: O_29  and  C_30
REMARK                            x       y       z     vdW  Elec       q    Type
REMARK                         _______ _______ _______ _____ _____    ______ ____
ROOT
ATOM      1  N   UNL     1      -8.467  -3.764  -1.385  0.00  0.00    -0.256 N 
ATOM      2  C   UNL     1      -8.372  -2.488  -1.960  0.00  0.00    +0.079 A 
ATOM      3  C   UNL     1      -7.524  -1.539  -1.427  0.00  0.00    +0.038 A 
ATOM      4  C   UNL     1      -7.444  -0.271  -2.015  0.00  0.00    +0.023 A 
ATOM      5  C   UNL     1      -8.226   0.026  -3.139  0.00  0.00    +0.015 A 
ATOM      6  C   UNL     1      -9.070  -0.927  -3.664  0.00  0.00    +0.048 A 
ATOM      7  C   UNL     1      -9.148  -2.185  -3.082  0.00  0.00    +0.143 A 
ATOM      8  O   UNL     1      -9.976  -3.132  -3.595  0.00  0.00    -0.481 OA
ATOM      9  C   UNL     1      -9.542  -4.490  -3.491  0.00  0.00    +0.325 C 
ATOM     10  C   UNL     1      -9.042  -4.760  -2.095  0.00  0.00    +0.258 C 
ATOM     11  O   UNL     1      -9.158  -5.865  -1.609  0.00  0.00    -0.271 OA
ENDROOT
BRANCH   4  12
ATOM     12  C   UNL     1      -6.544   0.746  -1.456  0.00  0.00    +0.200 C 
ATOM     13  O   UNL     1      -5.868   0.487  -0.482  0.00  0.00    -0.288 OA
BRANCH  12  14
ATOM     14  C   UNL     1      -6.460   2.110  -2.090  0.00  0.00    +0.308 C 
BRANCH  14  15
ATOM     15  O   UNL     1      -5.524   2.914  -1.370  0.00  0.00    -0.484 OA
BRANCH  15  16
ATOM     16  C   UNL     1      -5.329   4.183  -1.816  0.00  0.00    +0.121 A 
ATOM     17  C   UNL     1      -6.029   4.646  -2.920  0.00  0.00    +0.048 A 
ATOM     18  C   UNL     1      -5.829   5.936  -3.373  0.00  0.00    +0.042 A 
ATOM     19  C   UNL     1      -4.931   6.767  -2.724  0.00  0.00    +0.124 A 
ATOM     20  C   UNL     1      -4.231   6.306  -1.622  0.00  0.00    +0.042 A 
ATOM     21  C   UNL     1      -4.434   5.018  -1.164  0.00  0.00    +0.048 A 
ATOM     22  F   UNL     1      -4.737   8.028  -3.168  0.00  0.00    -0.205 F 
ENDBRANCH  15  16
ENDBRANCH  14  15
ENDBRANCH  12  14
ENDBRANCH   4  12
BRANCH   1  23
ATOM     23  C   UNL     1      -7.947  -4.015  -0.039  0.00  0.00    +0.209 C 
BRANCH  23  27
ATOM     24  C   UNL     1      -4.347  -4.378  -0.207  0.00  0.00    +0.164 A 
ATOM     25  C   UNL     1      -4.729  -5.680  -0.301  0.00  0.00    +0.230 A 
ATOM     26  O   UNL     1      -6.070  -5.700  -0.250  0.00  0.00    -0.445 OA
ATOM     27  C   UNL     1      -6.503  -4.437  -0.129  0.00  0.00    +0.214 A 
ATOM     28  N   UNL     1      -5.481  -3.635  -0.097  0.00  0.00    -0.207 NA
BRANCH  24  30
ATOM     29  N   UNL     1      -2.733  -2.544  -0.111  0.00  0.00    -0.312 N 
ATOM     30  C   UNL     1      -2.964  -3.867  -0.218  0.00  0.00    +0.265 C 
ATOM     31  O   UNL     1      -2.031  -4.641  -0.323  0.00  0.00    -0.268 OA
ATOM     32  H   UNL     1      -3.477  -1.927  -0.028  0.00  0.00    +0.149 HD
BRANCH  29  33
ATOM     33  C   UNL     1      -1.358  -2.037  -0.122  0.00  0.00    +0.086 C 
BRANCH  33  34
ATOM     34  C   UNL     1      -1.376  -0.512   0.012  0.00  0.00    -0.061 C 
BRANCH  34  36
ATOM     35  C   UNL     1      -0.018   1.465   0.010  0.00  0.00    -0.097 C 
ATOM     36  N   UNL     1       0.002  -0.004   0.002  0.00  0.00    +0.377 N 
ATOM     37  C   UNL     1       0.713  -0.491   1.192  0.00  0.00    -0.097 C 
ATOM     38  H   UNL     1       0.474  -0.330  -0.828  0.00  0.00    -0.083 HD
ENDBRANCH  34  36
ENDBRANCH  33  34
ENDBRANCH  29  33
ENDBRANCH  24  30
ENDBRANCH  23  27
ENDBRANCH   1  23
TORSDOF 10
