REMARK  Name = ZINC01459110
REMARK  5 active torsions:
REMARK  status: ('A' for Active; 'I' for Inactive)
REMARK    1  A    between atoms: C_1  and  C_2
REMARK    2  A    between atoms: C_2  and  C_3
REMARK    3  A    between atoms: C_6  and  C_9
REMARK    4  A    between atoms: N_15  and  C_20
REMARK    5  A    between atoms: C_20  and  C_21
REMARK                            x       y       z     vdW  Elec       q    Type
REMARK                         _______ _______ _______ _____ _____    ______ ____
ROOT
ATOM      1  C   UNL     1      -2.717   2.949   4.763  0.00  0.00    +0.190 C 
ATOM      2  N   UNL     1      -2.705   4.421   4.775  0.00  0.00    -0.319 N 
ATOM      3  C   UNL     1      -3.674   5.064   4.012  0.00  0.00    +0.079 A 
ATOM      4  C   UNL     1      -3.769   6.307   3.415  0.00  0.00    +0.158 A 
ATOM      5  N   UNL     1      -4.932   6.369   2.805  0.00  0.00    -0.177 NA
ATOM      6  N   UNL     1      -5.599   5.273   2.956  0.00  0.00    -0.258 N 
ATOM      7  C   UNL     1      -4.877   4.408   3.705  0.00  0.00    +0.144 A 
ATOM      8  C   UNL     1      -5.122   3.053   4.201  0.00  0.00    +0.265 C 
ATOM      9  O   UNL     1      -6.213   2.525   4.101  0.00  0.00    -0.268 OA
ATOM     10  N   UNL     1      -4.075   2.416   4.776  0.00  0.00    -0.288 N 
ATOM     11  H   UNL     1      -2.051   4.920   5.290  0.00  0.00    +0.148 HD
ATOM     12  H   UNL     1      -4.236   1.566   5.216  0.00  0.00    +0.151 HD
ENDROOT
BRANCH   1  16
ATOM     13  C   UNL     1      -0.718   1.572   1.248  0.00  0.00    -0.048 A 
ATOM     14  C   UNL     1      -0.360   2.779   1.819  0.00  0.00    +0.004 A 
ATOM     15  C   UNL     1      -1.010   3.227   2.953  0.00  0.00    +0.007 A 
ATOM     16  C   UNL     1      -2.012   2.463   3.523  0.00  0.00    -0.009 A 
ATOM     17  C   UNL     1      -2.366   1.254   2.955  0.00  0.00    +0.007 A 
ATOM     18  C   UNL     1      -1.719   0.808   1.818  0.00  0.00    +0.004 A 
BRANCH  13  20
ATOM     19  C   UNL     1      -0.753   1.593  -1.232  0.00  0.00    +0.009 C 
ATOM     20  C   UNL     1      -0.013   1.086   0.008  0.00  0.00    +0.032 C 
ENDBRANCH  13  20
ENDBRANCH   1  16
BRANCH   6  21
ATOM     21  C   UNL     1      -6.930   5.008   2.403  0.00  0.00    +0.141 C 
ATOM     22  C   UNL     1      -7.997   5.448   3.407  0.00  0.00    +0.029 C 
ENDBRANCH   6  21
TORSDOF 3
