REMARK  Name = ZINC07298541
REMARK  10 active torsions:
REMARK  status: ('A' for Active; 'I' for Inactive)
REMARK    1  A    between atoms: C_1  and  C_2
REMARK    2  A    between atoms: C_5  and  C_8
REMARK    3  A    between atoms: C_11  and  S_14
REMARK    4  A    between atoms: N_12  and  N_13
REMARK    5  A    between atoms: S_14  and  C_15
REMARK    6  A    between atoms: C_15  and  C_17
REMARK    7  A    between atoms: C_15  and  C_18
REMARK    8  A    between atoms: N_20  and  C_21
REMARK    9  A    between atoms: C_26  and  C_27
REMARK   10  A    between atoms: C_27  and  C_29
REMARK                            x       y       z     vdW  Elec       q    Type
REMARK                         _______ _______ _______ _____ _____    ______ ____
ROOT
ATOM      1  S   UNL     1      -2.794   1.659   0.018  0.00  0.00    -0.072 S 
ENDROOT
BRANCH   1   5
ATOM      2  C   UNL     1       1.071   2.231  -0.034  0.00  0.00    +0.182 A 
ATOM      3  N   UNL     1       0.598   3.456  -0.031  0.00  0.00    -0.127 NA
ATOM      4  N   UNL     1      -0.686   3.430  -0.009  0.00  0.00    -0.121 NA
ATOM      5  C   UNL     1      -1.113   2.187  -0.002  0.00  0.00    +0.209 A 
ATOM      6  N   UNL     1      -0.011   1.381  -0.012  0.00  0.00    -0.224 N 
BRANCH   2  11
ATOM      7  C   UNL     1       6.619   0.706  -0.120  0.00  0.00    +0.044 C 
ATOM      8  C   UNL     1       5.166   1.105  -0.097  0.00  0.00    -0.050 A 
ATOM      9  C   UNL     1       4.804   2.404  -0.407  0.00  0.00    +0.004 A 
ATOM     10  C   UNL     1       3.475   2.776  -0.389  0.00  0.00    +0.012 A 
ATOM     11  C   UNL     1       2.496   1.839  -0.056  0.00  0.00    +0.021 A 
ATOM     12  C   UNL     1       2.869   0.532   0.261  0.00  0.00    +0.012 A 
ATOM     13  C   UNL     1       4.200   0.172   0.233  0.00  0.00    +0.004 A 
ENDBRANCH   2  11
BRANCH   6  14
ATOM     14  N   UNL     1       0.013   0.015  -0.007  0.00  0.00    -0.295 N 
ATOM     15  H   UNL     1       0.035  -0.343   0.936  0.00  0.00    +0.163 HD
ATOM     16  H   UNL     1      -0.771  -0.362  -0.519  0.00  0.00    +0.163 HD
ENDBRANCH   6  14
ENDBRANCH   1   5
BRANCH   1  17
ATOM     17  C   UNL     1      -3.628   3.265   0.022  0.00  0.00    +0.137 C 
ATOM     18  C   UNL     1      -3.337   3.995  -1.291  0.00  0.00    +0.029 C 
BRANCH  17  19
ATOM     19  C   UNL     1      -5.114   3.059   0.164  0.00  0.00    +0.230 C 
ATOM     20  O   UNL     1      -5.606   1.984  -0.106  0.00  0.00    -0.274 OA
ATOM     21  N   UNL     1      -5.897   4.070   0.591  0.00  0.00    -0.284 N 
ATOM     22  H   UNL     1      -5.496   4.904   0.883  0.00  0.00    +0.155 HD
BRANCH  21  23
ATOM     23  C   UNL     1      -7.280   3.918   0.611  0.00  0.00    +0.044 A 
ATOM     24  C   UNL     1      -7.896   3.014  -0.243  0.00  0.00    +0.024 A 
ATOM     25  C   UNL     1      -9.267   2.860  -0.218  0.00  0.00    +0.002 A 
ATOM     26  C   UNL     1     -10.042   3.612   0.652  0.00  0.00    +0.001 A 
ATOM     27  C   UNL     1      -9.452   4.519   1.504  0.00  0.00    +0.013 A 
ATOM     28  C   UNL     1      -8.062   4.683   1.494  0.00  0.00    +0.038 A 
BRANCH  28  29
ATOM     29  C   UNL     1      -7.426   5.647   2.399  0.00  0.00    +0.162 C 
ATOM     30  O   UNL     1      -6.232   5.852   2.325  0.00  0.00    -0.292 OA
ATOM     31  C   UNL     1      -8.255   6.384   3.419  0.00  0.00    +0.091 C 
ENDBRANCH  28  29
ENDBRANCH  21  23
ENDBRANCH  17  19
ENDBRANCH   1  17
TORSDOF 7
