REMARK  Name = ZINC16904313
REMARK  6 active torsions:
REMARK  status: ('A' for Active; 'I' for Inactive)
REMARK    1  A    between atoms: C_1  and  C_2
REMARK    2  A    between atoms: C_2  and  N_3
REMARK    3  A    between atoms: C_7  and  C_8
REMARK    4  A    between atoms: C_13  and  C_14
REMARK    5  A    between atoms: N_17  and  C_18
REMARK    6  A    between atoms: C_22  and  O_24
REMARK                            x       y       z     vdW  Elec       q    Type
REMARK                         _______ _______ _______ _____ _____    ______ ____
ROOT
ATOM      1  N   UNL     1      -4.540   0.610   1.252  0.00  0.00    -0.246 N 
ATOM      2  C   UNL     1      -5.442   1.188   2.026  0.00  0.00    +0.259 C 
ATOM      3  O   UNL     1      -6.567   0.738   2.140  0.00  0.00    -0.269 OA
ATOM      4  C   UNL     1      -5.022   2.408   2.747  0.00  0.00    +0.078 C 
ATOM      5  C   UNL     1      -5.730   3.193   3.596  0.00  0.00    +0.028 C 
ATOM      6  S   UNL     1      -3.326   2.565   2.204  0.00  0.00    -0.049 S 
ATOM      7  C   UNL     1      -3.272   1.136   1.136  0.00  0.00    +0.168 C 
ATOM      8  N   UNL     1      -2.266   0.691   0.417  0.00  0.00    -0.225 NA
ENDROOT
BRANCH   5   9
ATOM      9  C   UNL     1      -5.056   4.265   4.341  0.00  0.00    -0.021 A 
ATOM     10  C   UNL     1      -3.663   4.255   4.482  0.00  0.00    +0.008 A 
ATOM     11  C   UNL     1      -3.037   5.267   5.178  0.00  0.00    +0.001 A 
ATOM     12  C   UNL     1      -3.784   6.286   5.746  0.00  0.00    +0.000 A 
ATOM     13  C   UNL     1      -5.161   6.300   5.617  0.00  0.00    +0.004 A 
ATOM     14  C   UNL     1      -5.802   5.298   4.919  0.00  0.00    -0.043 A 
ATOM     15  C   UNL     1      -7.303   5.315   4.779  0.00  0.00    +0.044 C 
ENDBRANCH   5   9
BRANCH   8  16
ATOM     16  C   UNL     1      -1.070   1.356   0.430  0.00  0.00    +0.070 A 
ATOM     17  C   UNL     1      -1.040   2.749   0.326  0.00  0.00    +0.028 A 
ATOM     18  C   UNL     1       0.168   3.414   0.333  0.00  0.00    +0.006 A 
ATOM     19  C   UNL     1       1.351   2.708   0.448  0.00  0.00    +0.045 A 
ATOM     20  C   UNL     1       1.332   1.324   0.558  0.00  0.00    +0.119 A 
ATOM     21  C   UNL     1       0.125   0.645   0.552  0.00  0.00    +0.073 A 
BRANCH  20  22
ATOM     22  O   UNL     1       2.498   0.635   0.671  0.00  0.00    -0.507 OA
ATOM     23  H   UNL     1       2.879   0.366  -0.176  0.00  0.00    +0.292 HD
ENDBRANCH  20  22
ENDBRANCH   8  16
BRANCH   1  25
ATOM     24  C   UNL     1      -4.579  -1.833   1.362  0.00  0.00    +0.025 C 
ATOM     25  C   UNL     1      -4.893  -0.603   0.509  0.00  0.00    +0.112 C 
ENDBRANCH   1  25
TORSDOF 4
