REMARK  Name = ZINC32717480
REMARK  12 active torsions:
REMARK  status: ('A' for Active; 'I' for Inactive)
REMARK    1  A    between atoms: C_1  and  C_2
REMARK    2  A    between atoms: C_2  and  C_4
REMARK    3  A    between atoms: C_2  and  O_24
REMARK    4  A    between atoms: N_6  and  C_7
REMARK    5  A    between atoms: C_7  and  C_8
REMARK    6  A    between atoms: C_8  and  S_9
REMARK    7  A    between atoms: S_9  and  N_12
REMARK    8  A    between atoms: O_24  and  C_25
REMARK    9  A    between atoms: C_28  and  C_31
REMARK   10  A    between atoms: C_31  and  C_32
REMARK   11  A    between atoms: C_31  and  C_33
REMARK   12  A    between atoms: C_31  and  C_34
REMARK                            x       y       z     vdW  Elec       q    Type
REMARK                         _______ _______ _______ _____ _____    ______ ____
ROOT
ATOM      1  C   UNL     1       1.377  -1.084  -4.092  0.00  0.00    +0.128 C 
ENDROOT
BRANCH   1   4
ATOM      2  C   UNL     1       1.086  -0.816  -1.688  0.00  0.00    +0.254 C 
ATOM      3  O   UNL     1       2.176  -1.324  -1.529  0.00  0.00    -0.272 OA
ATOM      4  N   UNL     1       0.595  -0.651  -2.932  0.00  0.00    -0.311 N 
ATOM      5  H   UNL     1      -0.277  -0.245  -3.059  0.00  0.00    +0.149 HD
BRANCH   2   7
ATOM      6  C   UNL     1       0.123   1.151  -0.525  0.00  0.00    +0.062 C 
ATOM      7  C   UNL     1       0.281  -0.370  -0.494  0.00  0.00    +0.255 C 
BRANCH   7   8
ATOM      8  O   UNL     1       0.956  -0.755   0.706  0.00  0.00    -0.480 OA
BRANCH   8   9
ATOM      9  C   UNL     1       0.199  -0.874   1.828  0.00  0.00    +0.122 A 
ATOM     10  C   UNL     1      -1.172  -0.669   1.766  0.00  0.00    +0.046 A 
ATOM     11  C   UNL     1      -1.939  -0.791   2.909  0.00  0.00    +0.008 A 
ATOM     12  C   UNL     1      -1.343  -1.117   4.112  0.00  0.00    -0.042 A 
ATOM     13  C   UNL     1       0.024  -1.322   4.176  0.00  0.00    +0.008 A 
ATOM     14  C   UNL     1       0.794  -1.207   3.036  0.00  0.00    +0.046 A 
BRANCH  12  15
ATOM     15  C   UNL     1      -2.182  -1.250   5.357  0.00  0.00    -0.013 C 
ATOM     16  C   UNL     1      -3.228  -2.348   5.152  0.00  0.00    +0.015 C 
ATOM     17  C   UNL     1      -1.284  -1.614   6.541  0.00  0.00    +0.015 C 
ATOM     18  C   UNL     1      -2.886   0.079   5.640  0.00  0.00    +0.015 C 
ENDBRANCH  12  15
ENDBRANCH   8   9
ENDBRANCH   7   8
ENDBRANCH   2   7
ENDBRANCH   1   4
BRANCH   1  19
ATOM     19  C   UNL     1       0.597  -0.785  -5.374  0.00  0.00    +0.204 C 
BRANCH  19  20
ATOM     20  S   UNL     1       1.566  -1.321  -6.811  0.00  0.00    +0.033 S 
ATOM     21  O   UNL     1       2.723  -0.509  -6.951  0.00  0.00    -0.158 OA
ATOM     22  O   UNL     1       1.668  -2.738  -6.830  0.00  0.00    -0.158 OA
BRANCH  20  23
ATOM     23  N   UNL     1       0.625  -0.947  -8.121  0.00  0.00    -0.178 NA
ATOM     24  C   UNL     1      -0.344  -1.918  -8.648  0.00  0.00    +0.128 C 
ATOM     25  C   UNL     1      -1.728  -1.258  -8.683  0.00  0.00    +0.123 C 
ATOM     26  N   UNL     1      -1.608   0.050  -9.340  0.00  0.00    -0.314 N 
ATOM     27  C   UNL     1      -0.639   1.021  -8.814  0.00  0.00    +0.123 C 
ATOM     28  C   UNL     1       0.742   0.364  -8.776  0.00  0.00    +0.128 C 
ATOM     29  C   UNL     1      -2.398   0.364 -10.441  0.00  0.00    +0.099 A 
ATOM     30  C   UNL     1      -3.397  -0.515 -10.846  0.00  0.00    +0.042 A 
ATOM     31  C   UNL     1      -4.174  -0.190 -11.943  0.00  0.00    +0.005 A 
ATOM     32  C   UNL     1      -3.926   1.008 -12.600  0.00  0.00    +0.018 A 
ATOM     33  C   UNL     1      -2.919   1.833 -12.143  0.00  0.00    +0.084 A 
ATOM     34  N   UNL     1      -2.196   1.500 -11.091  0.00  0.00    -0.350 N 
ATOM     35  H   UNL     1      -1.496   2.100 -10.788  0.00  0.00    +0.166 HD
ENDBRANCH  20  23
ENDBRANCH  19  20
ENDBRANCH   1  19
TORSDOF 8
