REMARK  Name = ZINC04075739
REMARK  5 active torsions:
REMARK  status: ('A' for Active; 'I' for Inactive)
REMARK    1  A    between atoms: C_4  and  C_7
REMARK    2  A    between atoms: C_7  and  C_8
REMARK    3  A    between atoms: C_11  and  C_14
REMARK    4  A    between atoms: N_16  and  C_17
REMARK    5  A    between atoms: C_18  and  C_26
REMARK                            x       y       z     vdW  Elec       q    Type
REMARK                         _______ _______ _______ _____ _____    ______ ____
ROOT
ATOM      1  C   UNL     1      -1.266  -0.764   0.011  0.00  0.00    +0.249 C 
ATOM      2  O   UNL     1      -2.328  -0.173   0.024  0.00  0.00    -0.270 OA
ATOM      3  N   UNL     1      -1.244  -2.111   0.003  0.00  0.00    -0.275 N 
ATOM      4  H   UNL     1      -0.396  -2.583  -0.008  0.00  0.00    +0.156 HD
ENDROOT
BRANCH   3   5
ATOM      5  C   UNL     1      -2.432  -2.823   0.011  0.00  0.00    +0.085 A 
ATOM      6  C   UNL     1      -2.614  -4.199  -0.000  0.00  0.00    +0.068 A 
ATOM      7  C   UNL     1      -3.978  -4.697   0.017  0.00  0.00    -0.023 A 
ATOM      8  C   UNL     1      -4.938  -3.746   0.031  0.00  0.00    -0.004 A 
ATOM      9  S   UNL     1      -4.054  -2.212   0.030  0.00  0.00    -0.077 S 
ATOM     10  C   UNL     1      -6.420  -3.958   0.043  0.00  0.00    +0.043 C 
ATOM     11  C   UNL     1      -6.703  -5.418  -0.340  0.00  0.00    +0.005 C 
ATOM     12  C   UNL     1      -5.789  -6.330   0.483  0.00  0.00    +0.005 C 
ATOM     13  C   UNL     1      -4.341  -6.177   0.013  0.00  0.00    +0.037 C 
BRANCH   6  14
ATOM     14  C   UNL     1      -1.470  -5.117  -0.024  0.00  0.00    +0.244 C 
ATOM     15  O   UNL     1      -0.982  -5.508   1.020  0.00  0.00    -0.270 OA
ATOM     16  N   UNL     1      -0.959  -5.526  -1.202  0.00  0.00    -0.325 N 
ATOM     17  H   UNL     1      -1.349  -5.214  -2.034  0.00  0.00    +0.145 HD
ATOM     18  H   UNL     1      -0.203  -6.133  -1.218  0.00  0.00    +0.145 HD
ENDBRANCH   6  14
ENDBRANCH   3   5
BRANCH   1  22
ATOM     19  C   UNL     1       2.378   1.419  -0.013  0.00  0.00    -0.043 A 
ATOM     20  C   UNL     1       1.170   2.095   0.002  0.00  0.00    +0.005 A 
ATOM     21  C   UNL     1      -0.017   1.392   0.010  0.00  0.00    +0.013 A 
ATOM     22  C   UNL     1       0.002  -0.004   0.002  0.00  0.00    +0.037 A 
ATOM     23  C   UNL     1       1.224  -0.679  -0.013  0.00  0.00    +0.013 A 
ATOM     24  C   UNL     1       2.404   0.036  -0.021  0.00  0.00    +0.005 A 
BRANCH  19  25
ATOM     25  C   UNL     1       3.670   2.194  -0.021  0.00  0.00    +0.070 C 
BRANCH  25  29
ATOM     26  C   UNL     1       4.853   2.949  -4.056  0.00  0.00    +0.000 A 
ATOM     27  C   UNL     1       4.046   3.853  -3.391  0.00  0.00    +0.000 A 
ATOM     28  C   UNL     1       3.663   3.609  -2.085  0.00  0.00    +0.004 A 
ATOM     29  C   UNL     1       4.087   2.460  -1.444  0.00  0.00    -0.043 A 
ATOM     30  C   UNL     1       4.899   1.558  -2.107  0.00  0.00    +0.004 A 
ATOM     31  C   UNL     1       5.277   1.800  -3.414  0.00  0.00    +0.000 A 
ENDBRANCH  25  29
ENDBRANCH  19  25
ENDBRANCH   1  22
TORSDOF 5
