REMARK  Name = ZINC36936527
REMARK  4 active torsions:
REMARK  status: ('A' for Active; 'I' for Inactive)
REMARK    1  A    between atoms: C_4  and  C_8
REMARK    2  A    between atoms: C_9  and  C_14
REMARK    3  A    between atoms: C_12  and  N_13
REMARK    4  A    between atoms: C_14  and  C_15
REMARK                            x       y       z     vdW  Elec       q    Type
REMARK                         _______ _______ _______ _____ _____    ______ ____
ROOT
ATOM      1  C   UNL     1       5.665  -1.909  -0.933  0.00  0.00    +0.070 A 
ATOM      2  C   UNL     1       4.567  -1.072  -1.228  0.00  0.00    +0.094 A 
ATOM      3  N   UNL     1       4.008  -0.723  -0.105  0.00  0.00    -0.080 NA
ATOM      4  O   UNL     1       4.721  -1.320   0.962  0.00  0.00    -0.339 OA
ATOM      5  C   UNL     1       5.725  -2.045   0.441  0.00  0.00    +0.223 A 
ENDROOT
BRANCH   1   9
ATOM      6  C   UNL     1       8.295  -3.699  -3.757  0.00  0.00    +0.004 A 
ATOM      7  C   UNL     1       7.092  -4.311  -3.452  0.00  0.00    +0.039 A 
ATOM      8  C   UNL     1       6.233  -3.735  -2.536  0.00  0.00    +0.133 A 
ATOM      9  C   UNL     1       6.582  -2.533  -1.917  0.00  0.00    +0.042 A 
ATOM     10  C   UNL     1       7.796  -1.922  -2.229  0.00  0.00    +0.052 A 
ATOM     11  C   UNL     1       8.646  -2.508  -3.147  0.00  0.00    +0.021 A 
ATOM     12 CL   UNL     1       8.238  -0.427  -1.465  0.00  0.00    -0.083 Cl
ATOM     13  F   UNL     1       5.059  -4.333  -2.239  0.00  0.00    -0.205 F 
ENDBRANCH   1   9
BRANCH   5  14
ATOM     14  N   UNL     1       6.649  -2.786   1.148  0.00  0.00    -0.327 N 
ATOM     15  H   UNL     1       7.341  -3.276   0.676  0.00  0.00    +0.145 HD
ATOM     16  H   UNL     1       6.606  -2.818   2.116  0.00  0.00    +0.145 HD
ENDBRANCH   5  14
BRANCH   2  17
ATOM     17  C   UNL     1       4.120  -0.654  -2.605  0.00  0.00    +0.063 C 
BRANCH  17  18
ATOM     18  C   UNL     1       4.865   0.616  -3.020  0.00  0.00    -0.005 C 
ATOM     19  C   UNL     1       4.458   1.769  -2.100  0.00  0.00    +0.004 C 
ATOM     20  C   UNL     1       5.202   3.040  -2.514  0.00  0.00    +0.000 C 
ATOM     21  C   UNL     1       4.846   3.391  -3.960  0.00  0.00    +0.000 C 
ATOM     22  C   UNL     1       5.253   2.238  -4.880  0.00  0.00    +0.000 C 
ATOM     23  C   UNL     1       4.509   0.968  -4.466  0.00  0.00    +0.004 C 
ENDBRANCH  17  18
ENDBRANCH   2  17
TORSDOF 4
