REMARK  Name = ZINC04275304
REMARK  8 active torsions:
REMARK  status: ('A' for Active; 'I' for Inactive)
REMARK    1  A    between atoms: C_1  and  C_2
REMARK    2  A    between atoms: C_2  and  C_29
REMARK    3  A    between atoms: C_5  and  C_27
REMARK    4  A    between atoms: C_6  and  N_12
REMARK    5  A    between atoms: C_9  and  C_10
REMARK    6  A    between atoms: C_9  and  C_11
REMARK    7  A    between atoms: C_13  and  C_15
REMARK    8  A    between atoms: C_18  and  C_21
REMARK                            x       y       z     vdW  Elec       q    Type
REMARK                         _______ _______ _______ _____ _____    ______ ____
ROOT
ATOM      1  C   UNL     1      -0.013   1.086   0.008  0.00  0.00    -0.010 C 
ATOM      2  C   UNL     1      -0.729   1.579   1.268  0.00  0.00    -0.069 C 
ATOM      3  C   UNL     1      -2.139   0.981   1.315  0.00  0.00    +0.024 C 
ATOM      4  C   UNL     1      -2.975   1.643   0.230  0.00  0.00    -0.021 A 
ATOM      5  C   UNL     1      -4.117   1.046  -0.432  0.00  0.00    +0.084 A 
ATOM      6  C   UNL     1      -4.774   1.810  -1.388  0.00  0.00    +0.090 A 
ATOM      7  S   UNL     1      -3.878   3.293  -1.394  0.00  0.00    -0.078 S 
ATOM      8  C   UNL     1      -2.667   2.900  -0.166  0.00  0.00    -0.015 A 
ATOM      9  C   UNL     1      -1.544   3.746   0.340  0.00  0.00    -0.041 C 
ATOM     10  C   UNL     1      -2.149   5.002   1.000  0.00  0.00    -0.005 C 
ATOM     11  C   UNL     1      -0.672   4.205  -0.835  0.00  0.00    -0.005 C 
ATOM     12  C   UNL     1       0.048   1.047   2.488  0.00  0.00    -0.010 C 
ATOM     13  N   UNL     1      -0.719   3.061   1.375  0.00  0.00    +0.389 N 
ATOM     14  H   UNL     1       0.251   3.385   1.283  0.00  0.00    -0.084 HD
ATOM     15  H   UNL     1      -1.080   3.320   2.300  0.00  0.00    -0.084 HD
ENDROOT
BRANCH   6  16
ATOM     16  N   UNL     1      -5.880   1.467  -2.152  0.00  0.00    -0.275 N 
ATOM     17  C   UNL     1      -6.385   2.347  -3.039  0.00  0.00    +0.249 C 
ATOM     18  O   UNL     1      -5.873   3.442  -3.169  0.00  0.00    -0.270 OA
ATOM     19  H   UNL     1      -6.289   0.594  -2.048  0.00  0.00    +0.156 HD
BRANCH  17  20
ATOM     20  C   UNL     1      -7.562   1.982  -3.852  0.00  0.00    +0.037 A 
ATOM     21  C   UNL     1      -8.149   0.722  -3.707  0.00  0.00    +0.013 A 
ATOM     22  C   UNL     1      -9.250   0.385  -4.462  0.00  0.00    +0.009 A 
ATOM     23  C   UNL     1      -9.773   1.296  -5.379  0.00  0.00    -0.018 A 
ATOM     24  C   UNL     1      -9.185   2.552  -5.529  0.00  0.00    +0.009 A 
ATOM     25  C   UNL     1      -8.087   2.894  -4.772  0.00  0.00    +0.013 A 
BRANCH  23  26
ATOM     26  C   UNL     1     -10.955   0.929  -6.196  0.00  0.00    -0.018 A 
ATOM     27  C   UNL     1     -11.483   1.840  -7.110  0.00  0.00    +0.008 A 
ATOM     28  C   UNL     1     -12.581   1.491  -7.871  0.00  0.00    +0.001 A 
ATOM     29  C   UNL     1     -13.162   0.245  -7.721  0.00  0.00    +0.000 A 
ATOM     30  C   UNL     1     -12.645  -0.660  -6.811  0.00  0.00    +0.001 A 
ATOM     31  C   UNL     1     -11.545  -0.325  -6.048  0.00  0.00    +0.008 A 
ENDBRANCH  23  26
ENDBRANCH  17  20
ENDBRANCH   6  16
BRANCH   5  32
ATOM     32  C   UNL     1      -4.561  -0.279  -0.119  0.00  0.00    +0.102 C 
ATOM     33  N   UNL     1      -4.913  -1.330   0.129  0.00  0.00    -0.191 NA
ENDBRANCH   5  32
TORSDOF 4
