REMARK  Name = ZINC64337905
REMARK  7 active torsions:
REMARK  status: ('A' for Active; 'I' for Inactive)
REMARK    1  A    between atoms: C_1  and  C_2
REMARK    2  A    between atoms: C_2  and  C_4
REMARK    3  A    between atoms: C_2  and  N_34
REMARK    4  A    between atoms: C_8  and  S_17
REMARK    5  A    between atoms: N_9  and  C_10
REMARK    6  A    between atoms: S_17  and  C_18
REMARK    7  A    between atoms: C_18  and  C_19
REMARK                            x       y       z     vdW  Elec       q    Type
REMARK                         _______ _______ _______ _____ _____    ______ ____
ROOT
ATOM      1  C   UNL     1       0.486  -0.510  -1.074  0.00  0.00    +0.168 C 
ATOM      2  N   UNL     1       0.312  -1.958  -1.278  0.00  0.00    -0.248 N 
ATOM      3  N   UNL     1      -0.299  -2.106  -2.529  0.00  0.00    -0.162 NA
ATOM      4  C   UNL     1      -0.510  -0.963  -3.089  0.00  0.00    +0.180 C 
ATOM      5  N   UNL     1      -0.071   0.092  -2.297  0.00  0.00    -0.260 N 
ATOM      6  H   UNL     1       0.570  -2.668  -0.668  0.00  0.00    +0.170 HD
ENDROOT
BRANCH   5   7
ATOM      7  C   UNL     1      -0.143   1.456  -2.600  0.00  0.00    +0.038 A 
ATOM      8  C   UNL     1       1.020   2.204  -2.720  0.00  0.00    +0.026 A 
ATOM      9  C   UNL     1       0.946   3.551  -3.019  0.00  0.00    +0.040 A 
ATOM     10  C   UNL     1      -0.287   4.154  -3.199  0.00  0.00    +0.124 A 
ATOM     11  C   UNL     1      -1.449   3.410  -3.079  0.00  0.00    +0.040 A 
ATOM     12  C   UNL     1      -1.379   2.062  -2.786  0.00  0.00    +0.026 A 
ATOM     13  F   UNL     1      -0.358   5.471  -3.491  0.00  0.00    -0.205 F 
ENDBRANCH   5   7
BRANCH   1  15
ATOM     14  C   UNL     1      -1.781  -0.338  -0.040  0.00  0.00    -0.010 C 
ATOM     15  C   UNL     1      -0.293  -0.043   0.157  0.00  0.00    -0.031 C 
BRANCH  15  16
ATOM     16  N   UNL     1      -0.099   1.401   0.341  0.00  0.00    +0.384 N 
ATOM     17  C   UNL     1       1.324   1.677   0.570  0.00  0.00    -0.078 C 
ATOM     18  C   UNL     1       1.543   3.188   0.681  0.00  0.00    -0.019 C 
ATOM     19  C   UNL     1       0.721   3.732   1.853  0.00  0.00    -0.004 C 
ATOM     20  C   UNL     1      -0.753   3.373   1.640  0.00  0.00    -0.019 C 
ATOM     21  C   UNL     1      -0.887   1.856   1.493  0.00  0.00    -0.078 C 
ATOM     22  H   UNL     1      -0.405   1.889  -0.488  0.00  0.00    -0.081 HD
ENDBRANCH  15  16
ENDBRANCH   1  15
BRANCH   4  23
ATOM     23  S   UNL     1      -1.263  -0.763  -4.670  0.00  0.00    -0.081 S 
BRANCH  23  24
ATOM     24  C   UNL     1      -1.612  -2.460  -5.208  0.00  0.00    +0.150 C 
BRANCH  24  25
ATOM     25  C   UNL     1      -2.265  -2.432  -6.566  0.00  0.00    +0.134 C 
ATOM     26  N   UNL     1      -2.472  -1.268  -7.132  0.00  0.00    -0.160 NA
ATOM     27  C   UNL     1      -3.047  -1.138  -8.332  0.00  0.00    +0.271 C 
ATOM     28  O   UNL     1      -3.220  -0.040  -8.832  0.00  0.00    -0.268 OA
ATOM     29  C   UNL     1      -3.472  -2.386  -9.043  0.00  0.00    +0.071 C 
ATOM     30  C   UNL     1      -4.120  -2.489 -10.218  0.00  0.00    -0.042 C 
ATOM     31  C   UNL     1      -4.700  -1.299 -10.977  0.00  0.00    +0.033 C 
ATOM     32  C   UNL     1      -6.186  -1.605 -11.210  0.00  0.00    +0.004 C 
ATOM     33  C   UNL     1      -6.347  -2.970 -11.875  0.00  0.00    +0.002 C 
ATOM     34  C   UNL     1      -5.835  -4.085 -10.959  0.00  0.00    +0.019 C 
ATOM     35  C   UNL     1      -4.329  -3.900 -10.759  0.00  0.00    +0.079 C 
ATOM     36  S   UNL     1      -3.749  -4.934  -9.362  0.00  0.00    -0.097 S 
ATOM     37  C   UNL     1      -3.175  -3.630  -8.303  0.00  0.00    +0.111 C 
ATOM     38  N   UNL     1      -2.597  -3.585  -7.126  0.00  0.00    -0.227 NA
ENDBRANCH  24  25
ENDBRANCH  23  24
ENDBRANCH   4  23
TORSDOF 6
