REMARK  Name = ZINC13298383
REMARK  13 active torsions:
REMARK  status: ('A' for Active; 'I' for Inactive)
REMARK    1  A    between atoms: C_1  and  C_2
REMARK    2  A    between atoms: C_2  and  C_4
REMARK    3  A    between atoms: C_2  and  C_10
REMARK    4  A    between atoms: C_4  and  C_5
REMARK    5  A    between atoms: C_5  and  C_6
REMARK    6  A    between atoms: C_6  and  C_7
REMARK    7  A    between atoms: C_7  and  C_8
REMARK    8  A    between atoms: C_7  and  C_9
REMARK    9  A    between atoms: C_16  and  C_37
REMARK   10  A    between atoms: C_24  and  O_36
REMARK   11  A    between atoms: C_26  and  O_35
REMARK   12  A    between atoms: C_27  and  C_34
REMARK   13  A    between atoms: C_30  and  O_33
REMARK                            x       y       z     vdW  Elec       q    Type
REMARK                         _______ _______ _______ _____ _____    ______ ____
ROOT
ATOM      1  C   UNL     1       0.852  -0.338   1.282  0.00  0.00    -0.002 C 
ATOM      2  C   UNL     1       0.096  -0.149   2.623  0.00  0.00    +0.004 C 
ATOM      3  C   UNL     1       0.329  -1.453   3.441  0.00  0.00    +0.004 C 
ATOM      4  C   UNL     1       1.546  -2.065   2.725  0.00  0.00    -0.001 C 
ATOM      5  C   UNL     1       1.163  -1.853   1.249  0.00  0.00    -0.026 C 
ATOM      6  C   UNL     1       2.302  -2.245   0.347  0.00  0.00    +0.007 C 
ATOM      7  C   UNL     1       2.931  -3.577   0.775  0.00  0.00    +0.005 C 
ATOM      8  C   UNL     1       2.102  -4.317   1.808  0.00  0.00    +0.001 C 
ATOM      9  C   UNL     1       1.863  -3.503   3.070  0.00  0.00    -0.001 C 
ATOM     10  C   UNL     1       3.117  -3.483   3.954  0.00  0.00    +0.038 C 
ATOM     11  C   UNL     1       3.586  -4.890   4.299  0.00  0.00    +0.147 C 
ATOM     12  C   UNL     1       3.862  -5.670   3.020  0.00  0.00    +0.100 C 
ATOM     13  C   UNL     1       2.650  -5.711   2.106  0.00  0.00    +0.002 C 
ATOM     14  C   UNL     1       3.047  -6.405   0.795  0.00  0.00    +0.012 C 
ATOM     15  C   UNL     1       3.541  -7.822   1.076  0.00  0.00    +0.032 C 
ATOM     16  C   UNL     1       4.710  -7.811   2.057  0.00  0.00    +0.117 C 
ATOM     17  C   UNL     1       4.322  -7.093   3.351  0.00  0.00    +0.069 C 
ATOM     18  C   UNL     1       1.511  -6.526   2.737  0.00  0.00    +0.014 C 
ATOM     19  C   UNL     1      -0.138  -2.548   0.854  0.00  0.00    +0.012 C 
ENDROOT
BRANCH   1  21
ATOM     20  C   UNL     1      -0.477   1.492   0.229  0.00  0.00    +0.008 C 
ATOM     21  C   UNL     1      -0.045   0.029   0.104  0.00  0.00    -0.010 C 
BRANCH  21  22
ATOM     22  C   UNL     1       0.724  -0.166  -1.204  0.00  0.00    +0.003 C 
BRANCH  22  23
ATOM     23  C   UNL     1      -0.187   0.172  -2.386  0.00  0.00    +0.001 C 
BRANCH  23  24
ATOM     24  C   UNL     1       0.583  -0.023  -3.694  0.00  0.00    +0.003 C 
BRANCH  24  25
ATOM     25  C   UNL     1      -0.328   0.315  -4.876  0.00  0.00    -0.017 C 
ATOM     26  C   UNL     1      -0.686   1.802  -4.835  0.00  0.00    +0.007 C 
ATOM     27  C   UNL     1       0.399   0.001  -6.186  0.00  0.00    +0.007 C 
ENDBRANCH  24  25
ENDBRANCH  23  24
ENDBRANCH  22  23
ENDBRANCH  21  22
ENDBRANCH   1  21
BRANCH  16  28
ATOM     28  O   UNL     1       5.085  -9.158   2.364  0.00  0.00    -0.392 OA
ATOM     29  H   UNL     1       5.361  -9.674   1.594  0.00  0.00    +0.210 HD
ENDBRANCH  16  28
BRANCH  12  30
ATOM     30  O   UNL     1       4.946  -5.023   2.327  0.00  0.00    -0.385 OA
ATOM     31  H   UNL     1       5.769  -4.981   2.834  0.00  0.00    +0.210 HD
ENDBRANCH  12  30
BRANCH  11  32
ATOM     32  O   UNL     1       2.645  -5.546   5.140  0.00  0.00    -0.389 OA
ATOM     33  H   UNL     1       2.490  -5.097   5.982  0.00  0.00    +0.210 HD
ENDBRANCH  11  32
TORSDOF 8
