REMARK  Name = ZINC63567338
REMARK  7 active torsions:
REMARK  status: ('A' for Active; 'I' for Inactive)
REMARK    1  A    between atoms: C_1  and  C_2
REMARK    2  A    between atoms: C_5  and  N_8
REMARK    3  A    between atoms: C_9  and  N_31
REMARK    4  A    between atoms: C_11  and  C_15
REMARK    5  A    between atoms: C_12  and  C_14
REMARK    6  A    between atoms: N_17  and  C_18
REMARK    7  A    between atoms: C_21  and  C_24
REMARK                            x       y       z     vdW  Elec       q    Type
REMARK                         _______ _______ _______ _____ _____    ______ ____
ROOT
ATOM      1  N   UNL     1       0.058  -4.167  -0.021  0.00  0.00    -0.226 N 
ATOM      2  C   UNL     1       0.070  -5.059   1.151  0.00  0.00    +0.230 C 
ATOM      3  C   UNL     1       0.088  -6.452   0.561  0.00  0.00    +0.074 C 
ATOM      4  C   UNL     1       0.087  -6.311  -0.778  0.00  0.00    +0.031 C 
ATOM      5  N   UNL     1       0.063  -5.003  -1.145  0.00  0.00    -0.266 N 
ATOM      6  C   UNL     1       0.102  -7.462  -1.750  0.00  0.00    +0.062 C 
ATOM      7  H   UNL     1       0.054  -4.690  -2.063  0.00  0.00    +0.170 HD
ENDROOT
BRANCH   1  12
ATOM      8  C   UNL     1      -0.018   1.503   0.010  0.00  0.00    +0.044 C 
ATOM      9  C   UNL     1       0.002  -0.004   0.002  0.00  0.00    -0.050 A 
ATOM     10  C   UNL     1       0.006  -0.687  -1.200  0.00  0.00    +0.005 A 
ATOM     11  C   UNL     1       0.024  -2.068  -1.212  0.00  0.00    +0.025 A 
ATOM     12  C   UNL     1       0.040  -2.771  -0.013  0.00  0.00    +0.050 A 
ATOM     13  C   UNL     1       0.036  -2.081   1.193  0.00  0.00    +0.025 A 
ATOM     14  C   UNL     1       0.023  -0.700   1.197  0.00  0.00    +0.005 A 
ENDBRANCH   1  12
BRANCH   2  15
ATOM     15  N   UNL     1      -1.135  -4.858   1.960  0.00  0.00    -0.329 N 
ATOM     16  C   UNL     1      -2.395  -4.664   1.474  0.00  0.00    +0.088 A 
ATOM     17  C   UNL     1      -3.233  -4.519   2.520  0.00  0.00    +0.019 A 
ATOM     18  C   UNL     1      -2.463  -4.627   3.695  0.00  0.00    +0.019 A 
ATOM     19  C   UNL     1      -1.184  -4.840   3.322  0.00  0.00    +0.088 A 
ENDBRANCH   2  15
BRANCH   3  20
ATOM     20  C   UNL     1       0.104  -7.671   1.279  0.00  0.00    +0.247 C 
ATOM     21  O   UNL     1       0.118  -8.731   0.679  0.00  0.00    -0.270 OA
ATOM     22  N   UNL     1       0.104  -7.659   2.627  0.00  0.00    -0.285 N 
ATOM     23  H   UNL     1       0.093  -6.815   3.104  0.00  0.00    +0.151 HD
BRANCH  22  24
ATOM     24  C   UNL     1       0.120  -8.921   3.370  0.00  0.00    +0.240 C 
ATOM     25  C   UNL     1      -0.843  -8.866   4.542  0.00  0.00    +0.050 C 
ATOM     26  C   UNL     1      -0.051  -9.029   5.619  0.00  0.00    +0.093 C 
ATOM     27  N   UNL     1       1.245  -9.172   5.238  0.00  0.00    -0.152 NA
ATOM     28  N   UNL     1       1.428  -9.127   4.016  0.00  0.00    -0.160 NA
BRANCH  26  29
ATOM     29  C   UNL     1      -0.527  -9.049   7.025  0.00  0.00    +0.005 A 
ATOM     30  C   UNL     1      -1.884  -8.898   7.306  0.00  0.00    +0.010 A 
ATOM     31  C   UNL     1      -2.322  -8.918   8.614  0.00  0.00    +0.003 A 
ATOM     32  C   UNL     1      -1.418  -9.086   9.647  0.00  0.00    +0.038 A 
ATOM     33  C   UNL     1      -0.068  -9.237   9.375  0.00  0.00    +0.124 A 
ATOM     34  C   UNL     1       0.380  -9.225   8.067  0.00  0.00    +0.048 A 
ATOM     35  F   UNL     1       0.810  -9.401  10.388  0.00  0.00    -0.205 F 
ENDBRANCH  26  29
ENDBRANCH  22  24
ENDBRANCH   3  20
TORSDOF 5
