REMARK  Name = ZINC36597568
REMARK  11 active torsions:
REMARK  status: ('A' for Active; 'I' for Inactive)
REMARK    1  A    between atoms: C_1  and  C_2
REMARK    2  A    between atoms: C_5  and  C_7
REMARK    3  A    between atoms: C_7  and  N_8
REMARK    4  A    between atoms: N_8  and  C_9
REMARK    5  A    between atoms: C_9  and  C_11
REMARK    6  A    between atoms: C_9  and  C_20
REMARK    7  A    between atoms: C_14  and  N_17
REMARK    8  A    between atoms: N_22  and  C_23
REMARK    9  A    between atoms: C_29  and  C_31
REMARK   10  A    between atoms: C_32  and  O_38
REMARK   11  A    between atoms: C_36  and  O_37
REMARK                            x       y       z     vdW  Elec       q    Type
REMARK                         _______ _______ _______ _____ _____    ______ ____
ROOT
ATOM      1  N   UNL     1       1.948  -3.591  -1.402  0.00  0.00    -0.274 N 
ATOM      2  C   UNL     1       1.038  -4.465  -1.876  0.00  0.00    +0.255 C 
ATOM      3  O   UNL     1       1.171  -4.940  -2.987  0.00  0.00    -0.270 OA
ENDROOT
BRANCH   2   4
ATOM      4  C   UNL     1      -0.119  -4.844  -1.048  0.00  0.00    +0.119 A 
ATOM      5  C   UNL     1      -1.313  -4.111  -1.124  0.00  0.00    +0.133 A 
ATOM      6  C   UNL     1      -2.395  -4.476  -0.340  0.00  0.00    +0.046 A 
ATOM      7  C   UNL     1      -2.302  -5.559   0.514  0.00  0.00    +0.007 A 
ATOM      8  C   UNL     1      -1.131  -6.288   0.597  0.00  0.00    +0.046 A 
ATOM      9  C   UNL     1      -0.038  -5.944  -0.181  0.00  0.00    +0.133 A 
BRANCH   9  10
ATOM     10  O   UNL     1       1.109  -6.664  -0.103  0.00  0.00    -0.506 OA
ATOM     11  H   UNL     1       1.730  -6.344   0.566  0.00  0.00    +0.292 HD
ENDBRANCH   9  10
BRANCH   5  12
ATOM     12  O   UNL     1      -1.406  -3.047  -1.961  0.00  0.00    -0.506 OA
ATOM     13  H   UNL     1      -1.720  -3.272  -2.848  0.00  0.00    +0.292 HD
ENDBRANCH   5  12
ENDBRANCH   2   4
BRANCH   1  14
ATOM     14  C   UNL     1       1.860  -3.120  -0.018  0.00  0.00    +0.183 C 
BRANCH  14  19
ATOM     15  C   UNL     1       0.508   1.739  -0.074  0.00  0.00    +0.086 C 
ATOM     16  C   UNL     1       0.423   0.237   0.012  0.00  0.00    +0.102 A 
ATOM     17  C   UNL     1      -0.700  -0.478   0.201  0.00  0.00    +0.045 A 
ATOM     18  C   UNL     1      -0.321  -1.840   0.216  0.00  0.00    +0.046 A 
ATOM     19  C   UNL     1       1.011  -1.876   0.036  0.00  0.00    +0.122 A 
ATOM     20  O   UNL     1       1.456  -0.615  -0.093  0.00  0.00    -0.463 OA
ENDBRANCH  14  19
ENDBRANCH   1  14
BRANCH   1  21
ATOM     21  C   UNL     1       3.026  -3.114  -2.272  0.00  0.00    +0.193 C 
BRANCH  21  22
ATOM     22  C   UNL     1       3.913  -4.271  -2.655  0.00  0.00    -0.018 A 
ATOM     23  C   UNL     1       4.486  -5.057  -1.673  0.00  0.00    +0.008 A 
ATOM     24  C   UNL     1       5.299  -6.118  -2.025  0.00  0.00    +0.033 A 
ATOM     25  C   UNL     1       5.538  -6.394  -3.358  0.00  0.00    +0.126 A 
ATOM     26  C   UNL     1       4.964  -5.608  -4.340  0.00  0.00    +0.033 A 
ATOM     27  C   UNL     1       4.147  -4.550  -3.988  0.00  0.00    +0.008 A 
BRANCH  25  28
ATOM     28  N   UNL     1       6.409  -7.530  -3.734  0.00  0.00    +0.056 N 
ATOM     29  O   UNL     1       6.912  -8.216  -2.876  0.00  0.00    -0.126 OA
ATOM     30  O   UNL     1       6.618  -7.771  -4.901  0.00  0.00    -0.126 OA
ENDBRANCH  25  28
ENDBRANCH  21  22
BRANCH  21  31
ATOM     31  C   UNL     1       2.435  -2.501  -3.515  0.00  0.00    +0.238 C 
ATOM     32  O   UNL     1       1.231  -2.466  -3.660  0.00  0.00    -0.273 OA
ATOM     33  N   UNL     1       3.243  -1.991  -4.465  0.00  0.00    -0.311 N 
ATOM     34  H   UNL     1       4.206  -2.018  -4.349  0.00  0.00    +0.149 HD
BRANCH  33  35
ATOM     35  C   UNL     1       2.668  -1.395  -5.673  0.00  0.00    +0.073 C 
ATOM     36  C   UNL     1       2.395  -2.493  -6.703  0.00  0.00    +0.022 C 
ATOM     37  C   UNL     1       1.794  -1.871  -7.965  0.00  0.00    +0.002 C 
ATOM     38  C   UNL     1       2.778  -0.856  -8.551  0.00  0.00    +0.000 C 
ATOM     39  C   UNL     1       3.052   0.242  -7.522  0.00  0.00    +0.002 C 
ATOM     40  C   UNL     1       3.652  -0.380  -6.260  0.00  0.00    +0.022 C 
ENDBRANCH  33  35
ENDBRANCH  21  31
ENDBRANCH   1  21
TORSDOF 10
