REMARK  Name = ZINC58100944
REMARK  10 active torsions:
REMARK  status: ('A' for Active; 'I' for Inactive)
REMARK    1  A    between atoms: C_1  and  C_2
REMARK    2  A    between atoms: C_3  and  C_21
REMARK    3  A    between atoms: C_7  and  C_8
REMARK    4  A    between atoms: C_8  and  C_10
REMARK    5  A    between atoms: C_8  and  O_14
REMARK    6  A    between atoms: C_10  and  C_11
REMARK    7  A    between atoms: C_10  and  C_12
REMARK    8  A    between atoms: C_10  and  C_13
REMARK    9  A    between atoms: C_15  and  C_19
REMARK   10  A    between atoms: C_15  and  C_20
REMARK                            x       y       z     vdW  Elec       q    Type
REMARK                         _______ _______ _______ _____ _____    ______ ____
ROOT
ATOM      1  C   UNL     1      -1.573   0.089   0.042  0.00  0.00    +0.044 C 
ATOM      2  C   UNL     1      -0.806  -1.194   0.231  0.00  0.00    -0.040 A 
ATOM      3  C   UNL     1      -0.934  -2.212  -0.691  0.00  0.00    -0.026 A 
ATOM      4  C   UNL     1      -0.228  -3.401  -0.523  0.00  0.00    +0.041 A 
ATOM      5  C   UNL     1       0.601  -3.540   0.583  0.00  0.00    -0.011 A 
ATOM      6  C   UNL     1       0.727  -2.523   1.502  0.00  0.00    +0.013 A 
ATOM      7  C   UNL     1       0.026  -1.343   1.325  0.00  0.00    -0.015 A 
ATOM      8  C   UNL     1       1.216  -4.917   0.483  0.00  0.00    +0.068 C 
ATOM      9  C   UNL     1       0.629  -5.491  -0.788  0.00  0.00    +0.227 C 
ATOM     10  O   UNL     1       0.854  -6.588  -1.255  0.00  0.00    -0.275 OA
ATOM     11  N   UNL     1      -0.189  -4.557  -1.303  0.00  0.00    -0.284 N 
ATOM     12  C   UNL     1       2.739  -4.817   0.373  0.00  0.00    +0.025 C 
ATOM     13  C   UNL     1       0.820  -5.771   1.690  0.00  0.00    +0.025 C 
ATOM     14  C   UNL     1      -1.839  -2.037  -1.883  0.00  0.00    +0.046 C 
ATOM     15  H   UNL     1      -0.694  -4.674  -2.123  0.00  0.00    +0.155 HD
ENDROOT
BRANCH   7  16
ATOM     16  C   UNL     1       0.165  -0.225   2.326  0.00  0.00    +0.150 C 
BRANCH  16  17
ATOM     17  C   UNL     1      -0.848  -0.422   3.456  0.00  0.00    -0.008 C 
ATOM     18  C   UNL     1      -0.617  -1.782   4.116  0.00  0.00    +0.013 C 
ATOM     19  C   UNL     1      -0.674   0.687   4.496  0.00  0.00    +0.013 C 
ATOM     20  C   UNL     1      -2.266  -0.367   2.884  0.00  0.00    +0.013 C 
ENDBRANCH  16  17
BRANCH  16  21
ATOM     21  O   UNL     1       1.488  -0.231   2.866  0.00  0.00    -0.387 OA
ATOM     22  H   UNL     1       1.724  -1.051   3.321  0.00  0.00    +0.210 HD
ENDBRANCH  16  21
ENDBRANCH   7  16
TORSDOF 3
