REMARK  Name = ZINC39559757
REMARK  13 active torsions:
REMARK  status: ('A' for Active; 'I' for Inactive)
REMARK    1  A    between atoms: C_1  and  C_2
REMARK    2  A    between atoms: C_3  and  C_4
REMARK    3  A    between atoms: C_5  and  C_6
REMARK    4  A    between atoms: C_7  and  C_8
REMARK    5  A    between atoms: N_10  and  C_11
REMARK    6  A    between atoms: C_11  and  C_13
REMARK    7  A    between atoms: C_11  and  C_17
REMARK    8  A    between atoms: C_13  and  C_15
REMARK    9  A    between atoms: C_13  and  N_16
REMARK   10  A    between atoms: C_17  and  O_19
REMARK   11  A    between atoms: O_19  and  C_20
REMARK   12  A    between atoms: C_20  and  C_22
REMARK   13  A    between atoms: C_20  and  C_31
REMARK                            x       y       z     vdW  Elec       q    Type
REMARK                         _______ _______ _______ _____ _____    ______ ____
ROOT
ATOM      1  O   UNK A   2      -9.733  -4.764  -0.443  0.00  0.00    -0.453 OA
ENDROOT
BRANCH   1   2
ATOM      2  C   UNK A   2      -8.408  -4.905  -0.286  0.00  0.00    +0.327 C 
ATOM      3  O   UNK A   2      -7.908  -6.004  -0.328  0.00  0.00    -0.249 OA
BRANCH   2   4
ATOM      4  C   UNK A   2      -7.543  -3.692  -0.059  0.00  0.00    +0.167 C 
BRANCH   4   7
ATOM      5  C   UNK A   2      -5.322  -3.012  -0.796  0.00  0.00    +0.237 C 
ATOM      6  O   UNK A   2      -5.715  -1.860  -0.821  0.00  0.00    -0.271 OA
ATOM      7  N   UNK A   2      -6.160  -4.002  -0.429  0.00  0.00    -0.300 N 
ATOM      8  H   UNK A   2      -5.847  -4.920  -0.409  0.00  0.00    +0.150 HD
BRANCH   5  10
ATOM      9  C   UNK A   2      -3.104  -2.306  -1.393  0.00  0.00    +0.005 C 
ATOM     10  C   UNK A   2      -3.985  -3.312  -1.154  0.00  0.00    +0.067 C 
BRANCH   9  12
ATOM     11  C   UNK A   2      -2.596   0.035  -1.356  0.00  0.00    -0.000 C 
ATOM     12  C   UNK A   2      -3.427  -0.984  -1.023  0.00  0.00    +0.000 C 
BRANCH  11  15
ATOM     13  C   UNK A   2      -2.456   3.821  -0.906  0.00  0.00    +0.035 C 
ATOM     14  C   UNK A   2      -2.112   2.408  -1.301  0.00  0.00    -0.030 C 
ATOM     15  C   UNK A   2      -2.930   1.405  -0.973  0.00  0.00    -0.005 C 
ENDBRANCH  11  15
ENDBRANCH   9  12
ENDBRANCH   5  10
ENDBRANCH   4   7
BRANCH   4  16
ATOM     16  C   UNK A   2      -7.599  -3.295   1.418  0.00  0.00    -0.047 C 
ATOM     17  C   UNK A   2      -9.008  -2.806   1.761  0.00  0.00    -0.012 C 
BRANCH  16  18
ATOM     18  N   UNK A   2      -6.631  -2.220   1.673  0.00  0.00    +0.381 N 
ATOM     19  H   UNK A   2      -6.858  -1.420   1.101  0.00  0.00    -0.090 HD
ATOM     20  H   UNK A   2      -6.669  -1.958   2.647  0.00  0.00    -0.090 HD
ATOM     21  H   UNK A   2      -5.703  -2.543   1.447  0.00  0.00    -0.090 HD
ENDBRANCH  16  18
ENDBRANCH   4  16
ENDBRANCH   2   4
ENDBRANCH   1   2
BRANCH   1  22
ATOM     22  C   UNK A   2     -10.477  -5.941  -0.765  0.00  0.00    +0.237 C 
BRANCH  22  23
ATOM     23  C   UNK A   2     -11.208  -6.439   0.484  0.00  0.00    +0.205 C 
ATOM     24  C   UNK A   2     -10.198  -6.845   1.514  0.00  0.00    +0.238 C 
ATOM     25  O   UNK A   2      -9.662  -5.981   2.175  0.00  0.00    -0.274 OA
ATOM     26  N   GLY A   1      -9.864  -8.121   1.735  0.00  0.00    -0.305 N 
ATOM     27  CA  GLY A   1     -10.448  -9.230   0.993  0.00  0.00    +0.200 C 
ATOM     28  C   GLY A   1     -11.738  -8.831   0.343  0.00  0.00    +0.231 C 
ATOM     29  O   GLY A   1     -12.512  -9.701   0.006  0.00  0.00    -0.274 OA
ATOM     30  N   UNK A   2     -12.068  -7.557   0.119  0.00  0.00    -0.299 N 
ATOM     31  H   GLY A   1      -9.203  -8.316   2.418  0.00  0.00    +0.149 HD
ATOM     32  H   UNK A   2     -12.920  -7.367  -0.306  0.00  0.00    +0.150 HD
ENDBRANCH  22  23
BRANCH  22  33
ATOM     33  C   UNK A   2     -11.482  -5.622  -1.841  0.00  0.00    +0.018 C 
ATOM     34  C   UNK A   2     -11.594  -6.268  -3.008  0.00  0.00    -0.011 C 
ATOM     35  C   UNK A   2     -10.788  -7.212  -3.675  0.00  0.00    +0.008 C 
ATOM     36  C   UNK A   2     -10.757  -7.084  -5.037  0.00  0.00    +0.020 C 
ATOM     37  C   UNK A   2     -11.506  -6.012  -5.688  0.00  0.00    +0.039 C 
ATOM     38  C   UNK A   2     -12.478  -5.328  -5.070  0.00  0.00    +0.024 C 
ATOM     39  C   UNK A   2     -12.848  -5.705  -3.665  0.00  0.00    +0.160 C 
ATOM     40  N   UNK A   2     -13.229  -4.586  -2.815  0.00  0.00    -0.279 NA
ATOM     41  C   UNK A   2     -12.454  -4.598  -1.770  0.00  0.00    +0.113 C 
ATOM     42 CL   UNK A   2     -11.119  -5.607  -7.331  0.00  0.00    -0.084 Cl
ENDBRANCH  22  33
ENDBRANCH   1  22
TORSDOF 11
