REMARK  Name = ZINC16098466
REMARK  10 active torsions:
REMARK  status: ('A' for Active; 'I' for Inactive)
REMARK    1  A    between atoms: C_1  and  C_2
REMARK    2  A    between atoms: C_3  and  C_32
REMARK    3  A    between atoms: C_4  and  C_31
REMARK    4  A    between atoms: C_5  and  S_10
REMARK    5  A    between atoms: C_6  and  C_9
REMARK    6  A    between atoms: C_7  and  C_8
REMARK    7  A    between atoms: S_10  and  N_13
REMARK    8  A    between atoms: N_13  and  C_14
REMARK    9  A    between atoms: C_17  and  S_20
REMARK   10  A    between atoms: S_20  and  N_23
REMARK                            x       y       z     vdW  Elec       q    Type
REMARK                         _______ _______ _______ _____ _____    ______ ____
ROOT
ATOM      1  C   UNL     1      -6.813   4.258   3.600  0.00  0.00    +0.048 A 
ATOM      2  C   UNL     1      -5.563   4.489   4.161  0.00  0.00    +0.026 A 
ATOM      3  C   UNL     1      -4.459   4.638   3.345  0.00  0.00    +0.031 A 
ATOM      4  C   UNL     1      -4.596   4.556   1.971  0.00  0.00    +0.113 A 
ATOM      5  C   UNL     1      -5.840   4.331   1.410  0.00  0.00    +0.031 A 
ATOM      6  C   UNL     1      -6.947   4.176   2.220  0.00  0.00    +0.026 A 
ENDROOT
BRANCH   4   7
ATOM      7  S   UNL     1      -3.185   4.746   0.934  0.00  0.00    +0.100 S 
ATOM      8  O   UNL     1      -2.232   5.495   1.677  0.00  0.00    -0.146 OA
ATOM      9  O   UNL     1      -3.667   5.170  -0.334  0.00  0.00    -0.146 OA
BRANCH   7  10
ATOM     10  N   UNL     1      -2.533   3.239   0.713  0.00  0.00    -0.118 NA
ATOM     11  C   UNL     1      -1.476   3.093  -0.018  0.00  0.00    +0.117 C 
ATOM     12  C   UNL     1      -0.862   4.293  -0.650  0.00  0.00    +0.073 C 
ATOM     13  C   UNL     1      -1.397   4.469  -2.087  0.00  0.00    +0.008 C 
ATOM     14  C   UNL     1      -0.875   3.401  -2.969  0.00  0.00    +0.002 C 
ATOM     15  C   UNL     1      -1.324   1.997  -2.591  0.00  0.00    +0.019 C 
ATOM     16  C   UNL     1      -0.426   1.427  -1.520  0.00  0.00    +0.102 C 
ATOM     17  N   UNL     1      -0.945   1.823  -0.189  0.00  0.00    -0.331 N 
ATOM     18  H   UNL     1      -0.915   1.200   0.553  0.00  0.00    +0.147 HD
ENDBRANCH   7  10
ENDBRANCH   4   7
BRANCH   1  19
ATOM     19  N   UNL     1      -7.932   4.107   4.423  0.00  0.00    -0.216 N 
ATOM     20  H   UNL     1      -7.886   3.533   5.203  0.00  0.00    +0.174 HD
BRANCH  19  21
ATOM     21  S   UNL     1      -9.335   4.910   4.065  0.00  0.00    +0.073 S 
ATOM     22  O   UNL     1     -10.267   4.573   5.085  0.00  0.00    -0.150 OA
ATOM     23  O   UNL     1      -8.973   6.253   3.778  0.00  0.00    -0.150 OA
BRANCH  21  28
ATOM     24  C   UNL     1     -11.474   2.565  -1.066  0.00  0.00    +0.044 C 
ATOM     25  C   UNL     1     -10.940   3.151   0.215  0.00  0.00    -0.044 A 
ATOM     26  C   UNL     1     -10.932   2.392   1.371  0.00  0.00    -0.043 A 
ATOM     27  C   UNL     1     -10.442   2.929   2.547  0.00  0.00    -0.020 A 
ATOM     28  C   UNL     1      -9.960   4.225   2.567  0.00  0.00    +0.115 A 
ATOM     29  C   UNL     1      -9.973   4.985   1.412  0.00  0.00    -0.020 A 
ATOM     30  C   UNL     1     -10.458   4.446   0.235  0.00  0.00    -0.043 A 
ATOM     31  C   UNL     1     -10.467   5.273  -1.025  0.00  0.00    +0.044 C 
ATOM     32  C   UNL     1      -9.452   6.399   1.435  0.00  0.00    +0.046 C 
ATOM     33  C   UNL     1     -10.434   2.103   3.807  0.00  0.00    +0.046 C 
ATOM     34  C   UNL     1     -11.457   0.980   1.349  0.00  0.00    +0.044 C 
ENDBRANCH  21  28
ENDBRANCH  19  21
ENDBRANCH   1  19
TORSDOF 5
