REMARK  Name = ZINC21762323
REMARK  10 active torsions:
REMARK  status: ('A' for Active; 'I' for Inactive)
REMARK    1  A    between atoms: C_1  and  C_2
REMARK    2  A    between atoms: C_3  and  C_25
REMARK    3  A    between atoms: C_4  and  C_24
REMARK    4  A    between atoms: C_7  and  C_8
REMARK    5  A    between atoms: C_8  and  C_10
REMARK    6  A    between atoms: C_10  and  C_12
REMARK    7  A    between atoms: C_10  and  S_13
REMARK    8  A    between atoms: S_13  and  C_14
REMARK    9  A    between atoms: C_25  and  O_27
REMARK   10  A    between atoms: O_27  and  C_28
REMARK                            x       y       z     vdW  Elec       q    Type
REMARK                         _______ _______ _______ _____ _____    ______ ____
ROOT
ATOM      1  C   UNL     1      -4.014   6.130   0.072  0.00  0.00    +0.124 C 
ATOM      2  C   UNL     1      -3.251   6.311  -1.242  0.00  0.00    +0.028 C 
ENDROOT
BRANCH   1   3
ATOM      3  C   UNL     1      -5.042   7.223   0.211  0.00  0.00    +0.192 C 
ATOM      4  O   UNL     1      -6.186   7.029  -0.144  0.00  0.00    -0.289 OA
BRANCH   3  11
ATOM      5  C   UNL     1      -6.973   9.627   0.600  0.00  0.00    +0.047 C 
ATOM      6  C   UNL     1      -5.507   9.557   0.940  0.00  0.00    -0.008 A 
ATOM      7  C   UNL     1      -4.724  10.586   1.507  0.00  0.00    +0.083 A 
ATOM      8  C   UNL     1      -3.439  10.092   1.648  0.00  0.00    +0.028 A 
ATOM      9  N   UNL     1      -3.414   8.827   1.204  0.00  0.00    -0.355 N 
ATOM     10  H   UNL     1      -2.478   8.250   1.237  0.00  0.00    +0.166 HD
ATOM     11  C   UNL     1      -4.672   8.476   0.757  0.00  0.00    +0.087 A 
ATOM     12  C   UNL     1      -2.265  10.847   2.214  0.00  0.00    +0.064 C 
BRANCH   7  13
ATOM     13  C   UNL     1      -5.189  11.933   1.879  0.00  0.00    +0.341 C 
ATOM     14  O   UNL     1      -5.620  12.141   2.995  0.00  0.00    -0.245 OA
BRANCH  13  15
ATOM     15  O   UNL     1      -5.135  12.936   0.980  0.00  0.00    -0.464 OA
ATOM     16  C   UNL     1      -5.609  14.238   1.416  0.00  0.00    +0.280 C 
ENDBRANCH  13  15
ENDBRANCH   7  13
ENDBRANCH   3  11
ENDBRANCH   1   3
BRANCH   1  17
ATOM     17  S   UNL     1      -4.842   4.520   0.071  0.00  0.00    -0.075 S 
BRANCH  17  18
ATOM     18  C   UNL     1      -3.439   3.454   0.052  0.00  0.00    +0.192 A 
ATOM     19  N   UNL     1      -3.620   2.139   0.047  0.00  0.00    -0.207 NA
ATOM     20  C   UNL     1      -2.607   1.290   0.033  0.00  0.00    +0.129 A 
ATOM     21  C   UNL     1      -1.276   1.794   0.018  0.00  0.00    +0.047 A 
ATOM     22  C   UNL     1      -0.013   1.076   0.008  0.00  0.00    +0.021 A 
ATOM     23  C   UNL     1       1.135   1.770   0.001  0.00  0.00    +0.048 A 
ATOM     24  S   UNL     1       0.594   3.468   0.014  0.00  0.00    -0.077 S 
ATOM     25  C   UNL     1      -1.159   3.200   0.029  0.00  0.00    +0.114 A 
ATOM     26  N   UNL     1      -2.222   3.981   0.043  0.00  0.00    -0.215 NA
ATOM     27  N   UNL     1      -2.837  -0.074   0.029  0.00  0.00    -0.343 N 
ATOM     28  H   UNL     1      -1.990  -0.775   0.017  0.00  0.00    +0.144 HD
ATOM     29  H   UNL     1      -3.869  -0.457   0.036  0.00  0.00    +0.144 HD
ENDBRANCH  17  18
ENDBRANCH   1  17
TORSDOF 6
