REMARK  Name = ZINC44149536
REMARK  11 active torsions:
REMARK  status: ('A' for Active; 'I' for Inactive)
REMARK    1  A    between atoms: C_1  and  C_2
REMARK    2  A    between atoms: C_2  and  C_3
REMARK    3  A    between atoms: C_2  and  C_4
REMARK    4  A    between atoms: C_4  and  C_6
REMARK    5  A    between atoms: C_4  and  N_11
REMARK    6  A    between atoms: N_14  and  C_15
REMARK    7  A    between atoms: C_18  and  C_21
REMARK    8  A    between atoms: C_21  and  C_22
REMARK    9  A    between atoms: N_24  and  C_25
REMARK   10  A    between atoms: C_25  and  C_26
REMARK   11  A    between atoms: C_25  and  C_27
REMARK                            x       y       z     vdW  Elec       q    Type
REMARK                         _______ _______ _______ _____ _____    ______ ____
ROOT
ATOM      1  N   UNL     1      -3.413  -0.627  -2.911  0.00  0.00    -0.292 N 
ATOM      2  C   UNL     1      -3.991   0.591  -2.883  0.00  0.00    +0.304 C 
ATOM      3  O   UNL     1      -5.064   0.767  -3.426  0.00  0.00    -0.252 OA
ATOM      4  N   UNL     1      -3.379   1.612  -2.252  0.00  0.00    -0.269 N 
ATOM      5  H   UNL     1      -2.557  -0.768  -2.477  0.00  0.00    +0.151 HD
ATOM      6  H   UNL     1      -2.562   1.455  -1.753  0.00  0.00    +0.156 HD
ENDROOT
BRANCH   4   7
ATOM      7  C   UNL     1      -3.922   2.900  -2.317  0.00  0.00    +0.035 A 
ATOM      8  C   UNL     1      -3.789   3.766  -1.239  0.00  0.00    +0.023 A 
ATOM      9  C   UNL     1      -4.326   5.037  -1.306  0.00  0.00    +0.006 A 
ATOM     10  C   UNL     1      -4.994   5.448  -2.445  0.00  0.00    -0.039 A 
ATOM     11  C   UNL     1      -5.128   4.588  -3.519  0.00  0.00    +0.006 A 
ATOM     12  C   UNL     1      -4.589   3.317  -3.461  0.00  0.00    +0.023 A 
BRANCH  10  13
ATOM     13  C   UNL     1      -5.579   6.835  -2.515  0.00  0.00    +0.130 C 
BRANCH  13  14
ATOM     14  C   UNL     1      -4.553   7.784  -3.079  0.00  0.00    +0.218 C 
ATOM     15  O   UNL     1      -3.456   7.374  -3.394  0.00  0.00    -0.275 OA
ATOM     16  N   UNL     1      -4.855   9.088  -3.234  0.00  0.00    -0.313 N 
ATOM     17  H   UNL     1      -5.733   9.416  -2.983  0.00  0.00    +0.149 HD
BRANCH  16  18
ATOM     18  C   UNL     1      -3.858  10.011  -3.783  0.00  0.00    +0.067 C 
ATOM     19  C   UNL     1      -3.910   9.968  -5.311  0.00  0.00    +0.027 C 
ATOM     20  C   UNL     1      -4.159  11.432  -3.302  0.00  0.00    +0.027 C 
ENDBRANCH  16  18
ENDBRANCH  13  14
ENDBRANCH  10  13
ENDBRANCH   4   7
BRANCH   1  21
ATOM     21  C   UNL     1      -4.079  -1.738  -3.596  0.00  0.00    +0.114 C 
BRANCH  21  22
ATOM     22  C   UNL     1      -3.050  -2.752  -4.024  0.00  0.00    +0.010 A 
ATOM     23  C   UNL     1      -2.976  -3.458  -5.180  0.00  0.00    +0.013 A 
ATOM     24  C   UNL     1      -1.930  -4.344  -5.358  0.00  0.00    +0.008 A 
ATOM     25  C   UNL     1      -1.010  -4.481  -4.373  0.00  0.00    +0.045 A 
ATOM     26  S   UNL     1      -1.609  -3.332  -3.145  0.00  0.00    -0.100 S 
ENDBRANCH  21  22
BRANCH  21  28
ATOM     27  C   UNL     1      -6.125  -1.367  -2.212  0.00  0.00    +0.009 C 
ATOM     28  C   UNL     1      -5.081  -2.397  -2.646  0.00  0.00    +0.008 C 
ATOM     29  C   UNL     1      -5.776  -3.557  -3.362  0.00  0.00    +0.009 C 
ENDBRANCH  21  28
ENDBRANCH   1  21
TORSDOF 7
