REMARK  Name = ZINC11060770
REMARK  10 active torsions:
REMARK  status: ('A' for Active; 'I' for Inactive)
REMARK    1  A    between atoms: C_1  and  C_2
REMARK    2  A    between atoms: C_2  and  C_3
REMARK    3  A    between atoms: C_6  and  C_9
REMARK    4  A    between atoms: C_9  and  C_11
REMARK    5  A    between atoms: C_9  and  N_12
REMARK    6  A    between atoms: C_13  and  C_15
REMARK    7  A    between atoms: C_15  and  O_16
REMARK    8  A    between atoms: O_16  and  C_17
REMARK    9  A    between atoms: C_17  and  C_19
REMARK   10  A    between atoms: C_20  and  C_34
REMARK                            x       y       z     vdW  Elec       q    Type
REMARK                         _______ _______ _______ _____ _____    ______ ____
ROOT
ATOM      1  C   UNL     1       3.126   5.724  -6.397  0.00  0.00    +0.347 C 
ATOM      2  O   UNL     1       2.928   6.884  -6.089  0.00  0.00    -0.244 OA
ENDROOT
BRANCH   1   3
ATOM      3  C   UNL     1       2.909   4.659  -5.415  0.00  0.00    +0.102 A 
ATOM      4  C   UNL     1       2.491   4.766  -4.120  0.00  0.00    -0.015 A 
ATOM      5  C   UNL     1       2.344   3.618  -3.340  0.00  0.00    +0.076 A 
ATOM      6  C   UNL     1       2.654   2.395  -3.980  0.00  0.00    +0.116 A 
ATOM      7  S   UNL     1       3.125   2.899  -5.615  0.00  0.00    -0.062 S 
ATOM      8  N   UNL     1       2.558   1.231  -3.350  0.00  0.00    -0.226 NA
ATOM      9  C   UNL     1       2.164   1.152  -2.110  0.00  0.00    +0.114 A 
ATOM     10  N   UNL     1       1.835   2.264  -1.391  0.00  0.00    -0.296 N 
ATOM     11  C   UNL     1       1.906   3.493  -1.931  0.00  0.00    +0.263 A 
ATOM     12  O   UNL     1       1.616   4.479  -1.278  0.00  0.00    -0.267 OA
ATOM     13  C   UNL     1       1.397   2.086  -0.000  0.00  0.00    +0.126 C 
ATOM     14  C   UNL     1      -0.018   1.515   0.010  0.00  0.00    +0.022 C 
ATOM     15  C   UNL     1       0.002  -0.004   0.002  0.00  0.00    +0.002 C 
ATOM     16  C   UNL     1       0.583  -0.563  -1.285  0.00  0.00    +0.008 C 
ATOM     17  C   UNL     1       2.058  -0.193  -1.429  0.00  0.00    +0.074 C 
ATOM     18  C   UNL     1       2.189   6.121  -3.533  0.00  0.00    +0.046 C 
ENDBRANCH   1   3
BRANCH   1  19
ATOM     19  O   UNL     1       3.546   5.418  -7.642  0.00  0.00    -0.451 OA
BRANCH  19  20
ATOM     20  C   UNL     1       3.740   6.525  -8.562  0.00  0.00    +0.328 C 
BRANCH  20  22
ATOM     21  N   UNL     1       4.453   6.846 -10.909  0.00  0.00    -0.306 N 
ATOM     22  C   UNL     1       4.206   5.995  -9.893  0.00  0.00    +0.251 C 
ATOM     23  O   UNL     1       4.360   4.802 -10.051  0.00  0.00    -0.272 OA
ATOM     24  H   UNL     1       4.330   7.800 -10.782  0.00  0.00    +0.149 HD
BRANCH  21  25
ATOM     25  C   UNL     1       4.907   6.331 -12.203  0.00  0.00    +0.100 C 
ATOM     26  C   UNL     1       3.695   5.916 -13.039  0.00  0.00    +0.033 C 
BRANCH  25  30
ATOM     27  C   UNL     1       7.083   9.374 -14.264  0.00  0.00    -0.048 A 
ATOM     28  C   UNL     1       7.519   8.063 -14.307  0.00  0.00    +0.004 A 
ATOM     29  C   UNL     1       6.815   7.078 -13.640  0.00  0.00    +0.006 A 
ATOM     30  C   UNL     1       5.675   7.404 -12.930  0.00  0.00    -0.027 A 
ATOM     31  C   UNL     1       5.236   8.715 -12.891  0.00  0.00    +0.006 A 
ATOM     32  C   UNL     1       5.943   9.700 -13.554  0.00  0.00    +0.004 A 
BRANCH  27  34
ATOM     33  C   UNL     1       7.311  10.583 -16.417  0.00  0.00    +0.009 C 
ATOM     34  C   UNL     1       7.851  10.447 -14.992  0.00  0.00    +0.032 C 
ENDBRANCH  27  34
ENDBRANCH  25  30
ENDBRANCH  21  25
ENDBRANCH  20  22
ENDBRANCH  19  20
ENDBRANCH   1  19
TORSDOF 7
