REMARK  Name = ZINC36185392
REMARK  6 active torsions:
REMARK  status: ('A' for Active; 'I' for Inactive)
REMARK    1  A    between atoms: C_3  and  C_8
REMARK    2  A    between atoms: N_10  and  N_11
REMARK    3  A    between atoms: C_12  and  C_14
REMARK    4  A    between atoms: C_14  and  O_15
REMARK    5  A    between atoms: O_15  and  C_16
REMARK    6  A    between atoms: C_18  and  C_33
REMARK                            x       y       z     vdW  Elec       q    Type
REMARK                         _______ _______ _______ _____ _____    ______ ____
ROOT
ATOM      1  C   UNL     1      10.887   2.048  -0.093  0.00  0.00    +0.184 C 
ATOM      2  C   UNL     1      11.979   1.122   0.534  0.00  0.00    +0.184 C 
ATOM      3  O   UNL     1      13.161   1.241  -0.298  0.00  0.00    -0.340 OA
ATOM      4  C   UNL     1      12.957   2.328  -1.186  0.00  0.00    +0.285 C 
ATOM      5  C   UNL     1      11.416   2.180  -1.485  0.00  0.00    +0.209 C 
ATOM      6  O   UNL     1      11.213   3.108  -2.482  0.00  0.00    -0.338 OA
ATOM      7  C   UNL     1      12.456   3.107  -3.234  0.00  0.00    +0.174 C 
ATOM      8  O   UNL     1      13.432   2.268  -2.533  0.00  0.00    -0.317 OA
ATOM      9  C   UNL     1      13.001   4.529  -3.314  0.00  0.00    +0.065 C 
ATOM     10  C   UNL     1      12.003   5.420  -4.057  0.00  0.00    +0.005 C 
ATOM     11  C   UNL     1      11.775   4.865  -5.465  0.00  0.00    +0.000 C 
ATOM     12  C   UNL     1      11.207   3.447  -5.369  0.00  0.00    +0.005 C 
ATOM     13  C   UNL     1      12.204   2.549  -4.630  0.00  0.00    +0.065 C 
ENDROOT
BRANCH   2  14
ATOM     14  C   UNL     1      12.294   1.578   1.961  0.00  0.00    +0.179 C 
ATOM     15  C   UNL     1      13.317   0.628   2.632  0.00  0.00    +0.197 C 
ATOM     16  O   UNL     1      13.024   0.774   4.037  0.00  0.00    -0.346 OA
ATOM     17  C   UNL     1      11.685   1.273   4.143  0.00  0.00    +0.171 C 
ATOM     18  O   UNL     1      11.140   1.424   2.821  0.00  0.00    -0.340 OA
ATOM     19  C   UNL     1      11.697   2.632   4.845  0.00  0.00    +0.065 C 
ATOM     20  C   UNL     1      12.273   2.472   6.254  0.00  0.00    +0.005 C 
ATOM     21  C   UNL     1      11.411   1.490   7.048  0.00  0.00    +0.000 C 
ATOM     22  C   UNL     1      11.406   0.131   6.346  0.00  0.00    +0.005 C 
ATOM     23  C   UNL     1      10.829   0.286   4.938  0.00  0.00    +0.065 C 
ENDBRANCH   2  14
BRANCH   1  24
ATOM     24  O   UNL     1       9.605   1.417  -0.084  0.00  0.00    -0.362 OA
BRANCH  24  25
ATOM     25  C   UNL     1       8.507   2.332  -0.068  0.00  0.00    +0.257 C 
BRANCH  25  27
ATOM     26  N   UNL     1       6.036   2.221  -0.045  0.00  0.00    -0.232 N 
ATOM     27  C   UNL     1       7.212   1.562  -0.059  0.00  0.00    +0.255 C 
ATOM     28  O   UNL     1       7.227   0.349  -0.066  0.00  0.00    -0.272 OA
ATOM     29  H   UNL     1       6.024   3.191  -0.040  0.00  0.00    +0.173 HD
BRANCH  26  32
ATOM     30  C   UNL     1       3.656   2.164  -0.022  0.00  0.00    +0.260 C 
ATOM     31  O   UNL     1       3.641   3.380  -0.015  0.00  0.00    -0.269 OA
ATOM     32  N   UNL     1       4.832   1.505  -0.036  0.00  0.00    -0.230 N 
ATOM     33  H   UNL     1       4.844   0.535  -0.042  0.00  0.00    +0.173 HD
BRANCH  30  36
ATOM     34  C   UNL     1      -0.017   1.379   0.010  0.00  0.00    +0.004 A 
ATOM     35  C   UNL     1       1.167   2.088   0.002  0.00  0.00    +0.013 A 
ATOM     36  C   UNL     1       2.385   1.409  -0.013  0.00  0.00    +0.041 A 
ATOM     37  C   UNL     1       2.400   0.013  -0.021  0.00  0.00    +0.051 A 
ATOM     38  C   UNL     1       1.208  -0.686  -0.013  0.00  0.00    +0.124 A 
ATOM     39  C   UNL     1       0.002  -0.004   0.002  0.00  0.00    +0.038 A 
ATOM     40  F   UNL     1       1.219  -2.037  -0.021  0.00  0.00    -0.205 F 
ENDBRANCH  30  36
ENDBRANCH  26  32
ENDBRANCH  25  27
ENDBRANCH  24  25
ENDBRANCH   1  24
TORSDOF 6
