REMARK  Name = ZINC35477143
REMARK  6 active torsions:
REMARK  status: ('A' for Active; 'I' for Inactive)
REMARK    1  A    between atoms: C_1  and  C_2
REMARK    2  A    between atoms: C_5  and  C_8
REMARK    3  A    between atoms: C_10  and  C_23
REMARK    4  A    between atoms: C_15  and  N_17
REMARK    5  A    between atoms: N_17  and  S_18
REMARK    6  A    between atoms: S_18  and  C_21
REMARK                            x       y       z     vdW  Elec       q    Type
REMARK                         _______ _______ _______ _____ _____    ______ ____
ROOT
ATOM      1  C   UNL     1       0.060  -4.245  -0.021  0.00  0.00    +0.055 C 
ATOM      2  C   UNL     1       0.071  -4.973   1.293  0.00  0.00    +0.088 C 
ATOM      3  C   UNL     1      -0.699  -6.295   1.200  0.00  0.00    +0.151 C 
ATOM      4  N   UNL     1      -0.351  -6.935  -0.068  0.00  0.00    -0.221 N 
ATOM      5  C   UNL     1      -0.001  -6.223  -1.181  0.00  0.00    +0.228 A 
ATOM      6  N   UNL     1       0.233  -7.082  -2.144  0.00  0.00    -0.293 N 
ATOM      7  C   UNL     1       0.056  -8.326  -1.688  0.00  0.00    +0.255 A 
ATOM      8  N   UNL     1      -0.299  -8.280  -0.420  0.00  0.00    -0.130 NA
ATOM      9  N   UNL     1       0.063  -4.865  -1.170  0.00  0.00    -0.217 NA
ATOM     10  H   UNL     1       0.495  -6.849  -3.049  0.00  0.00    +0.172 HD
ENDROOT
BRANCH   3  11
ATOM     11  C   UNL     1      -2.181  -6.025   1.246  0.00  0.00    +0.031 A 
ATOM     12  C   UNL     1      -2.772  -5.236   0.273  0.00  0.00    +0.130 A 
ATOM     13  C   UNL     1      -4.133  -4.989   0.316  0.00  0.00    +0.039 A 
ATOM     14  C   UNL     1      -4.902  -5.530   1.329  0.00  0.00    +0.004 A 
ATOM     15  C   UNL     1      -4.313  -6.318   2.299  0.00  0.00    +0.020 A 
ATOM     16  C   UNL     1      -2.953  -6.571   2.255  0.00  0.00    +0.049 A 
ATOM     17 CL   UNL     1      -2.215  -7.566   3.471  0.00  0.00    -0.083 Cl
ATOM     18  F   UNL     1      -2.019  -4.707  -0.717  0.00  0.00    -0.205 F 
ENDBRANCH   3  11
BRANCH   1  23
ATOM     19  C   UNL     1      -0.018   1.503   0.010  0.00  0.00    +0.044 C 
ATOM     20  C   UNL     1       0.002  -0.004   0.002  0.00  0.00    -0.050 A 
ATOM     21  C   UNL     1       0.006  -0.686  -1.202  0.00  0.00    +0.004 A 
ATOM     22  C   UNL     1       0.025  -2.064  -1.218  0.00  0.00    +0.010 A 
ATOM     23  C   UNL     1       0.041  -2.774  -0.013  0.00  0.00    -0.004 A 
ATOM     24  C   UNL     1       0.037  -2.078   1.200  0.00  0.00    +0.010 A 
ATOM     25  C   UNL     1       0.023  -0.699   1.199  0.00  0.00    +0.004 A 
ENDBRANCH   1  23
BRANCH   7  26
ATOM     26  N   UNL     1       0.221  -9.492  -2.438  0.00  0.00    -0.063 NA
BRANCH  26  27
ATOM     27  S   UNL     1      -0.034 -10.970  -1.737  0.00  0.00    +0.062 S 
ATOM     28  O   UNL     1       0.962 -11.070  -0.728  0.00  0.00    -0.154 OA
ATOM     29  O   UNL     1      -1.414 -10.977  -1.397  0.00  0.00    -0.154 OA
ATOM     30  C   UNL     1       0.290 -12.174  -3.055  0.00  0.00    +0.220 C 
ENDBRANCH  26  27
ENDBRANCH   7  26
TORSDOF 4
