REMARK  Name = ZINC63731917
REMARK  10 active torsions:
REMARK  status: ('A' for Active; 'I' for Inactive)
REMARK    1  A    between atoms: C_1  and  C_2
REMARK    2  A    between atoms: C_2  and  C_3
REMARK    3  A    between atoms: C_3  and  C_5
REMARK    4  A    between atoms: C_3  and  S_13
REMARK    5  A    between atoms: N_7  and  C_8
REMARK    6  A    between atoms: S_13  and  C_14
REMARK    7  A    between atoms: C_19  and  C_22
REMARK    8  A    between atoms: N_25  and  C_26
REMARK    9  A    between atoms: C_29  and  O_32
REMARK   10  A    between atoms: O_32  and  C_33
REMARK                            x       y       z     vdW  Elec       q    Type
REMARK                         _______ _______ _______ _____ _____    ______ ____
ROOT
ATOM      1  C   UNL     1       2.476   1.937  -1.586  0.00  0.00    +0.260 C 
ATOM      2  N   UNL     1       1.714   2.560  -0.500  0.00  0.00    -0.230 NA
ATOM      3  C   UNL     1       0.433   2.707  -0.602  0.00  0.00    +0.185 C 
ATOM      4  C   UNL     1      -0.290   2.355  -1.872  0.00  0.00    +0.083 C 
ATOM      5  C   UNL     1      -1.578   2.616  -1.631  0.00  0.00    +0.075 C 
ATOM      6  N   UNL     1      -1.679   3.103  -0.376  0.00  0.00    -0.152 NA
ATOM      7  N   UNL     1      -0.538   3.174   0.221  0.00  0.00    -0.129 NA
ATOM      8  C   UNL     1      -2.719   2.404  -2.592  0.00  0.00    +0.068 C 
ATOM      9  C   UNL     1       0.482   1.862  -3.032  0.00  0.00    +0.133 C 
ATOM     10  N   UNL     1      -0.045   1.247  -4.055  0.00  0.00    -0.285 NA
ATOM     11  N   UNL     1       1.853   2.137  -2.897  0.00  0.00    -0.253 N 
ATOM     12  H   UNL     1       0.519   0.948  -4.785  0.00  0.00    +0.188 HD
ENDROOT
BRANCH  11  13
ATOM     13  C   UNL     1       2.604   2.588  -3.989  0.00  0.00    +0.038 A 
ATOM     14  C   UNL     1       1.973   2.885  -5.191  0.00  0.00    +0.027 A 
ATOM     15  C   UNL     1       2.714   3.331  -6.267  0.00  0.00    +0.047 A 
ATOM     16  C   UNL     1       4.088   3.482  -6.149  0.00  0.00    +0.120 A 
ATOM     17  C   UNL     1       4.719   3.185  -4.949  0.00  0.00    +0.047 A 
ATOM     18  C   UNL     1       3.978   2.745  -3.870  0.00  0.00    +0.027 A 
BRANCH  16  19
ATOM     19  O   UNL     1       4.817   3.920  -7.210  0.00  0.00    -0.495 OA
ATOM     20  C   UNL     1       6.227   4.052  -7.017  0.00  0.00    +0.277 C 
ENDBRANCH  16  19
ENDBRANCH  11  13
BRANCH   1  21
ATOM     21  S   UNL     1       2.607   0.157  -1.264  0.00  0.00    -0.102 S 
BRANCH  21  22
ATOM     22  C   UNL     1       3.966  -0.385  -2.336  0.00  0.00    +0.135 C 
BRANCH  22  23
ATOM     23  C   UNL     1       5.270   0.151  -1.804  0.00  0.00    +0.226 C 
ATOM     24  O   UNL     1       5.379   0.422  -0.627  0.00  0.00    -0.275 OA
ATOM     25  N   UNL     1       6.315   0.328  -2.636  0.00  0.00    -0.312 N 
ATOM     26  H   UNL     1       6.228   0.111  -3.578  0.00  0.00    +0.149 HD
BRANCH  25  27
ATOM     27  C   UNL     1       7.583   0.849  -2.119  0.00  0.00    +0.073 C 
ATOM     28  C   UNL     1       7.573   2.392  -2.152  0.00  0.00    +0.022 C 
ATOM     29  C   UNL     1       9.025   2.772  -2.537  0.00  0.00    +0.002 C 
ATOM     30  C   UNL     1       9.402   1.680  -3.569  0.00  0.00    +0.002 C 
ATOM     31  C   UNL     1       8.745   0.397  -3.020  0.00  0.00    +0.022 C 
ENDBRANCH  25  27
ENDBRANCH  22  23
BRANCH  22  33
ATOM     32  C   UNL     1       2.734  -2.455  -3.001  0.00  0.00    +0.005 C 
ATOM     33  C   UNL     1       4.016  -1.914  -2.363  0.00  0.00    +0.020 C 
ENDBRANCH  22  33
ENDBRANCH  21  22
ENDBRANCH   1  21
TORSDOF 7
