REMARK  Name = ZINC39507620
REMARK  7 active torsions:
REMARK  status: ('A' for Active; 'I' for Inactive)
REMARK    1  A    between atoms: C_1  and  C_2
REMARK    2  A    between atoms: C_2  and  O_3
REMARK    3  A    between atoms: O_3  and  N_4
REMARK    4  A    between atoms: C_6  and  C_22
REMARK    5  A    between atoms: C_12  and  C_15
REMARK    6  A    between atoms: C_20  and  O_21
REMARK    7  A    between atoms: C_27  and  O_28
REMARK                            x       y       z     vdW  Elec       q    Type
REMARK                         _______ _______ _______ _____ _____    ______ ____
ROOT
ATOM      1  N   UNL     1       0.772  -1.935   1.251  0.00  0.00    -0.181 NA
ATOM      2  C   UNL     1       0.108  -2.426   2.480  0.00  0.00    +0.123 C 
ATOM      3  C   UNL     1       0.937  -3.662   2.911  0.00  0.00    +0.041 C 
ATOM      4  C   UNL     1       2.379  -3.217   2.547  0.00  0.00    +0.034 C 
ATOM      5  C   UNL     1       2.169  -2.387   1.270  0.00  0.00    +0.048 C 
ATOM      6  C   UNL     1       2.486  -3.230   0.028  0.00  0.00    +0.025 C 
ATOM      7  C   UNL     1       3.638  -2.510  -0.705  0.00  0.00    +0.010 C 
ATOM      8  C   UNL     1       3.528  -1.038  -0.233  0.00  0.00    +0.024 C 
ATOM      9  C   UNL     1       3.126  -1.185   1.257  0.00  0.00    +0.033 C 
ENDROOT
BRANCH   8  10
ATOM     10  C   UNL     1       4.854  -0.335  -0.366  0.00  0.00    -0.003 A 
ATOM     11  C   UNL     1       5.966  -0.825   0.293  0.00  0.00    +0.007 A 
ATOM     12  C   UNL     1       7.183  -0.180   0.172  0.00  0.00    +0.001 A 
ATOM     13  C   UNL     1       7.291   0.956  -0.608  0.00  0.00    +0.004 A 
ATOM     14  C   UNL     1       6.183   1.450  -1.269  0.00  0.00    +0.046 A 
ATOM     15  C   UNL     1       4.962   0.802  -1.153  0.00  0.00    +0.120 A 
BRANCH  15  16
ATOM     16  O   UNL     1       3.871   1.282  -1.807  0.00  0.00    -0.506 OA
ATOM     17  H   UNL     1       3.359   1.925  -1.297  0.00  0.00    +0.292 HD
ENDBRANCH  15  16
ENDBRANCH   8  10
BRANCH   3  18
ATOM     18  C   UNL     1       0.805  -3.910   4.392  0.00  0.00    -0.002 A 
ATOM     19  C   UNL     1       1.168  -2.926   5.292  0.00  0.00    +0.007 A 
ATOM     20  C   UNL     1       1.048  -3.153   6.651  0.00  0.00    +0.001 A 
ATOM     21  C   UNL     1       0.565  -4.364   7.112  0.00  0.00    +0.004 A 
ATOM     22  C   UNL     1       0.201  -5.350   6.216  0.00  0.00    +0.046 A 
ATOM     23  C   UNL     1       0.315  -5.123   4.852  0.00  0.00    +0.120 A 
BRANCH  23  24
ATOM     24  O   UNL     1      -0.047  -6.090   3.968  0.00  0.00    -0.506 OA
ATOM     25  H   UNL     1       0.669  -6.695   3.731  0.00  0.00    +0.292 HD
ENDBRANCH  23  24
ENDBRANCH   3  18
BRANCH   1  26
ATOM     26  O   UNL     1       0.693  -0.477   1.160  0.00  0.00    -0.297 OA
BRANCH  26  28
ATOM     27  C   UNL     1      -0.019   1.526   0.010  0.00  0.00    +0.036 C 
ATOM     28  C   UNL     1       0.002  -0.004   0.002  0.00  0.00    +0.182 C 
ENDBRANCH  26  28
ENDBRANCH   1  26
TORSDOF 6
