REMARK  Name = ZINC17074011
REMARK  5 active torsions:
REMARK  status: ('A' for Active; 'I' for Inactive)
REMARK    1  A    between atoms: C_1  and  C_2
REMARK    2  A    between atoms: C_4  and  N_9
REMARK    3  A    between atoms: C_7  and  O_8
REMARK    4  A    between atoms: C_18  and  S_19
REMARK    5  A    between atoms: C_21  and  C_25
REMARK                            x       y       z     vdW  Elec       q    Type
REMARK                         _______ _______ _______ _____ _____    ______ ____
ROOT
ATOM      1  N   UNL     1       0.056  -4.062  -1.905  0.00  0.00    -0.256 N 
ATOM      2  C   UNL     1      -0.364  -2.801  -1.647  0.00  0.00    +0.268 A 
ATOM      3  O   UNL     1      -1.423  -2.573  -1.087  0.00  0.00    -0.267 OA
ATOM      4  C   UNL     1       0.512  -1.750  -2.074  0.00  0.00    +0.076 A 
ATOM      5  C   UNL     1       0.295  -0.322  -1.918  0.00  0.00    -0.023 A 
ATOM      6  C   UNL     1       1.261   0.495  -2.397  0.00  0.00    -0.004 A 
ATOM      7  S   UNL     1       2.493  -0.589  -3.075  0.00  0.00    -0.073 S 
ATOM      8  C   UNL     1       1.713  -2.131  -2.715  0.00  0.00    +0.117 A 
ATOM      9  N   UNL     1       2.068  -3.390  -2.938  0.00  0.00    -0.216 NA
ATOM     10  C   UNL     1       1.235  -4.338  -2.531  0.00  0.00    +0.174 A 
ATOM     11  C   UNL     1       1.284   1.992  -2.362  0.00  0.00    +0.046 C 
ATOM     12  C   UNL     1       0.218   2.471  -1.367  0.00  0.00    -0.009 C 
ATOM     13  C   UNL     1      -1.089   1.727  -1.653  0.00  0.00    +0.008 C 
ATOM     14  C   UNL     1      -0.949   0.259  -1.250  0.00  0.00    +0.037 C 
ATOM     15  C   UNL     1      -0.001   3.976  -1.535  0.00  0.00    +0.008 C 
ENDROOT
BRANCH   1  19
ATOM     16  C   UNL     1      -1.246  -7.356   1.508  0.00  0.00    +0.047 C 
ATOM     17  C   UNL     1      -1.411  -6.747   0.139  0.00  0.00    -0.007 A 
ATOM     18  C   UNL     1      -0.608  -5.693  -0.249  0.00  0.00    +0.033 A 
ATOM     19  C   UNL     1      -0.759  -5.133  -1.510  0.00  0.00    +0.052 A 
ATOM     20  C   UNL     1      -1.722  -5.630  -2.379  0.00  0.00    +0.030 A 
ATOM     21  C   UNL     1      -2.521  -6.687  -1.992  0.00  0.00    +0.048 A 
ATOM     22  C   UNL     1      -2.368  -7.247  -0.731  0.00  0.00    +0.120 A 
BRANCH  22  23
ATOM     23  O   UNL     1      -3.158  -8.285  -0.349  0.00  0.00    -0.507 OA
ATOM     24  H   UNL     1      -3.979  -8.016   0.086  0.00  0.00    +0.292 HD
ENDBRANCH  22  23
ENDBRANCH   1  19
BRANCH  10  25
ATOM     25  S   UNL     1       1.671  -6.023  -2.809  0.00  0.00    -0.105 S 
ATOM     26  H   UNL     1       2.913  -5.851  -3.454  0.00  0.00    +0.110 HD
ENDBRANCH  10  25
TORSDOF 3
