REMARK  Name = ZINC39593002
REMARK  3 active torsions:
REMARK  status: ('A' for Active; 'I' for Inactive)
REMARK    1  A    between atoms: C_6  and  C_7
REMARK    2  A    between atoms: C_9  and  C_13
REMARK    3  A    between atoms: C_19  and  C_22
REMARK                            x       y       z     vdW  Elec       q    Type
REMARK                         _______ _______ _______ _____ _____    ______ ____
ROOT
ATOM      1  C   UNL     1      -3.256  -3.130   1.260  0.00  0.00    +0.181 A 
ATOM      2  N   UNL     1      -3.355  -2.637   2.459  0.00  0.00    -0.129 NA
ATOM      3  N   UNL     1      -3.705  -3.557   3.288  0.00  0.00    -0.121 NA
ATOM      4  C   UNL     1      -3.829  -4.682   2.656  0.00  0.00    +0.211 A 
ATOM      5  N   UNL     1      -3.587  -4.472   1.322  0.00  0.00    -0.222 N 
ATOM      6  N   UNL     1      -3.729  -5.510   0.449  0.00  0.00    -0.260 N 
ATOM      7  C   UNL     1      -3.647  -6.862   1.063  0.00  0.00    +0.218 C 
ATOM      8  S   UNL     1      -4.186  -6.423   2.770  0.00  0.00    -0.053 S 
ATOM      9  H   UNL     1      -4.572  -5.411  -0.096  0.00  0.00    +0.168 HD
ENDROOT
BRANCH   7  10
ATOM     10  C   UNL     1      -4.598  -7.828   0.405  0.00  0.00    +0.138 A 
ATOM     11  C   UNL     1      -4.416  -9.156   0.291  0.00  0.00    +0.049 A 
ATOM     12  C   UNL     1      -5.545  -9.667  -0.390  0.00  0.00    +0.057 A 
ATOM     13  C   UNL     1      -6.350  -8.620  -0.651  0.00  0.00    +0.170 A 
ATOM     14  O   UNL     1      -5.773  -7.510  -0.163  0.00  0.00    -0.450 OA
ATOM     15 BR   UNL     1      -8.013  -8.700  -1.548  0.00  0.00    -0.008 Br
ENDBRANCH   7  10
BRANCH   1  18
ATOM     16  C   UNL     1      -1.271  -0.766   0.011  0.00  0.00    +0.091 C 
ATOM     17  C   UNL     1      -1.363  -2.110   0.010  0.00  0.00    +0.039 C 
ATOM     18  C   UNL     1      -2.858  -2.372   0.020  0.00  0.00    +0.222 C 
ATOM     19  N   UNL     1      -3.437  -1.018   0.026  0.00  0.00    -0.171 NA
ATOM     20  N   UNL     1      -2.509  -0.206   0.026  0.00  0.00    -0.153 NA
BRANCH  16  26
ATOM     21  C   UNL     1      -0.017   1.389   0.010  0.00  0.00    +0.011 A 
ATOM     22  C   UNL     1       1.170   2.093   0.002  0.00  0.00    +0.020 A 
ATOM     23  C   UNL     1       2.378   1.417  -0.013  0.00  0.00    +0.041 A 
ATOM     24  C   UNL     1       2.402   0.033  -0.021  0.00  0.00    +0.020 A 
ATOM     25  C   UNL     1       1.221  -0.680  -0.014  0.00  0.00    +0.011 A 
ATOM     26  C   UNL     1       0.002  -0.004   0.002  0.00  0.00    +0.002 A 
ATOM     27 CL   UNL     1       3.868   2.309  -0.022  0.00  0.00    -0.084 Cl
ENDBRANCH  16  26
ENDBRANCH   1  18
TORSDOF 3
