REMARK  Name = ZINC20876955
REMARK  10 active torsions:
REMARK  status: ('A' for Active; 'I' for Inactive)
REMARK    1  A    between atoms: C_1  and  O_2
REMARK    2  A    between atoms: O_2  and  C_3
REMARK    3  A    between atoms: C_5  and  C_24
REMARK    4  A    between atoms: C_8  and  O_9
REMARK    5  A    between atoms: O_9  and  C_10
REMARK    6  A    between atoms: C_10  and  C_11
REMARK    7  A    between atoms: C_11  and  C_13
REMARK    8  A    between atoms: C_11  and  O_22
REMARK    9  A    between atoms: C_24  and  N_25
REMARK   10  A    between atoms: N_25  and  C_26
REMARK                            x       y       z     vdW  Elec       q    Type
REMARK                         _______ _______ _______ _____ _____    ______ ____
ROOT
ATOM      1  C   UNL     1       0.807   1.987   2.993  0.00  0.00    +0.163 A 
ATOM      2  C   UNL     1       1.347   1.611   4.212  0.00  0.00    +0.051 A 
ATOM      3  C   UNL     1       0.937   0.438   4.818  0.00  0.00    -0.060 A 
ATOM      4  C   UNL     1      -0.012  -0.362   4.211  0.00  0.00    +0.021 A 
ATOM      5  C   UNL     1      -0.559   0.009   2.996  0.00  0.00    +0.063 A 
ATOM      6  C   UNL     1      -0.148   1.182   2.381  0.00  0.00    +0.176 A 
ATOM      7 BR   UNL     1      -1.863  -1.084   2.172  0.00  0.00    -0.046 Br
ENDROOT
BRANCH   1   9
ATOM      8  C   UNL     1       2.192   3.918   3.083  0.00  0.00    +0.277 C 
ATOM      9  O   UNL     1       1.209   3.141   2.396  0.00  0.00    -0.491 OA
ENDBRANCH   1   9
BRANCH   6  10
ATOM     10  O   UNL     1      -0.682   1.547   1.184  0.00  0.00    -0.484 OA
BRANCH  10  11
ATOM     11  C   UNL     1      -0.013   1.086   0.008  0.00  0.00    +0.265 C 
BRANCH  11  12
ATOM     12  C   UNL     1      -0.753   1.593  -1.232  0.00  0.00    +0.182 C 
BRANCH  12  13
ATOM     13  C   UNL     1      -0.121   1.007  -2.468  0.00  0.00    -0.012 A 
ATOM     14  C   UNL     1       1.040   1.559  -2.977  0.00  0.00    +0.010 A 
ATOM     15  C   UNL     1       1.623   1.025  -4.111  0.00  0.00    +0.050 A 
ATOM     16  C   UNL     1       1.045  -0.065  -4.740  0.00  0.00    +0.166 A 
ATOM     17  C   UNL     1      -0.124  -0.621  -4.228  0.00  0.00    +0.167 A 
ATOM     18  C   UNL     1      -0.701  -0.084  -3.088  0.00  0.00    +0.055 A 
ATOM     19  O   UNL     1      -0.490  -1.673  -5.017  0.00  0.00    -0.453 OA
ATOM     20  C   UNL     1       0.685  -2.009  -5.778  0.00  0.00    +0.466 C 
ATOM     21  O   UNL     1       1.412  -0.768  -5.851  0.00  0.00    -0.453 OA
ENDBRANCH  12  13
BRANCH  12  22
ATOM     22  O   UNL     1      -0.672   3.018  -1.285  0.00  0.00    -0.384 OA
ATOM     23  H   UNL     1      -1.148   3.566  -2.111  0.00  0.00    +0.210 HD
ENDBRANCH  12  22
ENDBRANCH  11  12
ENDBRANCH  10  11
ENDBRANCH   6  10
BRANCH   3  24
ATOM     24  C   UNL     1       1.526   0.032   6.145  0.00  0.00    -0.046 C 
BRANCH  24  25
ATOM     25  N   UNL     1       0.713   0.590   7.233  0.00  0.00    +0.384 N 
ATOM     26  H   UNL     1       0.703   1.688   7.157  0.00  0.00    -0.085 HD
ATOM     27  H   UNL     1      -0.316   0.208   7.156  0.00  0.00    -0.085 HD
BRANCH  25  28
ATOM     28  C   UNL     1       1.258   0.214   8.544  0.00  0.00    -0.071 C 
ATOM     29  C   UNL     1       0.725  -1.164   8.942  0.00  0.00    -0.016 C 
ATOM     30  C   UNL     1       1.292  -1.556  10.307  0.00  0.00    -0.002 C 
ATOM     31  C   UNL     1       0.866  -0.524  11.352  0.00  0.00    -0.000 C 
ATOM     32  C   UNL     1       1.399   0.854  10.955  0.00  0.00    -0.002 C 
ATOM     33  C   UNL     1       0.832   1.246   9.590  0.00  0.00    -0.016 C 
ENDBRANCH  25  28
ENDBRANCH  24  25
ENDBRANCH   3  24
TORSDOF 9
