REMARK  Name = ZINC13960876
REMARK  11 active torsions:
REMARK  status: ('A' for Active; 'I' for Inactive)
REMARK    1  A    between atoms: C_1  and  C_2
REMARK    2  A    between atoms: C_2  and  N_3
REMARK    3  A    between atoms: C_5  and  C_8
REMARK    4  A    between atoms: C_10  and  C_30
REMARK    5  A    between atoms: C_15  and  C_28
REMARK    6  A    between atoms: C_15  and  O_29
REMARK    7  A    between atoms: C_16  and  C_18
REMARK    8  A    between atoms: N_20  and  C_21
REMARK    9  A    between atoms: C_26  and  C_27
REMARK   10  A    between atoms: N_32  and  C_33
REMARK   11  A    between atoms: C_38  and  C_39
REMARK                            x       y       z     vdW  Elec       q    Type
REMARK                         _______ _______ _______ _____ _____    ______ ____
ROOT
ATOM      1  C   UNL     1      -2.145   0.034   1.550  0.00  0.00    +0.056 C 
ATOM      2  C   UNL     1      -1.576  -0.425   2.897  0.00  0.00    +0.149 C 
ATOM      3  C   UNL     1      -0.107  -0.065   2.945  0.00  0.00    +0.148 C 
ATOM      4  O   UNL     1       0.350   0.544   3.882  0.00  0.00    -0.296 OA
ATOM      5  C   UNL     1       0.773  -0.488   1.790  0.00  0.00    +0.110 C 
ATOM      6  C   UNL     1       0.119  -0.026   0.484  0.00  0.00    +0.082 C 
ATOM      7  C   UNL     1      -1.312  -0.563   0.415  0.00  0.00    +0.116 C 
ATOM      8  C   UNL     1       0.092   1.503   0.439  0.00  0.00    +0.042 C 
ENDROOT
BRANCH   1  11
ATOM      9  N   UNL     1      -5.744  -0.435   1.192  0.00  0.00    -0.271 N 
ATOM     10  C   UNL     1      -4.658   0.363   1.264  0.00  0.00    +0.112 A 
ATOM     11  C   UNL     1      -3.573  -0.431   1.424  0.00  0.00    -0.005 A 
ATOM     12  C   UNL     1      -4.011  -1.759   1.445  0.00  0.00    +0.138 A 
ATOM     13  N   UNL     1      -5.313  -1.762   1.312  0.00  0.00    -0.179 NA
BRANCH   9  15
ATOM     14  C   UNL     1      -7.741  -0.688  -0.196  0.00  0.00    +0.029 C 
ATOM     15  C   UNL     1      -7.129   0.009   1.020  0.00  0.00    +0.140 C 
ENDBRANCH   9  15
ENDBRANCH   1  11
BRANCH   7  16
ATOM     16  C   UNL     1      -1.925  -0.187  -0.909  0.00  0.00    +0.224 C 
ATOM     17  O   UNL     1      -2.926   0.498  -0.941  0.00  0.00    -0.275 OA
ATOM     18  N   UNL     1      -1.362  -0.611  -2.057  0.00  0.00    -0.285 N 
ATOM     19  H   UNL     1      -0.519  -1.090  -2.036  0.00  0.00    +0.155 HD
BRANCH  18  20
ATOM     20  C   UNL     1      -1.993  -0.360  -3.280  0.00  0.00    +0.036 A 
ATOM     21  C   UNL     1      -3.367  -0.162  -3.327  0.00  0.00    +0.023 A 
ATOM     22  C   UNL     1      -3.986   0.091  -4.535  0.00  0.00    +0.002 A 
ATOM     23  C   UNL     1      -3.241   0.137  -5.699  0.00  0.00    +0.000 A 
ATOM     24  C   UNL     1      -1.874  -0.065  -5.657  0.00  0.00    +0.005 A 
ATOM     25  C   UNL     1      -1.248  -0.313  -4.451  0.00  0.00    -0.029 A 
ATOM     26  C   UNL     1       0.242  -0.533  -4.406  0.00  0.00    +0.045 C 
ENDBRANCH  18  20
ENDBRANCH   7  16
BRANCH   2  27
ATOM     27  C   UNL     1      -2.305   0.270   4.018  0.00  0.00    +0.228 C 
ATOM     28  O   UNL     1      -3.205   1.043   3.768  0.00  0.00    -0.275 OA
ATOM     29  N   UNL     1      -1.956   0.032   5.298  0.00  0.00    -0.285 N 
ATOM     30  H   UNL     1      -1.192  -0.533   5.495  0.00  0.00    +0.155 HD
BRANCH  29  31
ATOM     31  C   UNL     1      -2.695   0.600   6.341  0.00  0.00    +0.036 A 
ATOM     32  C   UNL     1      -3.249   1.865   6.194  0.00  0.00    +0.023 A 
ATOM     33  C   UNL     1      -3.978   2.422   7.226  0.00  0.00    +0.002 A 
ATOM     34  C   UNL     1      -4.157   1.722   8.405  0.00  0.00    +0.000 A 
ATOM     35  C   UNL     1      -3.607   0.462   8.555  0.00  0.00    +0.005 A 
ATOM     36  C   UNL     1      -2.882  -0.103   7.524  0.00  0.00    -0.029 A 
ATOM     37  C   UNL     1      -2.288  -1.479   7.686  0.00  0.00    +0.045 C 
ENDBRANCH  29  31
ENDBRANCH   2  27
BRANCH   6  38
ATOM     38  O   UNL     1       0.868  -0.523  -0.626  0.00  0.00    -0.388 OA
ATOM     39  H   UNL     1       1.787  -0.222  -0.646  0.00  0.00    +0.210 HD
ENDBRANCH   6  38
TORSDOF 7
