REMARK  Name = ZINC07726532
REMARK  3 active torsions:
REMARK  status: ('A' for Active; 'I' for Inactive)
REMARK    1  A    between atoms: C_4  and  S_8
REMARK    2  A    between atoms: S_8  and  N_11
REMARK    3  A    between atoms: N_11  and  C_12
REMARK                            x       y       z     vdW  Elec       q    Type
REMARK                         _______ _______ _______ _____ _____    ______ ____
ROOT
ATOM      1  N   UNL     1       2.826   0.366   1.411  0.00  0.00    -0.216 N 
ATOM      2  H   UNL     1       3.516   0.598   2.052  0.00  0.00    +0.174 HD
ENDROOT
BRANCH   1   3
ATOM      3  C   UNL     1       1.928  -0.669   1.693  0.00  0.00    +0.052 A 
ATOM      4  C   UNL     1       1.626  -1.611   0.718  0.00  0.00    +0.028 A 
ATOM      5  C   UNL     1       0.740  -2.634   0.995  0.00  0.00    +0.051 A 
ATOM      6  C   UNL     1       0.150  -2.723   2.246  0.00  0.00    +0.173 A 
ATOM      7  C   UNL     1       0.451  -1.780   3.225  0.00  0.00    +0.174 A 
ATOM      8  C   UNL     1       1.343  -0.757   2.948  0.00  0.00    +0.074 A 
ATOM      9  O   UNL     1      -0.251  -2.086   4.356  0.00  0.00    -0.395 OA
ATOM     10  C   UNL     1      -0.668  -3.454   4.192  0.00  0.00    +0.589 C 
ATOM     11  O   UNL     1      -0.741  -3.620   2.763  0.00  0.00    -0.395 OA
ATOM     12  F   UNL     1       0.279  -4.325   4.740  0.00  0.00    -0.125 F 
ATOM     13  F   UNL     1      -1.922  -3.659   4.778  0.00  0.00    -0.125 F 
ENDBRANCH   1   3
BRANCH   1  14
ATOM     14  S   UNL     1       2.711   1.197  -0.017  0.00  0.00    +0.075 S 
ATOM     15  O   UNL     1       2.619   0.222  -1.047  0.00  0.00    -0.150 OA
ATOM     16  O   UNL     1       3.730   2.187   0.005  0.00  0.00    -0.150 OA
BRANCH  14  20
ATOM     17  C   UNL     1      -1.242   3.405   0.031  0.00  0.00    +0.003 A 
ATOM     18  C   UNL     1      -0.054   4.112   0.023  0.00  0.00    +0.002 A 
ATOM     19  C   UNL     1       1.153   3.438   0.009  0.00  0.00    +0.032 A 
ATOM     20  C   UNL     1       1.173   2.056   0.002  0.00  0.00    +0.143 A 
ATOM     21  C   UNL     1      -0.016   1.347   0.009  0.00  0.00    +0.150 A 
ATOM     22  C   UNL     1      -1.224   2.023   0.019  0.00  0.00    +0.040 A 
ATOM     23  F   UNL     1       0.002  -0.004   0.002  0.00  0.00    -0.203 F 
ENDBRANCH  14  20
ENDBRANCH   1  14
TORSDOF 3
