REMARK  Name = ZINC12619723
REMARK  10 active torsions:
REMARK  status: ('A' for Active; 'I' for Inactive)
REMARK    1  A    between atoms: C_1  and  O_2
REMARK    2  A    between atoms: O_2  and  C_3
REMARK    3  A    between atoms: C_5  and  C_13
REMARK    4  A    between atoms: C_7  and  O_11
REMARK    5  A    between atoms: C_8  and  O_9
REMARK    6  A    between atoms: O_9  and  C_10
REMARK    7  A    between atoms: O_11  and  C_12
REMARK    8  A    between atoms: C_13  and  C_15
REMARK    9  A    between atoms: C_15  and  C_27
REMARK   10  A    between atoms: C_16  and  C_17
REMARK                            x       y       z     vdW  Elec       q    Type
REMARK                         _______ _______ _______ _____ _____    ______ ____
ROOT
ATOM      1  C   UNL     1       2.542   4.340   0.332  0.00  0.00    +0.065 C 
ATOM      2  C   UNL     1       2.504   5.706   0.125  0.00  0.00    +0.025 C 
ENDROOT
BRANCH   1   3
ATOM      3  C   UNL     1       3.822   3.616   0.244  0.00  0.00    +0.143 A 
ATOM      4  N   UNL     1       3.994   2.281   0.500  0.00  0.00    -0.338 N 
ATOM      5  H   UNL     1       3.283   1.633   0.776  0.00  0.00    +0.167 HD
ATOM      6  C   UNL     1       5.335   1.996   0.307  0.00  0.00    +0.070 A 
ATOM      7  C   UNL     1       6.096   0.841   0.412  0.00  0.00    +0.077 A 
ATOM      8  C   UNL     1       7.453   0.879   0.146  0.00  0.00    +0.164 A 
ATOM      9  C   UNL     1       8.061   2.077  -0.233  0.00  0.00    +0.164 A 
ATOM     10  C   UNL     1       7.314   3.233  -0.341  0.00  0.00    +0.079 A 
ATOM     11  C   UNL     1       5.942   3.206  -0.072  0.00  0.00    +0.093 A 
ATOM     12  N   UNL     1       4.971   4.153  -0.097  0.00  0.00    -0.227 NA
ATOM     13  O   UNL     1       9.396   2.123  -0.504  0.00  0.00    -0.485 OA
ATOM     14  C   UNL     1      10.188   1.032  -0.022  0.00  0.00    +0.270 C 
ATOM     15  C   UNL     1       9.467  -0.277  -0.370  0.00  0.00    +0.270 C 
ATOM     16  O   UNL     1       8.184  -0.264   0.264  0.00  0.00    -0.485 OA
ENDBRANCH   1   3
BRANCH   2  17
ATOM     17  C   UNL     1       1.335   6.437   0.440  0.00  0.00    +0.001 A 
ATOM     18  C   UNL     1       0.298   6.031   1.257  0.00  0.00    +0.091 A 
ATOM     19  N   UNL     1      -0.641   7.005   1.312  0.00  0.00    -0.360 N 
ATOM     20  H   UNL     1      -1.463   6.950   1.824  0.00  0.00    +0.165 HD
ATOM     21  C   UNL     1      -0.265   8.086   0.541  0.00  0.00    +0.047 A 
ATOM     22  C   UNL     1       0.981   7.790  -0.034  0.00  0.00    +0.007 A 
ATOM     23  C   UNL     1       1.605   8.715  -0.865  0.00  0.00    +0.010 A 
ATOM     24  C   UNL     1       0.996   9.926  -1.118  0.00  0.00    +0.001 A 
ATOM     25  C   UNL     1      -0.234  10.222  -0.549  0.00  0.00    +0.002 A 
ATOM     26  C   UNL     1      -0.866   9.311   0.270  0.00  0.00    +0.026 A 
ENDBRANCH   2  17
BRANCH   1  27
ATOM     27  C   UNL     1       1.308   3.610   0.639  0.00  0.00    +0.197 C 
ATOM     28  O   UNL     1       0.456   3.465  -0.219  0.00  0.00    -0.287 OA
BRANCH  27  31
ATOM     29  C   UNL     1      -0.195   1.702   3.507  0.00  0.00    +0.166 A 
ATOM     30  C   UNL     1       0.000   2.223   2.242  0.00  0.00    +0.061 A 
ATOM     31  C   UNL     1       1.097   3.051   1.990  0.00  0.00    +0.030 A 
ATOM     32  C   UNL     1       1.995   3.350   3.019  0.00  0.00    +0.061 A 
ATOM     33  C   UNL     1       1.795   2.826   4.282  0.00  0.00    +0.166 A 
ATOM     34  C   UNL     1       0.701   2.001   4.530  0.00  0.00    +0.204 A 
BRANCH  29  36
ATOM     35  C   UNL     1      -2.140   0.630   2.657  0.00  0.00    +0.277 C 
ATOM     36  O   UNL     1      -1.262   0.896   3.752  0.00  0.00    -0.491 OA
ENDBRANCH  29  36
BRANCH  34  37
ATOM     37  O   UNL     1       0.507   1.487   5.773  0.00  0.00    -0.488 OA
ATOM     38  C   UNL     1       1.112   0.223   6.054  0.00  0.00    +0.277 C 
ENDBRANCH  34  37
BRANCH  33  39
ATOM     39  O   UNL     1       2.668   3.117   5.284  0.00  0.00    -0.491 OA
ATOM     40  C   UNL     1       3.838   3.857   4.930  0.00  0.00    +0.277 C 
ENDBRANCH  33  39
ENDBRANCH  27  31
ENDBRANCH   1  27
TORSDOF 7
