REMARK  Name = ZINC39630539
REMARK  10 active torsions:
REMARK  status: ('A' for Active; 'I' for Inactive)
REMARK    1  A    between atoms: C_1  and  C_2
REMARK    2  A    between atoms: C_2  and  C_3
REMARK    3  A    between atoms: C_2  and  C_4
REMARK    4  A    between atoms: C_2  and  C_29
REMARK    5  A    between atoms: C_4  and  N_5
REMARK    6  A    between atoms: C_6  and  C_8
REMARK    7  A    between atoms: C_19  and  C_21
REMARK    8  A    between atoms: C_29  and  N_30
REMARK    9  A    between atoms: N_30  and  C_31
REMARK   10  A    between atoms: N_30  and  C_32
REMARK                            x       y       z     vdW  Elec       q    Type
REMARK                         _______ _______ _______ _____ _____    ______ ____
ROOT
ATOM      1  C   UNL     1      -5.497   0.298   2.153  0.00  0.00    +0.100 C 
ATOM      2  C   UNL     1      -5.184  -0.147   3.599  0.00  0.00    +0.121 C 
ATOM      3  N   UNL     1      -6.508  -0.436   4.197  0.00  0.00    -0.296 N 
ATOM      4  C   UNL     1      -7.268  -1.097   3.109  0.00  0.00    +0.115 C 
ATOM      5  C   UNL     1      -6.865  -0.328   1.835  0.00  0.00    -0.004 C 
ATOM      6  C   UNL     1      -6.745  -1.288   0.655  0.00  0.00    -0.010 C 
ATOM      7  C   UNL     1      -8.128  -1.853   0.320  0.00  0.00    -0.082 C 
ATOM      8  N   UNL     1      -9.042  -0.753  -0.010  0.00  0.00    +0.379 N 
ATOM      9  C   UNL     1      -9.224   0.114   1.161  0.00  0.00    -0.082 C 
ATOM     10  C   UNL     1      -7.888   0.763   1.531  0.00  0.00    -0.010 C 
ATOM     11  C   UNL     1      -6.928  -0.161   5.448  0.00  0.00    +0.248 C 
ATOM     12  O   UNL     1      -6.215   0.472   6.203  0.00  0.00    -0.270 OA
ATOM     13  H   UNL     1      -8.656  -0.213  -0.770  0.00  0.00    -0.086 HD
ATOM     14  H   UNL     1      -9.935  -1.131  -0.289  0.00  0.00    -0.086 HD
ENDROOT
BRANCH  11  15
ATOM     15  C   UNL     1      -8.254  -0.628   5.902  0.00  0.00    +0.055 A 
ATOM     16  C   UNL     1      -8.752  -1.857   5.465  0.00  0.00    +0.016 A 
ATOM     17  C   UNL     1      -9.990  -2.288   5.891  0.00  0.00    +0.021 A 
ATOM     18  C   UNL     1     -10.741  -1.504   6.752  0.00  0.00    +0.042 A 
ATOM     19  C   UNL     1     -10.254  -0.284   7.190  0.00  0.00    +0.040 A 
ATOM     20  C   UNL     1      -9.012   0.156   6.775  0.00  0.00    +0.054 A 
ATOM     21 CL   UNL     1      -8.400   1.682   7.330  0.00  0.00    -0.083 Cl
ATOM     22 CL   UNL     1     -12.299  -2.054   7.284  0.00  0.00    -0.083 Cl
ENDBRANCH  11  15
BRANCH   1  24
ATOM     23  N   UNL     1      -4.271   0.368   0.006  0.00  0.00    -0.315 N 
ATOM     24  C   UNL     1      -4.448  -0.222   1.205  0.00  0.00    +0.218 C 
ATOM     25  O   UNL     1      -3.763  -1.172   1.520  0.00  0.00    -0.275 OA
ATOM     26  H   UNL     1      -4.818   1.128  -0.246  0.00  0.00    +0.149 HD
BRANCH  23  27
ATOM     27  C   UNL     1      -3.251  -0.138  -0.916  0.00  0.00    +0.108 C 
BRANCH  27  29
ATOM     28  C   UNL     1      -4.632   0.615  -2.857  0.00  0.00    +0.010 C 
ATOM     29  C   UNL     1      -3.256   0.703  -2.194  0.00  0.00    -0.034 C 
ATOM     30  C   UNL     1      -2.951   2.161  -1.846  0.00  0.00    +0.010 C 
BRANCH  29  31
ATOM     31  C   UNL     1      -2.191   0.174  -3.157  0.00  0.00    -0.072 C 
BRANCH  31  32
ATOM     32  N   UNL     1      -2.181   0.996  -4.374  0.00  0.00    +0.376 N 
ATOM     33  C   UNL     1      -1.311   2.162  -4.171  0.00  0.00    -0.097 C 
ATOM     34  C   UNL     1      -1.675   0.198  -5.499  0.00  0.00    -0.097 C 
ATOM     35  H   UNL     1      -3.119   1.308  -4.578  0.00  0.00    -0.083 HD
ENDBRANCH  31  32
ENDBRANCH  29  31
ENDBRANCH  27  29
ENDBRANCH  23  27
ENDBRANCH   1  24
TORSDOF 6
