REMARK  Name = ZINC19221784
REMARK  6 active torsions:
REMARK  status: ('A' for Active; 'I' for Inactive)
REMARK    1  A    between atoms: C_1  and  C_2
REMARK    2  A    between atoms: C_7  and  C_12
REMARK    3  A    between atoms: N_14  and  C_15
REMARK    4  A    between atoms: C_15  and  C_17
REMARK    5  A    between atoms: C_15  and  C_18
REMARK    6  A    between atoms: C_25  and  C_27
REMARK                            x       y       z     vdW  Elec       q    Type
REMARK                         _______ _______ _______ _____ _____    ______ ____
ROOT
ATOM      1  C   UNL     1       0.114  -6.826   4.430  0.00  0.00    +0.117 C 
ATOM      2  C   UNL     1      -1.315  -7.350   4.583  0.00  0.00    +0.034 C 
ENDROOT
BRANCH   1   3
ATOM      3  C   UNL     1       0.718  -6.609   5.794  0.00  0.00    +0.043 A 
ATOM      4  C   UNL     1       1.778  -7.351   6.191  0.00  0.00    +0.095 A 
ATOM      5  C   UNL     1       2.340  -7.144   7.466  0.00  0.00    +0.275 A 
ATOM      6  N   UNL     1       1.819  -6.210   8.285  0.00  0.00    -0.180 N 
ATOM      7  C   UNL     1       0.749  -5.466   7.879  0.00  0.00    +0.138 A 
ATOM      8  N   UNL     1       0.200  -5.663   6.626  0.00  0.00    -0.342 N 
ATOM      9  C   UNL     1       0.437  -4.612   8.895  0.00  0.00    +0.071 A 
ATOM     10  C   UNL     1       1.335  -4.843   9.938  0.00  0.00    +0.069 A 
ATOM     11  N   UNL     1       2.159  -5.794   9.579  0.00  0.00    -0.167 NA
ATOM     12  O   UNL     1       3.294  -7.810   7.828  0.00  0.00    -0.266 OA
ATOM     13  H   UNL     1      -0.558  -5.130   6.340  0.00  0.00    +0.167 HD
BRANCH  10  14
ATOM     14  C   UNL     1       1.352  -4.117  11.259  0.00  0.00    +0.044 C 
ATOM     15  C   UNL     1      -0.083  -3.778  11.676  0.00  0.00    +0.038 C 
ATOM     16  C   UNL     1      -0.050  -2.973  12.978  0.00  0.00    +0.160 C 
ATOM     17  O   UNL     1       0.735  -1.794  12.788  0.00  0.00    -0.380 OA
ATOM     18  C   UNL     1       2.098  -2.051  12.443  0.00  0.00    +0.160 C 
ATOM     19  C   UNL     1       2.152  -2.819  11.120  0.00  0.00    +0.038 C 
ENDBRANCH  10  14
ENDBRANCH   1   3
BRANCH   1  22
ATOM     20  C   UNL     1       0.088  -5.558   2.350  0.00  0.00    +0.261 C 
ATOM     21  O   UNL     1       0.100  -6.611   1.742  0.00  0.00    -0.269 OA
ATOM     22  N   UNL     1       0.094  -5.558   3.698  0.00  0.00    -0.302 N 
ATOM     23  H   UNL     1       0.085  -4.718   4.183  0.00  0.00    +0.150 HD
BRANCH  20  30
ATOM     24  C   UNL     1      -0.018   1.503   0.010  0.00  0.00    +0.044 C 
ATOM     25  C   UNL     1       0.002  -0.004   0.002  0.00  0.00    -0.048 A 
ATOM     26  C   UNL     1       0.006  -0.685  -1.209  0.00  0.00    +0.004 A 
ATOM     27  C   UNL     1       0.024  -2.049  -1.239  0.00  0.00    +0.010 A 
ATOM     28  C   UNL     1       0.040  -2.772  -0.039  0.00  0.00    +0.000 A 
ATOM     29  C   UNL     1       0.060  -4.156   0.263  0.00  0.00    +0.040 A 
ATOM     30  C   UNL     1       0.068  -4.284   1.615  0.00  0.00    +0.103 A 
ATOM     31  N   UNL     1       0.053  -3.028   2.189  0.00  0.00    -0.351 N 
ATOM     32  H   UNL     1       0.056  -2.842   3.142  0.00  0.00    +0.166 HD
ATOM     33  C   UNL     1       0.036  -2.084   1.190  0.00  0.00    +0.047 A 
ATOM     34  C   UNL     1       0.023  -0.692   1.194  0.00  0.00    +0.029 A 
ENDBRANCH  20  30
ENDBRANCH   1  22
TORSDOF 4
