REMARK  Name = ZINC11881129
REMARK  9 active torsions:
REMARK  status: ('A' for Active; 'I' for Inactive)
REMARK    1  A    between atoms: C_1  and  C_2
REMARK    2  A    between atoms: C_3  and  C_31
REMARK    3  A    between atoms: C_4  and  O_29
REMARK    4  A    between atoms: C_7  and  C_8
REMARK    5  A    between atoms: C_8  and  N_66
REMARK    6  A    between atoms: C_14  and  C_17
REMARK    7  A    between atoms: C_17  and  N_18
REMARK    8  A    between atoms: C_19  and  C_21
REMARK    9  A    between atoms: O_29  and  C_30
REMARK                            x       y       z     vdW  Elec       q    Type
REMARK                         _______ _______ _______ _____ _____    ______ ____
ROOT
ATOM      1  C   UNL     1       0.054  -6.312  -3.071  0.00  0.00    -0.076 C 
ATOM      2  C   UNL     1      -0.195  -6.957  -1.705  0.00  0.00    +0.016 C 
ATOM      3  C   UNL     1       1.081  -6.873  -0.868  0.00  0.00    +0.067 C 
ATOM      4  C   UNL     1       0.861  -7.569   0.486  0.00  0.00    +0.037 C 
ATOM      5  C   UNL     1       1.041  -6.436   1.527  0.00  0.00    +0.036 C 
ATOM      6  C   UNL     1       0.802  -5.167   0.669  0.00  0.00    +0.136 C 
ATOM      7  O   UNL     1       1.402  -5.500  -0.602  0.00  0.00    -0.369 OA
ATOM      8  C   UNL     1       2.237  -7.543  -1.611  0.00  0.00    +0.016 C 
ATOM      9  C   UNL     1       2.409  -6.880  -2.980  0.00  0.00    -0.076 C 
ATOM     10  N   UNL     1       1.155  -7.032  -3.747  0.00  0.00    +0.383 N 
ATOM     11  H   UNL     1       0.916  -8.029  -3.801  0.00  0.00    -0.081 HD
ENDROOT
BRANCH  10  12
ATOM     12  C   UNL     1       1.334  -6.506  -5.116  0.00  0.00    -0.043 C 
BRANCH  12  19
ATOM     13  C   UNL     1       1.421  -9.200  -6.154  0.00  0.00    +0.044 C 
ATOM     14  C   UNL     1       2.658  -8.340  -6.186  0.00  0.00    -0.043 A 
ATOM     15  C   UNL     1       3.833  -8.842  -6.712  0.00  0.00    -0.006 A 
ATOM     16  C   UNL     1       4.972  -8.051  -6.742  0.00  0.00    +0.123 A 
ATOM     17  C   UNL     1       4.928  -6.757  -6.242  0.00  0.00    +0.046 A 
ATOM     18  C   UNL     1       3.750  -6.258  -5.723  0.00  0.00    +0.005 A 
ATOM     19  C   UNL     1       2.617  -7.051  -5.689  0.00  0.00    -0.061 A 
ATOM     20  C   UNL     1       3.878 -10.248  -7.253  0.00  0.00    +0.048 C 
BRANCH  16  21
ATOM     21  O   UNL     1       6.130  -8.542  -7.258  0.00  0.00    -0.495 OA
ATOM     22  C   UNL     1       7.262  -7.671  -7.255  0.00  0.00    +0.277 C 
ENDBRANCH  16  21
ENDBRANCH  12  19
ENDBRANCH  10  12
BRANCH   6  23
ATOM     23  C   UNL     1       1.499  -3.957   1.294  0.00  0.00    +0.135 C 
BRANCH  23  24
ATOM     24  N   UNL     1       1.246  -2.770   0.472  0.00  0.00    -0.311 N 
ATOM     25  C   UNL     1       1.766  -1.579   0.831  0.00  0.00    +0.242 C 
ATOM     26  O   UNL     1       2.442  -1.490   1.833  0.00  0.00    -0.273 OA
ATOM     27  H   UNL     1       0.705  -2.842  -0.330  0.00  0.00    +0.149 HD
BRANCH  25  28
ATOM     28  C   UNL     1       1.506  -0.359  -0.014  0.00  0.00    +0.204 C 
ATOM     29  C   UNL     1       0.002  -0.004   0.002  0.00  0.00    +0.043 C 
ATOM     30  C   UNL     1      -0.019   1.541   0.011  0.00  0.00    +0.031 C 
ATOM     31  C   UNL     1       1.474   1.937  -0.002  0.00  0.00    +0.161 C 
ATOM     32  O   UNL     1       2.163   0.795   0.553  0.00  0.00    -0.367 OA
ENDBRANCH  25  28
ENDBRANCH  23  24
ENDBRANCH   6  23
TORSDOF 6
