REMARK  Name = ZINC05452401
REMARK  10 active torsions:
REMARK  status: ('A' for Active; 'I' for Inactive)
REMARK    1  A    between atoms: C_1  and  C_2
REMARK    2  A    between atoms: C_2  and  C_3
REMARK    3  A    between atoms: C_2  and  N_4
REMARK    4  A    between atoms: N_4  and  C_5
REMARK    5  A    between atoms: C_7  and  N_22
REMARK    6  A    between atoms: C_8  and  N_21
REMARK    7  A    between atoms: N_22  and  C_23
REMARK    8  A    between atoms: N_22  and  C_24
REMARK    9  A    between atoms: C_24  and  C_25
REMARK   10  A    between atoms: C_25  and  O_26
REMARK                            x       y       z     vdW  Elec       q    Type
REMARK                         _______ _______ _______ _____ _____    ______ ____
ROOT
ATOM      1  C   UNL     1      -2.074  -0.641  -1.176  0.00  0.00    +0.041 A 
ATOM      2  C   UNL     1      -1.668   0.066  -2.308  0.00  0.00    +0.048 A 
ATOM      3  C   UNL     1      -2.354  -0.065  -3.499  0.00  0.00    +0.053 A 
ATOM      4  C   UNL     1      -3.474  -0.916  -3.587  0.00  0.00    +0.058 A 
ATOM      5  C   UNL     1      -3.890  -1.629  -2.464  0.00  0.00    +0.057 A 
ATOM      6  C   UNL     1      -3.181  -1.496  -1.246  0.00  0.00    +0.056 A 
ATOM      7  C   UNL     1      -3.616  -2.252  -0.065  0.00  0.00    +0.196 C 
ATOM      8  O   UNL     1      -3.191  -1.966   1.039  0.00  0.00    -0.287 OA
ATOM      9  C   UNL     1      -4.577  -3.364  -0.232  0.00  0.00    +0.033 A 
ATOM     10  C   UNL     1      -4.791  -4.275   0.797  0.00  0.00    +0.012 A 
ATOM     11  C   UNL     1      -5.693  -5.309   0.624  0.00  0.00    +0.001 A 
ATOM     12  C   UNL     1      -6.385  -5.444  -0.567  0.00  0.00    +0.001 A 
ATOM     13  C   UNL     1      -6.184  -4.547  -1.601  0.00  0.00    +0.012 A 
ATOM     14  C   UNL     1      -5.280  -3.501  -1.443  0.00  0.00    +0.033 A 
ATOM     15  C   UNL     1      -5.057  -2.524  -2.534  0.00  0.00    +0.196 C 
ATOM     16  O   UNL     1      -5.819  -2.470  -3.480  0.00  0.00    -0.287 OA
ENDROOT
BRANCH   4  17
ATOM     17  N   UNL     1      -4.160  -1.043  -4.785  0.00  0.00    -0.356 N 
ATOM     18  H   UNL     1      -4.839  -1.728  -4.885  0.00  0.00    +0.142 HD
ATOM     19  H   UNL     1      -3.960  -0.447  -5.524  0.00  0.00    +0.142 HD
ENDBRANCH   4  17
BRANCH   1  20
ATOM     20  N   UNL     1      -1.379  -0.502   0.015  0.00  0.00    -0.341 N 
ATOM     21  H   UNL     1      -1.604  -1.060   0.776  0.00  0.00    +0.146 HD
BRANCH  20  23
ATOM     22  C   UNL     1      -0.900   1.850   0.484  0.00  0.00    +0.027 C 
ATOM     23  C   UNL     1      -0.304   0.488   0.125  0.00  0.00    +0.064 C 
ATOM     24  C   UNL     1       0.677   0.056   1.217  0.00  0.00    +0.027 C 
ENDBRANCH  20  23
ENDBRANCH   1  20
BRANCH   3  25
ATOM     25  N   UNL     1      -1.938   0.647  -4.619  0.00  0.00    -0.329 N 
ATOM     26  C   UNL     1      -0.961   0.060  -5.539  0.00  0.00    +0.129 C 
BRANCH  25  27
ATOM     27  C   UNL     1      -2.476   1.984  -4.878  0.00  0.00    +0.132 C 
BRANCH  27  28
ATOM     28  C   UNL     1      -1.591   3.031  -4.199  0.00  0.00    +0.174 C 
BRANCH  28  29
ATOM     29  O   UNL     1      -0.295   3.022  -4.802  0.00  0.00    -0.393 OA
ATOM     30  H   UNL     1       0.321   3.662  -4.420  0.00  0.00    +0.209 HD
ENDBRANCH  28  29
ENDBRANCH  27  28
ENDBRANCH  25  27
ENDBRANCH   3  25
TORSDOF 7
