REMARK  Name = ZINC01754995
REMARK  5 active torsions:
REMARK  status: ('A' for Active; 'I' for Inactive)
REMARK    1  A    between atoms: C_1  and  C_2
REMARK    2  A    between atoms: C_5  and  N_8
REMARK    3  A    between atoms: C_15  and  C_22
REMARK    4  A    between atoms: C_18  and  C_20
REMARK    5  A    between atoms: C_18  and  C_21
REMARK                            x       y       z     vdW  Elec       q    Type
REMARK                         _______ _______ _______ _____ _____    ______ ____
ROOT
ATOM      1  N   UNL     1       0.058  -4.167  -0.021  0.00  0.00    -0.214 N 
ATOM      2  C   UNL     1      -0.054  -4.931  -1.116  0.00  0.00    +0.153 C 
ATOM      3  S   UNL     1      -0.375  -4.327  -2.685  0.00  0.00    -0.017 S 
ATOM      4  N   UNL     1       0.130  -6.233  -0.828  0.00  0.00    -0.306 N 
ATOM      5  C   UNL     1       0.510  -6.295   0.599  0.00  0.00    +0.101 C 
ATOM      6  N   UNL     1       0.172  -4.951   1.098  0.00  0.00    -0.211 NA
ATOM      7  C   UNL     1       2.009  -6.545   0.697  0.00  0.00    +0.046 C 
ATOM      8  C   UNL     1       2.417  -6.703   2.162  0.00  0.00    -0.010 C 
ATOM      9  C   UNL     1       1.686  -7.907   2.752  0.00  0.00    +0.010 C 
ATOM     10  C   UNL     1       0.174  -7.702   2.699  0.00  0.00    -0.031 C 
ATOM     11  C   UNL     1      -0.302  -7.373   1.291  0.00  0.00    +0.049 C 
ATOM     12  C   UNL     1      -0.501  -9.014   3.143  0.00  0.00    +0.011 C 
ATOM     13  C   UNL     1      -0.240  -6.605   3.683  0.00  0.00    +0.011 C 
ATOM     14  C   UNL     1       3.929  -6.940   2.242  0.00  0.00    +0.007 C 
ATOM     15  H   UNL     1       0.036  -6.986  -1.428  0.00  0.00    +0.150 HD
ATOM     16  H   UNL     1      -0.712  -4.960   1.591  0.00  0.00    +0.147 HD
ENDROOT
BRANCH   1  21
ATOM     17  C   UNL     1      -0.018   1.503   0.009  0.00  0.00    +0.044 C 
ATOM     18  C   UNL     1       0.002  -0.004   0.001  0.00  0.00    -0.050 A 
ATOM     19  C   UNL     1       0.821  -0.678  -0.886  0.00  0.00    +0.005 A 
ATOM     20  C   UNL     1       0.842  -2.059  -0.896  0.00  0.00    +0.025 A 
ATOM     21  C   UNL     1       0.040  -2.771  -0.013  0.00  0.00    +0.052 A 
ATOM     22  C   UNL     1      -0.781  -2.091   0.877  0.00  0.00    +0.025 A 
ATOM     23  C   UNL     1      -0.794  -0.709   0.885  0.00  0.00    +0.005 A 
ENDBRANCH   1  21
TORSDOF 1
