REMARK  Name = ZINC28525091
REMARK  13 active torsions:
REMARK  status: ('A' for Active; 'I' for Inactive)
REMARK    1  A    between atoms: C_4  and  C_9
REMARK    2  A    between atoms: C_5  and  C_7
REMARK    3  A    between atoms: C_7  and  N_8
REMARK    4  A    between atoms: C_9  and  N_10
REMARK    5  A    between atoms: N_10  and  C_11
REMARK    6  A    between atoms: C_11  and  C_13
REMARK    7  A    between atoms: C_11  and  O_34
REMARK    8  A    between atoms: C_13  and  C_14
REMARK    9  A    between atoms: C_15  and  C_32
REMARK   10  A    between atoms: C_18  and  N_21
REMARK   11  A    between atoms: N_21  and  C_22
REMARK   12  A    between atoms: C_22  and  C_23
REMARK   13  A    between atoms: C_23  and  C_24
REMARK                            x       y       z     vdW  Elec       q    Type
REMARK                         _______ _______ _______ _____ _____    ______ ____
ROOT
ATOM      1  C   UNL     1      -3.454  -6.376   0.002  0.00  0.00    +0.085 A 
ATOM      2  C   UNL     1      -2.275  -7.126  -0.014  0.00  0.00    +0.075 A 
ATOM      3  C   UNL     1      -1.042  -6.456  -0.022  0.00  0.00    +0.024 A 
ATOM      4  C   UNL     1      -1.046  -5.076  -0.015  0.00  0.00    +0.046 A 
ATOM      5  C   UNL     1      -2.262  -4.398   0.000  0.00  0.00    +0.140 A 
ATOM      6  N   UNL     1      -3.411  -5.060   0.013  0.00  0.00    -0.121 N 
ATOM      7  O   UNL     1      -4.626  -4.332   0.034  0.00  0.00    -0.162 OA
ENDROOT
BRANCH   5   8
ATOM      8  N   UNL     1      -2.271  -3.010   0.008  0.00  0.00    -0.322 N 
ATOM      9  H   UNL     1      -3.228  -2.467   0.020  0.00  0.00    +0.148 HD
BRANCH   8  10
ATOM     10  C   UNL     1      -1.008  -2.269  -0.001  0.00  0.00    +0.185 C 
BRANCH  10  11
ATOM     11  C   UNL     1      -1.298  -0.767   0.010  0.00  0.00    +0.305 C 
ATOM     12  F   UNL     1      -2.023  -0.440   1.161  0.00  0.00    -0.197 F 
ATOM     13  F   UNL     1      -2.045  -0.428  -1.123  0.00  0.00    -0.197 F 
BRANCH  11  14
ATOM     14  C   UNL     1       0.002  -0.004   0.002  0.00  0.00    +0.111 A 
ATOM     15  C   UNL     1      -0.017   1.378   0.010  0.00  0.00    +0.029 A 
ATOM     16  C   UNL     1       1.185   2.070   0.002  0.00  0.00    +0.003 A 
ATOM     17  C   UNL     1       2.365   1.343  -0.013  0.00  0.00    +0.020 A 
ATOM     18  C   UNL     1       2.305  -0.038  -0.020  0.00  0.00    +0.111 A 
ATOM     19  N   UNL     1       1.144  -0.663  -0.012  0.00  0.00    -0.254 NA
ENDBRANCH  11  14
ENDBRANCH  10  11
ENDBRANCH   8  10
ENDBRANCH   5   8
BRANCH   2  20
ATOM     20  C   UNL     1      -2.324  -8.557  -0.020  0.00  0.00    +0.101 C 
ATOM     21  N   UNL     1      -2.363  -9.692  -0.025  0.00  0.00    -0.191 NA
ENDBRANCH   2  20
BRANCH   1  22
ATOM     22  C   UNL     1      -4.786  -7.081   0.011  0.00  0.00    +0.106 C 
BRANCH  22  23
ATOM     23  C   UNL     1      -5.251  -7.312  -1.428  0.00  0.00    +0.189 C 
BRANCH  23  24
ATOM     24  N   UNL     1      -6.489  -8.102  -1.422  0.00  0.00    -0.287 NA
ATOM     25  H   UNL     1      -7.343  -7.422  -1.553  0.00  0.00    +0.125 HD
BRANCH  24  26
ATOM     26  C   UNL     1      -6.484  -9.097  -2.503  0.00  0.00    +0.119 C 
BRANCH  26  30
ATOM     27  C   UNL     1     -10.120 -11.337  -2.396  0.00  0.00    +0.000 A 
ATOM     28  C   UNL     1      -8.964 -11.868  -1.855  0.00  0.00    +0.000 A 
ATOM     29  C   UNL     1      -7.786 -11.146  -1.894  0.00  0.00    +0.005 A 
ATOM     30  C   UNL     1      -7.767  -9.887  -2.465  0.00  0.00    -0.032 A 
ATOM     31  C   UNL     1      -8.922  -9.355  -3.006  0.00  0.00    -0.060 A 
ATOM     32  C   UNL     1     -10.099 -10.080  -2.971  0.00  0.00    +0.002 A 
BRANCH  31  33
ATOM     33  C   UNL     1      -8.899  -7.985  -3.633  0.00  0.00    -0.050 C 
BRANCH  33  34
ATOM     34  N   UNL     1      -8.350  -8.079  -4.993  0.00  0.00    +0.381 N 
ATOM     35  H   UNL     1      -8.334  -7.079  -5.451  0.00  0.00    -0.090 HD
ATOM     36  H   UNL     1      -8.979  -8.749  -5.597  0.00  0.00    -0.090 HD
ATOM     37  H   UNL     1      -7.326  -8.478  -4.948  0.00  0.00    -0.090 HD
ENDBRANCH  33  34
ENDBRANCH  31  33
ENDBRANCH  26  30
ENDBRANCH  24  26
ENDBRANCH  23  24
BRANCH  23  38
ATOM     38  O   UNL     1      -5.493  -6.052  -2.058  0.00  0.00    -0.377 OA
ATOM     39  H   UNL     1      -4.678  -5.320  -2.157  0.00  0.00    +0.211 HD
ENDBRANCH  23  38
ENDBRANCH  22  23
ENDBRANCH   1  22
TORSDOF 13
