REMARK  Name = ZINC06322234
REMARK  13 active torsions:
REMARK  status: ('A' for Active; 'I' for Inactive)
REMARK    1  A    between atoms: C_1  and  C_2
REMARK    2  A    between atoms: C_5  and  C_38
REMARK    3  A    between atoms: C_9  and  C_14
REMARK    4  A    between atoms: C_14  and  C_16
REMARK    5  A    between atoms: C_14  and  N_69
REMARK    6  A    between atoms: N_20  and  C_21
REMARK    7  A    between atoms: C_21  and  C_22
REMARK    8  A    between atoms: C_21  and  C_23
REMARK    9  A    between atoms: C_21  and  C_24
REMARK   10  A    between atoms: C_25  and  C_26
REMARK   11  A    between atoms: C_25  and  N_69
REMARK   12  A    between atoms: C_32  and  C_33
REMARK   13  A    between atoms: C_32  and  N_69
REMARK                            x       y       z     vdW  Elec       q    Type
REMARK                         _______ _______ _______ _____ _____    ______ ____
ROOT
ATOM      1  C   UNL     1       3.307   2.098   2.900  0.00  0.00    +0.040 C 
ENDROOT
BRANCH   1  10
ATOM      2  C   UNL     1      -0.573   2.586  -0.538  0.00  0.00    +0.044 C 
ATOM      3  C   UNL     1      -1.040   3.205   0.755  0.00  0.00    -0.041 A 
ATOM      4  C   UNL     1      -2.286   3.758   0.840  0.00  0.00    +0.004 A 
ATOM      5  C   UNL     1      -2.727   4.327   2.027  0.00  0.00    +0.005 A 
ATOM      6  C   UNL     1      -1.913   4.353   3.139  0.00  0.00    -0.026 A 
ATOM      7  C   UNL     1      -0.638   3.800   3.075  0.00  0.00    +0.052 A 
ATOM      8  C   UNL     1      -0.197   3.221   1.870  0.00  0.00    +0.002 A 
ATOM      9  C   UNL     1       1.147   2.642   1.812  0.00  0.00    +0.018 A 
ATOM     10  C   UNL     1       1.919   2.685   2.926  0.00  0.00    +0.011 A 
ATOM     11  C   UNL     1       1.429   3.278   4.109  0.00  0.00    +0.251 A 
ATOM     12  O   UNL     1       2.139   3.306   5.099  0.00  0.00    -0.268 OA
ATOM     13  N   UNL     1       0.196   3.812   4.172  0.00  0.00    -0.322 N 
ATOM     14  H   UNL     1      -0.110   4.212   5.001  0.00  0.00    +0.169 HD
ATOM     15  C   UNL     1      -2.402   4.978   4.420  0.00  0.00    +0.046 C 
ENDBRANCH   1  10
BRANCH   1  16
ATOM     16  C   UNL     1       3.373   0.921   3.839  0.00  0.00    +0.143 A 
ATOM     17  N   UNL     1       3.454   0.967   5.147  0.00  0.00    -0.115 NA
ATOM     18  N   UNL     1       3.488  -0.244   5.586  0.00  0.00    -0.023 NA
ATOM     19  N   UNL     1       3.430  -1.061   4.593  0.00  0.00    -0.043 NA
ATOM     20  N   UNL     1       3.352  -0.381   3.499  0.00  0.00    -0.225 N 
BRANCH  20  21
ATOM     21  C   UNL     1       3.263  -0.924   2.141  0.00  0.00    +0.059 C 
ATOM     22  C   UNL     1       4.494  -0.497   1.339  0.00  0.00    +0.036 C 
ATOM     23  C   UNL     1       3.200  -2.451   2.206  0.00  0.00    +0.036 C 
ATOM     24  C   UNL     1       2.001  -0.390   1.460  0.00  0.00    +0.036 C 
ENDBRANCH  20  21
ENDBRANCH   1  16
BRANCH   1  25
ATOM     25  N   UNL     1       4.276   3.119   3.352  0.00  0.00    +0.397 N 
ATOM     26  H   UNL     1       4.207   3.216   4.372  0.00  0.00    -0.079 HD
BRANCH  25  27
ATOM     27  C   UNL     1       5.649   2.703   3.000  0.00  0.00    -0.041 C 
BRANCH  27  28
ATOM     28  C   UNL     1       6.191   1.846   4.115  0.00  0.00    -0.064 A 
ATOM     29  C   UNL     1       6.717   2.437   5.249  0.00  0.00    +0.002 A 
ATOM     30  C   UNL     1       7.209   1.651   6.274  0.00  0.00    +0.000 A 
ATOM     31  C   UNL     1       7.186   0.274   6.160  0.00  0.00    +0.000 A 
ATOM     32  C   UNL     1       6.666  -0.318   5.024  0.00  0.00    +0.000 A 
ATOM     33  C   UNL     1       6.168   0.469   4.002  0.00  0.00    +0.002 A 
ENDBRANCH  27  28
ENDBRANCH  25  27
BRANCH  25  34
ATOM     34  C   UNL     1       3.966   4.421   2.725  0.00  0.00    -0.001 C 
BRANCH  34  35
ATOM     35  C   UNL     1       4.765   5.495   3.417  0.00  0.00    +0.089 A 
ATOM     36  C   UNL     1       5.940   5.997   2.995  0.00  0.00    +0.042 A 
ATOM     37  C   UNL     1       6.330   6.975   3.939  0.00  0.00    +0.041 A 
ATOM     38  C   UNL     1       5.370   7.012   4.880  0.00  0.00    +0.195 A 
ATOM     39  O   UNL     1       4.422   6.118   4.556  0.00  0.00    -0.470 OA
ENDBRANCH  34  35
ENDBRANCH  25  34
ENDBRANCH   1  25
TORSDOF 8
