REMARK  Name = ZINC67471846
REMARK  5 active torsions:
REMARK  status: ('A' for Active; 'I' for Inactive)
REMARK    1  A    between atoms: C_1  and  C_2
REMARK    2  A    between atoms: C_3  and  C_13
REMARK    3  A    between atoms: C_5  and  C_7
REMARK    4  A    between atoms: C_13  and  N_14
REMARK    5  A    between atoms: N_17  and  N_18
REMARK                            x       y       z     vdW  Elec       q    Type
REMARK                         _______ _______ _______ _____ _____    ______ ____
ROOT
ATOM      1  C   UNL     1      -0.010  -0.149  -2.589  0.00  0.00    +0.150 C 
ENDROOT
BRANCH   1   4
ATOM      2  C   UNL     1      -0.018   1.503   0.010  0.00  0.00    +0.066 C 
ATOM      3  C   UNL     1       0.002  -0.004   0.002  0.00  0.00    +0.051 A 
ATOM      4  C   UNL     1       0.005  -0.679  -1.179  0.00  0.00    +0.030 A 
ATOM      5  S   UNL     1       0.031  -2.368  -0.593  0.00  0.00    -0.070 S 
ATOM      6  C   UNL     1       0.035  -1.993   1.155  0.00  0.00    +0.109 A 
ATOM      7  N   UNL     1       0.022  -0.667   1.134  0.00  0.00    -0.244 NA
BRANCH   6   8
ATOM      8  C   UNL     1       0.053  -2.913   2.313  0.00  0.00    +0.007 A 
ATOM      9  C   UNL     1       0.076  -4.293   2.110  0.00  0.00    +0.010 A 
ATOM     10  C   UNL     1       0.092  -5.146   3.194  0.00  0.00    +0.001 A 
ATOM     11  C   UNL     1       0.086  -4.636   4.480  0.00  0.00    +0.000 A 
ATOM     12  C   UNL     1       0.063  -3.268   4.688  0.00  0.00    +0.001 A 
ATOM     13  C   UNL     1       0.053  -2.404   3.612  0.00  0.00    +0.010 A 
ENDBRANCH   6   8
ENDBRANCH   1   4
BRANCH   1  14
ATOM     14  N   UNL     1       1.367   0.042  -3.054  0.00  0.00    -0.294 N 
ATOM     15  C   UNL     1       1.600   0.510  -4.296  0.00  0.00    +0.316 C 
ATOM     16  O   UNL     1       0.668   0.775  -5.030  0.00  0.00    -0.251 OA
ATOM     17  N   UNL     1       2.866   0.686  -4.723  0.00  0.00    -0.217 N 
ATOM     18  H   UNL     1       2.110  -0.170  -2.468  0.00  0.00    +0.151 HD
ATOM     19  H   UNL     1       3.034   1.023  -5.617  0.00  0.00    +0.174 HD
BRANCH  17  20
ATOM     20  N   UNL     1       3.940   0.381  -3.876  0.00  0.00    -0.217 N 
ATOM     21  C   UNL     1       5.206   0.556  -4.304  0.00  0.00    +0.313 C 
ATOM     22  O   UNL     1       6.138   0.292  -3.569  0.00  0.00    -0.252 OA
ATOM     23  N   UNL     1       5.439   1.025  -5.545  0.00  0.00    -0.312 N 
ATOM     24  H   UNL     1       3.772   0.043  -2.982  0.00  0.00    +0.174 HD
ATOM     25  H   UNL     1       4.696   1.236  -6.132  0.00  0.00    +0.147 HD
ATOM     26  H   UNL     1       6.350   1.151  -5.853  0.00  0.00    +0.147 HD
ENDBRANCH  17  20
ENDBRANCH   1  14
TORSDOF 4
