REMARK  Name = ZINC12498339
REMARK  14 active torsions:
REMARK  status: ('A' for Active; 'I' for Inactive)
REMARK    1  A    between atoms: C_1  and  C_2
REMARK    2  A    between atoms: C_2  and  C_4
REMARK    3  A    between atoms: C_8  and  N_10
REMARK    4  A    between atoms: C_15  and  C_30
REMARK    5  A    between atoms: C_17  and  C_22
REMARK    6  A    between atoms: C_17  and  C_26
REMARK    7  A    between atoms: C_22  and  C_23
REMARK    8  A    between atoms: C_23  and  S_24
REMARK    9  A    between atoms: S_24  and  C_25
REMARK   10  A    between atoms: C_26  and  O_28
REMARK   11  A    between atoms: O_28  and  C_29
REMARK   12  A    between atoms: C_33  and  N_36
REMARK   13  A    between atoms: N_36  and  C_37
REMARK   14  A    between atoms: N_36  and  C_38
REMARK                            x       y       z     vdW  Elec       q    Type
REMARK                         _______ _______ _______ _____ _____    ______ ____
ROOT
ATOM      1  N   UNL     1       4.760   7.401   0.787  0.00  0.00    -0.210 N 
ATOM      2  C   UNL     1       5.261   7.143  -0.466  0.00  0.00    +0.229 C 
ATOM      3  O   UNL     1       5.885   7.897  -1.181  0.00  0.00    -0.275 OA
ATOM      4  C   UNL     1       4.882   5.778  -0.746  0.00  0.00    +0.077 C 
ATOM      5  C   UNL     1       4.677   4.883  -1.901  0.00  0.00    -0.027 C 
ATOM      6  C   UNL     1       3.329   4.179  -0.016  0.00  0.00    +0.044 C 
ATOM      7  C   UNL     1       3.482   5.690  -0.024  0.00  0.00    +0.086 C 
ATOM      8  C   UNL     1       3.868   6.452   1.204  0.00  0.00    +0.229 C 
ATOM      9  O   UNL     1       3.472   6.267   2.334  0.00  0.00    -0.275 OA
ATOM     10  N   UNL     1       3.983   3.716  -1.269  0.00  0.00    +0.395 N 
ATOM     11  H   UNL     1       4.667   2.982  -1.052  0.00  0.00    -0.083 HD
ATOM     12  H   UNL     1       3.275   3.345  -1.913  0.00  0.00    -0.083 HD
ENDROOT
BRANCH   1  17
ATOM     13  C   UNL     1       6.397  10.541   1.827  0.00  0.00    +0.019 A 
ATOM     14  C   UNL     1       5.831  10.719   3.094  0.00  0.00    +0.011 A 
ATOM     15  C   UNL     1       4.924   9.800   3.578  0.00  0.00    +0.003 A 
ATOM     16  C   UNL     1       4.565   8.705   2.812  0.00  0.00    +0.024 A 
ATOM     17  C   UNL     1       5.124   8.516   1.555  0.00  0.00    +0.045 A 
ATOM     18  C   UNL     1       6.037   9.431   1.057  0.00  0.00    +0.035 A 
BRANCH  13  20
ATOM     19  C   UNL     1       7.751  12.714   2.138  0.00  0.00    +0.091 C 
ATOM     20  C   UNL     1       7.366  11.518   1.306  0.00  0.00    +0.160 C 
ATOM     21  O   UNL     1       7.854  11.362   0.207  0.00  0.00    -0.292 OA
ENDBRANCH  13  20
ENDBRANCH   1  17
BRANCH   5  22
ATOM     22  C   UNL     1       5.997   4.474  -2.503  0.00  0.00    -0.060 A 
ATOM     23  C   UNL     1       6.741   3.469  -1.915  0.00  0.00    +0.004 A 
ATOM     24  C   UNL     1       7.948   3.087  -2.467  0.00  0.00    +0.023 A 
ATOM     25  C   UNL     1       8.419   3.723  -3.609  0.00  0.00    +0.029 A 
ATOM     26  C   UNL     1       7.671   4.737  -4.194  0.00  0.00    +0.023 A 
ATOM     27  C   UNL     1       6.463   5.110  -3.639  0.00  0.00    +0.004 A 
BRANCH  25  28
ATOM     28  N   UNL     1       9.642   3.344  -4.168  0.00  0.00    -0.336 N 
ATOM     29  C   UNL     1      10.078   3.926  -5.439  0.00  0.00    +0.129 C 
ATOM     30  C   UNL     1      10.488   2.364  -3.482  0.00  0.00    +0.129 C 
ENDBRANCH  25  28
ENDBRANCH   5  22
BRANCH   6  31
ATOM     31  C   UNL     1       4.022   3.591   1.186  0.00  0.00    +0.297 C 
ATOM     32  O   UNL     1       4.169   4.256   2.184  0.00  0.00    -0.252 OA
BRANCH  31  33
ATOM     33  O   UNL     1       4.476   2.328   1.148  0.00  0.00    -0.469 OA
ATOM     34  C   UNL     1       5.133   1.828   2.343  0.00  0.00    +0.280 C 
ENDBRANCH  31  33
ENDBRANCH   6  31
BRANCH   6  35
ATOM     35  C   UNL     1       1.848   3.796  -0.012  0.00  0.00    +0.010 C 
BRANCH  35  36
ATOM     36  C   UNL     1       1.714   2.272  -0.035  0.00  0.00    +0.068 C 
BRANCH  36  37
ATOM     37  S   UNL     1      -0.042   1.819  -0.030  0.00  0.00    -0.164 S 
ATOM     38  C   UNL     1      -0.028   0.005  -0.059  0.00  0.00    +0.084 C 
ENDBRANCH  36  37
ENDBRANCH  35  36
ENDBRANCH   6  35
TORSDOF 9
