REMARK  Name = ZINC12833032
REMARK  10 active torsions:
REMARK  status: ('A' for Active; 'I' for Inactive)
REMARK    1  A    between atoms: C_1  and  C_2
REMARK    2  A    between atoms: C_4  and  C_35
REMARK    3  A    between atoms: C_9  and  C_14
REMARK    4  A    between atoms: C_14  and  N_69
REMARK    5  A    between atoms: C_15  and  C_16
REMARK    6  A    between atoms: C_15  and  N_69
REMARK    7  A    between atoms: C_16  and  C_17
REMARK    8  A    between atoms: C_23  and  C_24
REMARK    9  A    between atoms: C_23  and  N_69
REMARK   10  A    between atoms: N_28  and  C_29
REMARK                            x       y       z     vdW  Elec       q    Type
REMARK                         _______ _______ _______ _____ _____    ______ ____
ROOT
ATOM      1  N   UNL     1      -1.986   4.717   0.605  0.00  0.00    +0.387 N 
ATOM      2  H   UNL     1      -0.993   4.800   0.853  0.00  0.00    -0.081 HD
ENDROOT
BRANCH   1   3
ATOM      3  C   UNL     1      -2.794   5.440   1.610  0.00  0.00    -0.037 C 
BRANCH   3  12
ATOM      4  C   UNL     1      -2.317  12.792   0.448  0.00  0.00    +0.044 C 
ATOM      5  C   UNL     1      -1.837  11.534   1.126  0.00  0.00    -0.050 A 
ATOM      6  C   UNL     1      -0.773  11.596   2.016  0.00  0.00    +0.008 A 
ATOM      7  C   UNL     1      -0.317  10.459   2.647  0.00  0.00    -0.026 A 
ATOM      8  C   UNL     1      -0.927   9.235   2.390  0.00  0.00    +0.052 A 
ATOM      9  C   UNL     1      -2.005   9.177   1.487  0.00  0.00    -0.001 A 
ATOM     10  C   UNL     1      -2.451  10.344   0.858  0.00  0.00    +0.013 A 
ATOM     11  C   UNL     1      -2.636   7.883   1.218  0.00  0.00    +0.017 A 
ATOM     12  C   UNL     1      -2.163   6.786   1.860  0.00  0.00    +0.001 A 
ATOM     13  C   UNL     1      -1.080   6.899   2.757  0.00  0.00    +0.251 A 
ATOM     14  O   UNL     1      -0.667   5.900   3.320  0.00  0.00    -0.268 OA
ATOM     15  N   UNL     1      -0.491   8.082   3.006  0.00  0.00    -0.322 N 
ATOM     16  H   UNL     1       0.252   8.124   3.629  0.00  0.00    +0.169 HD
ATOM     17  C   UNL     1       0.838  10.541   3.612  0.00  0.00    +0.046 C 
ENDBRANCH   3  12
ENDBRANCH   1   3
BRANCH   1  18
ATOM     18  C   UNL     1      -2.198   5.308  -0.733  0.00  0.00    -0.073 C 
BRANCH  18  19
ATOM     19  C   UNL     1      -3.639   5.084  -1.196  0.00  0.00    +0.016 C 
BRANCH  19  20
ATOM     20  C   UNL     1      -3.864   5.802  -2.502  0.00  0.00    -0.049 A 
ATOM     21  C   UNL     1      -4.317   7.108  -2.503  0.00  0.00    +0.003 A 
ATOM     22  C   UNL     1      -4.519   7.768  -3.701  0.00  0.00    +0.000 A 
ATOM     23  C   UNL     1      -4.278   7.119  -4.897  0.00  0.00    +0.000 A 
ATOM     24  C   UNL     1      -3.830   5.811  -4.896  0.00  0.00    +0.000 A 
ATOM     25  C   UNL     1      -3.623   5.153  -3.698  0.00  0.00    +0.003 A 
ENDBRANCH  19  20
ENDBRANCH  18  19
ENDBRANCH   1  18
BRANCH   1  26
ATOM     26  C   UNL     1      -2.360   3.287   0.591  0.00  0.00    +0.001 C 
BRANCH  26  27
ATOM     27  C   UNL     1      -1.380   2.537  -0.274  0.00  0.00    +0.135 A 
ATOM     28  N   UNL     1      -1.491   2.301  -1.558  0.00  0.00    -0.115 NA
ATOM     29  N   UNL     1      -0.455   1.633  -1.931  0.00  0.00    -0.023 NA
ATOM     30  N   UNL     1       0.317   1.441  -0.919  0.00  0.00    -0.044 NA
ATOM     31  N   UNL     1      -0.222   1.979   0.123  0.00  0.00    -0.228 N 
BRANCH  31  32
ATOM     32  C   UNL     1       0.328   1.986   1.481  0.00  0.00    +0.111 C 
ATOM     33  C   UNL     1       1.690   2.681   1.476  0.00  0.00    +0.027 C 
ATOM     34  C   UNL     1       2.264   2.688   2.895  0.00  0.00    +0.002 C 
ATOM     35  C   UNL     1       2.428   1.249   3.386  0.00  0.00    +0.000 C 
ATOM     36  C   UNL     1       1.065   0.553   3.390  0.00  0.00    +0.002 C 
ATOM     37  C   UNL     1       0.492   0.546   1.972  0.00  0.00    +0.027 C 
ENDBRANCH  31  32
ENDBRANCH  26  27
ENDBRANCH   1  26
TORSDOF 8
