REMARK  Name = ZINC05804288
REMARK  4 active torsions:
REMARK  status: ('A' for Active; 'I' for Inactive)
REMARK    1  A    between atoms: C_1  and  C_2
REMARK    2  A    between atoms: C_6  and  C_25
REMARK    3  A    between atoms: C_7  and  N_8
REMARK    4  A    between atoms: N_15  and  C_19
REMARK                            x       y       z     vdW  Elec       q    Type
REMARK                         _______ _______ _______ _____ _____    ______ ____
ROOT
ATOM      1  N   UNL     1      -6.035   4.374  -0.035  0.00  0.00    -0.234 NA
ATOM      2  C   UNL     1      -4.735   4.403   0.012  0.00  0.00    +0.125 C 
ATOM      3  C   UNL     1      -3.789   3.234  -0.055  0.00  0.00    +0.097 C 
ATOM      4  C   UNL     1      -4.052   2.238   1.087  0.00  0.00    +0.034 C 
ATOM      5  C   UNL     1      -3.435   0.924   0.540  0.00  0.00    +0.003 C 
ATOM      6  C   UNL     1      -3.753   0.952  -0.970  0.00  0.00    +0.003 C 
ATOM      7  C   UNL     1      -3.966   2.432  -1.347  0.00  0.00    +0.034 C 
ATOM      8  N   UNL     1      -2.456   3.823   0.043  0.00  0.00    -0.269 N 
ATOM      9  C   UNL     1      -2.629   5.156   0.144  0.00  0.00    +0.143 C 
ATOM     10  S   UNL     1      -1.340   6.275   0.276  0.00  0.00    -0.018 S 
ATOM     11  N   UNL     1      -3.922   5.509   0.128  0.00  0.00    -0.283 N 
ATOM     12  H   UNL     1      -4.366   6.513   0.194  0.00  0.00    +0.155 HD
ENDROOT
BRANCH   1  19
ATOM     13  C   UNL     1      -6.821   5.295   2.537  0.00  0.00    +0.046 C 
ATOM     14  C   UNL     1      -7.160   6.041   1.272  0.00  0.00    -0.025 A 
ATOM     15  C   UNL     1      -7.873   7.221   1.335  0.00  0.00    +0.005 A 
ATOM     16  C   UNL     1      -8.191   7.903   0.175  0.00  0.00    +0.001 A 
ATOM     17  C   UNL     1      -7.792   7.412  -1.056  0.00  0.00    +0.005 A 
ATOM     18  C   UNL     1      -7.073   6.237  -1.132  0.00  0.00    -0.025 A 
ATOM     19  C   UNL     1      -6.749   5.543   0.035  0.00  0.00    +0.071 A 
ATOM     20  C   UNL     1      -6.639   5.703  -2.473  0.00  0.00    +0.046 C 
ENDBRANCH   1  19
BRANCH   8  21
ATOM     21  C   UNL     1      -1.236   3.138   0.029  0.00  0.00    +0.036 A 
ATOM     22  C   UNL     1      -0.632   2.818  -1.179  0.00  0.00    +0.023 A 
ATOM     23  C   UNL     1       0.570   2.137  -1.190  0.00  0.00    +0.002 A 
ATOM     24  C   UNL     1       1.177   1.784   0.002  0.00  0.00    +0.000 A 
ATOM     25  C   UNL     1       0.580   2.106   1.207  0.00  0.00    +0.002 A 
ATOM     26  C   UNL     1      -0.624   2.782   1.224  0.00  0.00    +0.023 A 
ENDBRANCH   8  21
TORSDOF 2
