REMARK  Name = ZINC37359341
REMARK  6 active torsions:
REMARK  status: ('A' for Active; 'I' for Inactive)
REMARK    1  A    between atoms: C_1  and  N_2
REMARK    2  A    between atoms: C_3  and  N_36
REMARK    3  A    between atoms: C_5  and  C_26
REMARK    4  A    between atoms: N_14  and  C_17
REMARK    5  A    between atoms: C_17  and  C_18
REMARK    6  A    between atoms: C_29  and  C_32
REMARK                            x       y       z     vdW  Elec       q    Type
REMARK                         _______ _______ _______ _____ _____    ______ ____
ROOT
ATOM      1  C   UNL     1      -1.048   1.180  -0.101  0.00  0.00    +0.174 C 
ATOM      2  N   UNL     1      -0.468  -0.164  -0.059  0.00  0.00    -0.251 N 
ATOM      3  C   UNL     1      -0.031  -0.850  -1.130  0.00  0.00    +0.126 A 
ATOM      4  C   UNL     1       0.444  -2.075  -0.677  0.00  0.00    +0.086 A 
ATOM      5  C   UNL     1       1.019  -3.220  -1.272  0.00  0.00    +0.089 A 
ATOM      6  N   UNL     1       1.359  -4.233  -0.486  0.00  0.00    -0.214 NA
ATOM      7  C   UNL     1       1.175  -4.199   0.831  0.00  0.00    +0.220 A 
ATOM      8  N   UNL     1       0.647  -3.174   1.467  0.00  0.00    -0.193 NA
ATOM      9  C   UNL     1       0.258  -2.079   0.785  0.00  0.00    +0.188 A 
ATOM     10  N   UNL     1      -0.280  -0.922   1.102  0.00  0.00    -0.149 NA
ATOM     11  N   UNL     1       1.559  -5.302   1.573  0.00  0.00    -0.303 N 
ATOM     12  C   UNL     1       2.161  -6.478   0.925  0.00  0.00    +0.089 C 
ATOM     13  C   UNL     1       3.451  -6.836   1.670  0.00  0.00    -0.059 C 
ATOM     14  N   UNL     1       3.157  -7.015   3.098  0.00  0.00    +0.387 N 
ATOM     15  C   UNL     1       2.705  -5.744   3.678  0.00  0.00    -0.059 C 
ATOM     16  C   UNL     1       1.383  -5.329   3.033  0.00  0.00    +0.089 C 
ATOM     17  H   UNL     1       2.433  -7.709   3.206  0.00  0.00    -0.081 HD
ENDROOT
BRANCH   5  18
ATOM     18  C   UNL     1       1.237  -3.288  -2.735  0.00  0.00    +0.001 A 
ATOM     19  C   UNL     1       1.798  -2.204  -3.411  0.00  0.00    +0.010 A 
ATOM     20  C   UNL     1       1.998  -2.273  -4.774  0.00  0.00    +0.013 A 
ATOM     21  C   UNL     1       1.643  -3.414  -5.471  0.00  0.00    +0.055 A 
ATOM     22  C   UNL     1       1.085  -4.492  -4.807  0.00  0.00    +0.013 A 
ATOM     23  C   UNL     1       0.886  -4.438  -3.442  0.00  0.00    +0.010 A 
BRANCH  21  24
ATOM     24  C   UNL     1       1.863  -3.483  -6.960  0.00  0.00    +0.417 C 
ATOM     25  F   UNL     1       3.136  -4.002  -7.219  0.00  0.00    -0.166 F 
ATOM     26  F   UNL     1       0.895  -4.312  -7.537  0.00  0.00    -0.166 F 
ATOM     27  F   UNL     1       1.764  -2.199  -7.506  0.00  0.00    -0.166 F 
ENDBRANCH  21  24
ENDBRANCH   5  18
BRANCH   3  28
ATOM     28  N   UNL     1      -0.052  -0.415  -2.442  0.00  0.00    -0.343 N 
ATOM     29  H   UNL     1      -0.145   0.530  -2.638  0.00  0.00    +0.144 HD
ATOM     30  H   UNL     1       0.028  -1.056  -3.166  0.00  0.00    +0.144 HD
ENDBRANCH   3  28
BRANCH  14  31
ATOM     31  C   UNL     1       4.370  -7.465   3.793  0.00  0.00    +0.019 C 
BRANCH  31  32
ATOM     32  C   UNL     1       4.041  -7.767   5.233  0.00  0.00    +0.199 C 
ATOM     33  O   UNL     1       2.907  -7.622   5.639  0.00  0.00    -0.278 OA
ATOM     34  N   UNL     1       5.006  -8.199   6.068  0.00  0.00    -0.299 N 
ATOM     35  C   UNL     1       6.389  -8.377   5.600  0.00  0.00    +0.136 C 
ATOM     36  C   UNL     1       7.327  -7.651   6.572  0.00  0.00    +0.179 C 
ATOM     37  O   UNL     1       7.047  -8.083   7.906  0.00  0.00    -0.377 OA
ATOM     38  C   UNL     1       5.727  -7.773   8.357  0.00  0.00    +0.179 C 
ATOM     39  C   UNL     1       4.709  -8.500   7.478  0.00  0.00    +0.136 C 
ENDBRANCH  31  32
ENDBRANCH  14  31
TORSDOF 5
