REMARK  Name = ZINC09109570
REMARK  4 active torsions:
REMARK  status: ('A' for Active; 'I' for Inactive)
REMARK    1  A    between atoms: C_1  and  C_2
REMARK    2  A    between atoms: C_7  and  C_8
REMARK    3  A    between atoms: N_24  and  C_27
REMARK    4  A    between atoms: C_30  and  N_33
REMARK                            x       y       z     vdW  Elec       q    Type
REMARK                         _______ _______ _______ _____ _____    ______ ____
ROOT
ATOM      1  C   UNL     1      -1.295  -0.772   0.010  0.00  0.00    +0.044 C 
ATOM      2  C   UNL     1       0.002  -0.004   0.002  0.00  0.00    -0.046 A 
ATOM      3  C   UNL     1       1.205  -0.686  -0.013  0.00  0.00    +0.004 A 
ATOM      4  C   UNL     1       2.396   0.019  -0.020  0.00  0.00    +0.005 A 
ATOM      5  C   UNL     1       2.382   1.395  -0.014  0.00  0.00    -0.027 A 
ATOM      6  C   UNL     1       1.177   2.092   0.002  0.00  0.00    +0.039 A 
ATOM      7  C   UNL     1      -0.017   1.375   0.010  0.00  0.00    -0.026 A 
ATOM      8  C   UNL     1      -1.333   2.108   0.020  0.00  0.00    +0.046 C 
ATOM      9  N   UNL     1       1.415   3.469   0.009  0.00  0.00    -0.286 N 
ATOM     10  C   UNL     1       2.733   3.755  -0.000  0.00  0.00    +0.212 C 
ATOM     11  O   UNL     1       3.234   4.859   0.008  0.00  0.00    -0.277 OA
ATOM     12  C   UNL     1       3.458   2.443  -0.022  0.00  0.00    +0.053 C 
ATOM     13  C   UNL     1       4.402   2.301  -1.200  0.00  0.00    +0.089 C 
ATOM     14  C   UNL     1       5.538   3.243  -0.657  0.00  0.00    +0.074 C 
ATOM     15  C   UNL     1       5.669   2.946   0.777  0.00  0.00    -0.054 C 
ATOM     16  C   UNL     1       3.821   2.946   2.341  0.00  0.00    -0.076 C 
ATOM     17  C   UNL     1       4.912   3.894   2.878  0.00  0.00    -0.020 C 
ATOM     18  C   UNL     1       5.730   4.260   1.600  0.00  0.00    -0.016 C 
ATOM     19  C   UNL     1       6.327   3.482  -1.841  0.00  0.00    +0.228 C 
ATOM     20  O   UNL     1       7.531   3.604  -1.924  0.00  0.00    -0.275 OA
ATOM     21  N   UNL     1       5.397   3.541  -2.855  0.00  0.00    -0.210 N 
ATOM     22  C   UNL     1       4.179   3.041  -2.483  0.00  0.00    +0.229 C 
ATOM     23  O   UNL     1       3.129   3.170  -3.075  0.00  0.00    -0.275 OA
ATOM     24  H   UNL     1       0.715   4.140   0.019  0.00  0.00    +0.155 HD
ATOM     25  N   UNL     1       4.392   2.295   1.124  0.00  0.00    +0.395 N 
ATOM     26  H   UNL     1       4.551   1.298   1.312  0.00  0.00    -0.079 HD
ENDROOT
BRANCH  21  27
ATOM     27  C   UNL     1       5.668   4.057  -4.130  0.00  0.00    +0.044 A 
ATOM     28  C   UNL     1       4.675   4.075  -5.099  0.00  0.00    +0.026 A 
ATOM     29  C   UNL     1       4.944   4.588  -6.353  0.00  0.00    +0.034 A 
ATOM     30  C   UNL     1       6.205   5.075  -6.646  0.00  0.00    +0.126 A 
ATOM     31  C   UNL     1       7.198   5.055  -5.684  0.00  0.00    +0.034 A 
ATOM     32  C   UNL     1       6.933   4.547  -4.427  0.00  0.00    +0.026 A 
BRANCH  30  33
ATOM     33  N   UNL     1       6.492   5.619  -7.992  0.00  0.00    +0.056 N 
ATOM     34  O   UNL     1       7.602   6.048  -8.252  0.00  0.00    -0.126 OA
ATOM     35  O   UNL     1       5.618   5.638  -8.840  0.00  0.00    -0.126 OA
ENDBRANCH  30  33
ENDBRANCH  21  27
TORSDOF 2
