REMARK  Name = ZINC16661342
REMARK  4 active torsions:
REMARK  status: ('A' for Active; 'I' for Inactive)
REMARK    1  A    between atoms: C_4  and  C_7
REMARK    2  A    between atoms: C_15  and  C_18
REMARK    3  A    between atoms: C_18  and  C_19
REMARK    4  A    between atoms: N_21  and  C_22
REMARK                            x       y       z     vdW  Elec       q    Type
REMARK                         _______ _______ _______ _____ _____    ______ ____
ROOT
ATOM      1  C   UNL     1       5.971   3.562   3.871  0.00  0.00    +0.042 A 
ATOM      2  C   UNL     1       6.975   4.081   3.025  0.00  0.00    +0.144 A 
ATOM      3  N   UNL     1       7.147   3.247   2.030  0.00  0.00    -0.177 NA
ATOM      4  N   UNL     1       6.277   2.174   2.188  0.00  0.00    -0.249 N 
ATOM      5  C   UNL     1       5.557   2.375   3.324  0.00  0.00    +0.131 A 
ATOM      6  N   UNL     1       4.595   1.470   3.762  0.00  0.00    -0.270 N 
ATOM      7  C   UNL     1       4.183   0.523   2.889  0.00  0.00    +0.224 C 
ATOM      8  O   UNL     1       3.426  -0.345   3.268  0.00  0.00    -0.275 OA
ATOM      9  C   UNL     1       4.642   0.523   1.458  0.00  0.00    +0.105 C 
ATOM     10  C   UNL     1       6.093   0.994   1.338  0.00  0.00    +0.158 C 
ATOM     11  H   UNL     1       4.233   1.516   4.661  0.00  0.00    +0.156 HD
ENDROOT
BRANCH   1  15
ATOM     12  C   UNL     1       4.508   5.345   7.443  0.00  0.00    +0.000 A 
ATOM     13  C   UNL     1       5.870   5.201   7.253  0.00  0.00    +0.001 A 
ATOM     14  C   UNL     1       6.351   4.623   6.095  0.00  0.00    +0.008 A 
ATOM     15  C   UNL     1       5.461   4.184   5.117  0.00  0.00    -0.013 A 
ATOM     16  C   UNL     1       4.089   4.338   5.311  0.00  0.00    +0.008 A 
ATOM     17  C   UNL     1       3.620   4.912   6.475  0.00  0.00    +0.001 A 
ENDBRANCH   1  15
BRANCH   9  18
ATOM     18  C   UNL     1       3.744   1.457   0.644  0.00  0.00    +0.110 C 
BRANCH  18  19
ATOM     19  C   UNL     1       2.332   0.932   0.654  0.00  0.00    +0.214 C 
ATOM     20  O   UNL     1       2.069  -0.089   1.254  0.00  0.00    -0.276 OA
ATOM     21  N   UNL     1       1.360   1.597  -0.002  0.00  0.00    -0.312 N 
ATOM     22  H   UNL     1       1.570   2.413  -0.482  0.00  0.00    +0.149 HD
BRANCH  21  23
ATOM     23  C   UNL     1      -0.013   1.086   0.008  0.00  0.00    +0.073 C 
ATOM     24  C   UNL     1      -0.725   1.575   1.240  0.00  0.00    +0.022 C 
ATOM     25  C   UNL     1      -1.741   0.547   1.779  0.00  0.00    +0.002 C 
ATOM     26  C   UNL     1      -2.550  -0.140   0.662  0.00  0.00    +0.000 C 
ATOM     27  C   UNL     1      -2.985   0.823  -0.409  0.00  0.00    +0.000 C 
ATOM     28  C   UNL     1      -1.940   0.798  -1.544  0.00  0.00    +0.002 C 
ATOM     29  C   UNL     1      -0.766   1.601  -1.235  0.00  0.00    +0.022 C 
ENDBRANCH  21  23
ENDBRANCH  18  19
ENDBRANCH   9  18
TORSDOF 4
