REMARK  Name = ZINC40985932
REMARK  10 active torsions:
REMARK  status: ('A' for Active; 'I' for Inactive)
REMARK    1  A    between atoms: C_1  and  N_2
REMARK    2  A    between atoms: N_2  and  C_3
REMARK    3  A    between atoms: N_2  and  C_4
REMARK    4  A    between atoms: C_4  and  C_6
REMARK    5  A    between atoms: C_4  and  C_26
REMARK    6  A    between atoms: C_6  and  N_7
REMARK    7  A    between atoms: C_8  and  C_10
REMARK    8  A    between atoms: C_13  and  S_17
REMARK    9  A    between atoms: S_17  and  C_18
REMARK   10  A    between atoms: C_18  and  C_19
REMARK                            x       y       z     vdW  Elec       q    Type
REMARK                         _______ _______ _______ _____ _____    ______ ____
ROOT
ATOM      1  C   UNL     1      -0.263  -4.674   1.551  0.00  0.00    +0.092 A 
ATOM      2  C   UNL     1       0.499  -4.050   2.548  0.00  0.00    +0.129 A 
ATOM      3  N   UNL     1       1.135  -4.798   3.429  0.00  0.00    -0.229 NA
ATOM      4  C   UNL     1       1.061  -6.123   3.381  0.00  0.00    +0.190 A 
ATOM      5  N   UNL     1       0.350  -6.752   2.453  0.00  0.00    -0.209 NA
ATOM      6  C   UNL     1      -0.320  -6.076   1.538  0.00  0.00    +0.146 A 
ATOM      7 CL   UNL     1      -1.251  -6.909   0.333  0.00  0.00    -0.061 Cl
ENDROOT
BRANCH   1   9
ATOM      8  N   UNL     1      -0.923  -2.532   0.575  0.00  0.00    -0.312 N 
ATOM      9  C   UNL     1      -0.990  -3.877   0.545  0.00  0.00    +0.248 C 
ATOM     10  O   UNL     1      -1.651  -4.435  -0.310  0.00  0.00    -0.270 OA
ATOM     11  H   UNL     1      -0.396  -2.087   1.257  0.00  0.00    +0.149 HD
BRANCH   8  12
ATOM     12  C   UNL     1      -1.646  -1.740  -0.424  0.00  0.00    +0.097 C 
BRANCH  12  13
ATOM     13  C   UNL     1      -1.510  -0.253  -0.093  0.00  0.00    +0.016 C 
BRANCH  13  14
ATOM     14  C   UNL     1      -0.068   0.163  -0.236  0.00  0.00    +0.093 A 
ATOM     15  C   UNL     1       0.463   0.808  -1.291  0.00  0.00    +0.043 A 
ATOM     16  C   UNL     1       1.835   0.998  -1.006  0.00  0.00    +0.041 A 
ATOM     17  C   UNL     1       2.060   0.457   0.206  0.00  0.00    +0.195 A 
ATOM     18  O   UNL     1       0.902  -0.041   0.669  0.00  0.00    -0.469 OA
ENDBRANCH  13  14
BRANCH  13  20
ATOM     19  C   UNL     1      -1.813   1.411   1.609  0.00  0.00    -0.096 C 
ATOM     20  N   UNL     1      -1.953  -0.016   1.287  0.00  0.00    +0.384 N 
ATOM     21  C   UNL     1      -3.360  -0.413   1.425  0.00  0.00    -0.096 C 
ATOM     22  H   UNL     1      -1.386  -0.560   1.921  0.00  0.00    -0.082 HD
ENDBRANCH  13  20
ENDBRANCH  12  13
ENDBRANCH   8  12
ENDBRANCH   1   9
BRANCH   4  23
ATOM     23  S   UNL     1       1.931  -7.073   4.583  0.00  0.00    -0.081 S 
BRANCH  23  24
ATOM     24  C   UNL     1       1.552  -8.791   4.142  0.00  0.00    +0.112 C 
BRANCH  24  25
ATOM     25  C   UNL     1       2.244  -9.721   5.105  0.00  0.00    -0.037 A 
ATOM     26  C   UNL     1       3.523 -10.171   4.833  0.00  0.00    +0.006 A 
ATOM     27  C   UNL     1       4.158 -11.023   5.716  0.00  0.00    +0.020 A 
ATOM     28  C   UNL     1       3.514 -11.427   6.872  0.00  0.00    +0.041 A 
ATOM     29  C   UNL     1       2.234 -10.977   7.143  0.00  0.00    +0.020 A 
ATOM     30  C   UNL     1       1.602 -10.120   6.263  0.00  0.00    +0.006 A 
ATOM     31 CL   UNL     1       4.311 -12.499   7.981  0.00  0.00    -0.084 Cl
ENDBRANCH  24  25
ENDBRANCH  23  24
ENDBRANCH   4  23
TORSDOF 8
