REMARK  Name = ZINC36518360
REMARK  25 active torsions:
REMARK  status: ('A' for Active; 'I' for Inactive)
REMARK    1  A    between atoms: C_1  and  C_2
REMARK    2  A    between atoms: C_2  and  C_3
REMARK    3  A    between atoms: C_3  and  C_4
REMARK    4  A    between atoms: C_4  and  C_5
REMARK    5  A    between atoms: C_5  and  C_6
REMARK    6  A    between atoms: C_6  and  N_7
REMARK    7  A    between atoms: N_7  and  C_8
REMARK    8  A    between atoms: C_8  and  C_10
REMARK    9  A    between atoms: C_8  and  C_15
REMARK   10  A    between atoms: C_11  and  C_12
REMARK   11  A    between atoms: C_12  and  C_13
REMARK   12  A    between atoms: C_13  and  C_14
REMARK   13  A    between atoms: N_17  and  C_18
REMARK   14  A    between atoms: C_18  and  C_19
REMARK   15  A    between atoms: C_18  and  C_20
REMARK   16  A    between atoms: C_18  and  C_21
REMARK   17  A    between atoms: C_21  and  C_22
REMARK   18  A    between atoms: C_22  and  C_23
REMARK   19  A    between atoms: C_22  and  C_24
REMARK   20  A    between atoms: C_22  and  C_25
REMARK   21  A    between atoms: C_26  and  C_28
REMARK   22  A    between atoms: C_28  and  C_29
REMARK   23  A    between atoms: C_29  and  C_30
REMARK   24  A    between atoms: C_30  and  C_31
REMARK   25  A    between atoms: C_31  and  C_32
REMARK                            x       y       z     vdW  Elec       q    Type
REMARK                         _______ _______ _______ _____ _____    ______ ____
ROOT
ATOM      1  C   UNL     1      -3.785  -4.149  -3.689  0.00  0.00    +0.185 C 
ENDROOT
BRANCH   1   2
ATOM      2  C   UNL     1      -3.200  -5.449  -4.178  0.00  0.00    +0.238 C 
ATOM      3  O   UNL     1      -2.060  -5.747  -3.892  0.00  0.00    -0.273 OA
ATOM      4  N   UNL     1      -3.945  -6.282  -4.933  0.00  0.00    -0.308 N 
ATOM      5  H   UNL     1      -4.857  -6.044  -5.162  0.00  0.00    +0.149 HD
BRANCH   4   6
ATOM      6  C   UNL     1      -3.376  -7.546  -5.408  0.00  0.00    +0.030 C 
ATOM      7  C   UNL     1      -2.101  -7.263  -6.205  0.00  0.00    +0.031 C 
ATOM      8  C   UNL     1      -3.042  -8.437  -4.210  0.00  0.00    +0.031 C 
BRANCH   6   9
ATOM      9  C   UNL     1      -4.392  -8.257  -6.305  0.00  0.00    +0.031 C 
BRANCH   9  10
ATOM     10  C   UNL     1      -5.586  -8.709  -5.463  0.00  0.00    -0.036 C 
ATOM     11  C   UNL     1      -6.116  -7.526  -4.651  0.00  0.00    +0.010 C 
ATOM     12  C   UNL     1      -6.691  -9.230  -6.385  0.00  0.00    +0.010 C 
ATOM     13  C   UNL     1      -5.147  -9.825  -4.513  0.00  0.00    +0.010 C 
ENDBRANCH   9  10
ENDBRANCH   6   9
ENDBRANCH   4   6
ENDBRANCH   1   2
BRANCH   1  14
ATOM     14  N   UNL     1      -2.785  -3.431  -2.897  0.00  0.00    -0.286 N 
ATOM     15  C   UNL     1      -3.035  -3.131  -1.607  0.00  0.00    +0.216 C 
ATOM     16  O   UNL     1      -4.090  -3.455  -1.103  0.00  0.00    -0.276 OA
BRANCH  14  17
ATOM     17  C   UNL     1      -1.511  -3.039  -3.506  0.00  0.00    +0.109 C 
BRANCH  17  18
ATOM     18  C   UNL     1      -1.648  -1.646  -4.124  0.00  0.00    +0.019 C 
BRANCH  18  19
ATOM     19  C   UNL     1      -0.318  -1.237  -4.760  0.00  0.00    +0.002 C 
BRANCH  19  20
ATOM     20  C   UNL     1      -0.456   0.156  -5.377  0.00  0.00    -0.000 C 
BRANCH  20  22
ATOM     21  C   UNL     1       0.737   1.958  -6.631  0.00  0.00    +0.004 C 
ATOM     22  C   UNL     1       0.875   0.565  -6.013  0.00  0.00    -0.003 C 
ENDBRANCH  20  22
ENDBRANCH  19  20
ENDBRANCH  18  19
ENDBRANCH  17  18
ENDBRANCH  14  17
BRANCH  15  23
ATOM     23  C   UNL     1      -2.006  -2.392  -0.792  0.00  0.00    +0.096 C 
BRANCH  23  24
ATOM     24  C   UNL     1      -2.537  -2.179   0.628  0.00  0.00    +0.009 C 
BRANCH  24  25
ATOM     25  C   UNL     1      -1.491  -1.428   1.456  0.00  0.00    +0.000 C 
BRANCH  25  26
ATOM     26  C   UNL     1      -2.022  -1.215   2.875  0.00  0.00    -0.003 C 
ATOM     27  C   UNL     1      -0.977  -0.465   3.703  0.00  0.00    +0.004 C 
ENDBRANCH  25  26
ENDBRANCH  24  25
ENDBRANCH  23  24
ENDBRANCH  15  23
ENDBRANCH   1  14
BRANCH   1  28
ATOM     28  C   UNL     1      -4.191  -3.306  -4.870  0.00  0.00    +0.000 C 
ATOM     29  C   UNL     1      -5.418  -2.858  -4.965  0.00  0.00    -0.029 C 
BRANCH  29  30
ATOM     30  C   UNL     1      -5.824  -2.014  -6.146  0.00  0.00    +0.027 C 
BRANCH  30  31
ATOM     31  C   UNL     1      -7.038  -2.645  -6.831  0.00  0.00    +0.001 C 
ATOM     32  C   UNL     1      -7.450  -1.789  -8.030  0.00  0.00    +0.004 C 
ENDBRANCH  30  31
ENDBRANCH  29  30
ENDBRANCH   1  28
TORSDOF 17
