REMARK  Name = ZINC45471253
REMARK  10 active torsions:
REMARK  status: ('A' for Active; 'I' for Inactive)
REMARK    1  A    between atoms: C_1  and  C_2
REMARK    2  A    between atoms: C_2  and  O_3
REMARK    3  A    between atoms: O_3  and  C_4
REMARK    4  A    between atoms: C_4  and  C_6
REMARK    5  A    between atoms: C_10  and  N_11
REMARK    6  A    between atoms: C_12  and  C_14
REMARK    7  A    between atoms: C_14  and  N_15
REMARK    8  A    between atoms: C_17  and  C_26
REMARK    9  A    between atoms: N_28  and  C_29
REMARK   10  A    between atoms: C_31  and  C_35
REMARK                            x       y       z     vdW  Elec       q    Type
REMARK                         _______ _______ _______ _____ _____    ______ ____
ROOT
ATOM      1  N   UNL     1      -3.033  -2.524   2.498  0.00  0.00    -0.278 N 
ATOM      2  C   UNL     1      -3.808  -2.867   3.546  0.00  0.00    +0.235 C 
ATOM      3  O   UNL     1      -4.910  -3.337   3.357  0.00  0.00    -0.274 OA
ATOM      4  H   UNL     1      -2.152  -2.147   2.650  0.00  0.00    +0.155 HD
ENDROOT
BRANCH   1   9
ATOM      5  C   UNL     1      -2.842  -2.416   0.016  0.00  0.00    +0.091 A 
ATOM      6  C   UNL     1      -3.548  -2.714  -1.219  0.00  0.00    -0.021 A 
ATOM      7  C   UNL     1      -4.777  -3.242  -1.039  0.00  0.00    -0.004 A 
ATOM      8  S   UNL     1      -4.974  -3.335   0.716  0.00  0.00    -0.077 S 
ATOM      9  C   UNL     1      -3.495  -2.708   1.205  0.00  0.00    +0.086 A 
ATOM     10  C   UNL     1      -5.745  -3.651  -2.106  0.00  0.00    +0.046 C 
ATOM     11  C   UNL     1      -5.287  -3.033  -3.435  0.00  0.00    -0.009 C 
ATOM     12  C   UNL     1      -3.790  -3.300  -3.616  0.00  0.00    +0.008 C 
ATOM     13  C   UNL     1      -2.988  -2.468  -2.612  0.00  0.00    +0.037 C 
ATOM     14  C   UNL     1      -6.066  -3.666  -4.590  0.00  0.00    +0.008 C 
BRANCH   5  15
ATOM     15  C   UNL     1      -1.497  -1.838   0.006  0.00  0.00    +0.342 C 
ATOM     16  O   UNL     1      -0.523  -2.566  -0.007  0.00  0.00    -0.245 OA
BRANCH  15  17
ATOM     17  O   UNL     1      -1.339  -0.499   0.012  0.00  0.00    -0.461 OA
BRANCH  17  19
ATOM     18  C   UNL     1      -0.019   1.526   0.010  0.00  0.00    +0.048 C 
ATOM     19  C   UNL     1       0.002  -0.004   0.002  0.00  0.00    +0.229 C 
ENDBRANCH  17  19
ENDBRANCH  15  17
ENDBRANCH   5  15
ENDBRANCH   1   9
BRANCH   2  20
ATOM     20  C   UNL     1      -3.306  -2.666   4.953  0.00  0.00    +0.201 C 
BRANCH  20  21
ATOM     21  N   UNL     1      -4.327  -3.113   5.904  0.00  0.00    -0.314 N 
ATOM     22  C   UNL     1      -5.358  -2.189   6.406  0.00  0.00    +0.160 C 
ATOM     23  C   UNL     1      -6.693  -2.948   6.420  0.00  0.00    +0.276 C 
ATOM     24  O   UNL     1      -6.556  -4.106   7.247  0.00  0.00    -0.476 OA
ATOM     25  C   UNL     1      -5.482  -4.912   7.036  0.00  0.00    +0.143 A 
ATOM     26  C   UNL     1      -4.359  -4.439   6.364  0.00  0.00    +0.073 A 
ATOM     27  C   UNL     1      -3.273  -5.274   6.155  0.00  0.00    +0.027 A 
ATOM     28  C   UNL     1      -3.310  -6.580   6.608  0.00  0.00    +0.002 A 
ATOM     29  C   UNL     1      -4.429  -7.052   7.268  0.00  0.00    +0.004 A 
ATOM     30  C   UNL     1      -5.508  -6.221   7.489  0.00  0.00    +0.047 A 
BRANCH  23  31
ATOM     31  C   UNL     1      -7.775  -2.055   6.971  0.00  0.00    +0.255 C 
ATOM     32  O   UNL     1      -8.319  -2.337   8.017  0.00  0.00    -0.272 OA
ATOM     33  N   UNL     1      -8.138  -0.944   6.300  0.00  0.00    -0.315 N 
ATOM     34  C   UNL     1      -9.191  -0.076   6.835  0.00  0.00    +0.128 C 
ATOM     35  H   UNL     1      -7.703  -0.719   5.463  0.00  0.00    +0.148 HD
ENDBRANCH  23  31
ENDBRANCH  20  21
ENDBRANCH   2  20
TORSDOF 7
