REMARK  Name = ZINC40247365
REMARK  4 active torsions:
REMARK  status: ('A' for Active; 'I' for Inactive)
REMARK    1  A    between atoms: C_1  and  C_2
REMARK    2  A    between atoms: C_5  and  C_7
REMARK    3  A    between atoms: C_7  and  C_9
REMARK    4  A    between atoms: C_7  and  O_19
REMARK                            x       y       z     vdW  Elec       q    Type
REMARK                         _______ _______ _______ _____ _____    ______ ____
ROOT
ATOM      1  C   UNL     1       2.101  -3.567   1.389  0.00  0.00    -0.008 A 
ATOM      2  C   UNL     1       3.088  -2.819   2.005  0.00  0.00    +0.010 A 
ATOM      3  C   UNL     1       3.474  -3.112   3.299  0.00  0.00    +0.050 A 
ATOM      4  C   UNL     1       2.872  -4.157   3.984  0.00  0.00    +0.162 A 
ATOM      5  C   UNL     1       1.879  -4.907   3.366  0.00  0.00    +0.162 A 
ATOM      6  C   UNL     1       1.493  -4.605   2.069  0.00  0.00    +0.056 A 
ATOM      7  O   UNL     1       1.269  -5.931   4.023  0.00  0.00    -0.485 OA
ATOM      8  C   UNL     1       1.935  -6.437   5.186  0.00  0.00    +0.270 C 
ATOM      9  C   UNL     1       2.382  -5.244   6.041  0.00  0.00    +0.270 C 
ATOM     10  O   UNL     1       3.266  -4.436   5.257  0.00  0.00    -0.485 OA
ENDROOT
BRANCH   1  11
ATOM     11  C   UNL     1       1.684  -3.245  -0.023  0.00  0.00    +0.210 C 
BRANCH  11  16
ATOM     12  C   UNL     1      -0.018   1.503   0.010  0.00  0.00    +0.086 C 
ATOM     13  C   UNL     1       0.002  -0.004   0.002  0.00  0.00    +0.102 A 
ATOM     14  C   UNL     1      -1.078  -0.805   0.003  0.00  0.00    +0.045 A 
ATOM     15  C   UNL     1      -0.601  -2.136  -0.007  0.00  0.00    +0.048 A 
ATOM     16  C   UNL     1       0.742  -2.069  -0.013  0.00  0.00    +0.138 A 
ATOM     17  O   UNL     1       1.102  -0.775  -0.013  0.00  0.00    -0.462 OA
ENDBRANCH  11  16
BRANCH  11  18
ATOM     18  O   UNL     1       2.840  -2.924  -0.799  0.00  0.00    -0.379 OA
ATOM     19  H   UNL     1       3.337  -2.163  -0.468  0.00  0.00    +0.211 HD
ENDBRANCH  11  18
ENDBRANCH   1  11
TORSDOF 3
