REMARK  Name = ZINC53167323
REMARK  7 active torsions:
REMARK  status: ('A' for Active; 'I' for Inactive)
REMARK    1  A    between atoms: C_1  and  C_2
REMARK    2  A    between atoms: C_4  and  C_8
REMARK    3  A    between atoms: C_5  and  C_7
REMARK    4  A    between atoms: C_8  and  C_10
REMARK    5  A    between atoms: C_8  and  N_11
REMARK    6  A    between atoms: N_11  and  C_12
REMARK    7  A    between atoms: C_13  and  N_20
REMARK                            x       y       z     vdW  Elec       q    Type
REMARK                         _______ _______ _______ _____ _____    ______ ____
ROOT
ATOM      1  N   UNL     1      -2.752  -3.099  -0.586  0.00  0.00    -0.333 N 
ATOM      2  H   UNL     1      -3.105  -2.196  -0.558  0.00  0.00    +0.147 HD
ENDROOT
BRANCH   1   3
ATOM      3  C   UNL     1      -3.501  -4.126  -1.177  0.00  0.00    +0.087 A 
ATOM      4  C   UNL     1      -4.586  -3.817  -1.997  0.00  0.00    +0.049 A 
ATOM      5  C   UNL     1      -5.324  -4.836  -2.579  0.00  0.00    +0.027 A 
ATOM      6  C   UNL     1      -4.984  -6.157  -2.346  0.00  0.00    +0.043 A 
ATOM      7  C   UNL     1      -3.909  -6.466  -1.532  0.00  0.00    +0.160 A 
ATOM      8  C   UNL     1      -3.162  -5.453  -0.951  0.00  0.00    +0.181 A 
ATOM      9  F   UNL     1      -2.109  -5.757  -0.162  0.00  0.00    -0.200 F 
ATOM     10  F   UNL     1      -3.583  -7.758  -1.308  0.00  0.00    -0.202 F 
BRANCH   4  11
ATOM     11  N   UNL     1      -4.929  -2.479  -2.232  0.00  0.00    -0.356 N 
ATOM     12  H   UNL     1      -4.412  -1.766  -1.824  0.00  0.00    +0.142 HD
ATOM     13  H   UNL     1      -5.684  -2.265  -2.803  0.00  0.00    +0.142 HD
ENDBRANCH   4  11
ENDBRANCH   1   3
BRANCH   1  14
ATOM     14  C   UNL     1      -1.437  -3.390  -0.009  0.00  0.00    +0.101 C 
ATOM     15  C   UNL     1      -1.609  -3.892   1.426  0.00  0.00    +0.033 C 
BRANCH  14  19
ATOM     16  C   UNL     1      -0.018   1.503   0.010  0.00  0.00    +0.086 C 
ATOM     17  C   UNL     1       0.002  -0.004   0.002  0.00  0.00    +0.103 A 
ATOM     18  C   UNL     1      -1.078  -0.805   0.003  0.00  0.00    +0.050 A 
ATOM     19  C   UNL     1      -0.601  -2.136  -0.007  0.00  0.00    +0.013 A 
ATOM     20  C   UNL     1       0.742  -2.069  -0.013  0.00  0.00    +0.107 A 
ATOM     21  O   UNL     1       1.102  -0.775  -0.013  0.00  0.00    -0.465 OA
ATOM     22  C   UNL     1       1.684  -3.245  -0.023  0.00  0.00    +0.086 C 
ENDBRANCH  14  19
ENDBRANCH   1  14
TORSDOF 4
