REMARK  Name = ZINC58198322
REMARK  6 active torsions:
REMARK  status: ('A' for Active; 'I' for Inactive)
REMARK    1  A    between atoms: C_1  and  C_2
REMARK    2  A    between atoms: C_2  and  N_3
REMARK    3  A    between atoms: N_3  and  C_4
REMARK    4  A    between atoms: C_4  and  C_5
REMARK    5  A    between atoms: C_9  and  N_12
REMARK    6  A    between atoms: C_25  and  C_27
REMARK                            x       y       z     vdW  Elec       q    Type
REMARK                         _______ _______ _______ _____ _____    ______ ____
ROOT
ATOM      1  N   UNL     1       6.159  -1.373   1.052  0.00  0.00    -0.268 N 
ATOM      2  C   UNL     1       6.765  -1.727   2.203  0.00  0.00    +0.307 C 
ATOM      3  O   UNL     1       6.102  -1.938   3.200  0.00  0.00    -0.252 OA
ATOM      4  N   UNL     1       8.107  -1.847   2.248  0.00  0.00    -0.271 N 
ATOM      5  C   UNL     1       8.899  -2.228   3.420  0.00  0.00    +0.082 C 
ATOM      6  C   UNL     1       8.272  -1.790   4.724  0.00  0.00    +0.023 C 
ATOM      7  C   UNL     1       8.255  -0.266   4.846  0.00  0.00    +0.002 C 
ATOM      8  C   UNL     1       9.698   0.243   4.767  0.00  0.00    +0.000 C 
ATOM      9  C   UNL     1      10.266  -0.107   3.394  0.00  0.00    +0.005 C 
ATOM     10  C   UNL     1      10.292  -1.610   3.199  0.00  0.00    +0.012 C 
ATOM     11  C   UNL     1      10.466  -1.842   1.667  0.00  0.00    +0.037 C 
ATOM     12  C   UNL     1       9.035  -1.625   1.125  0.00  0.00    +0.164 C 
ATOM     13  H   UNL     1       6.680  -1.268   0.242  0.00  0.00    +0.156 HD
ENDROOT
BRANCH   1  18
ATOM     14  N   UNL     1       0.726  -0.421   0.862  0.00  0.00    -0.317 N 
ATOM     15  C   UNL     1       2.093  -0.678   0.925  0.00  0.00    +0.099 A 
ATOM     16  C   UNL     1       2.566  -1.677   1.770  0.00  0.00    +0.043 A 
ATOM     17  C   UNL     1       3.925  -1.924   1.826  0.00  0.00    +0.028 A 
ATOM     18  C   UNL     1       4.773  -1.158   1.028  0.00  0.00    +0.051 A 
ATOM     19  C   UNL     1       4.230  -0.179   0.210  0.00  0.00    +0.107 A 
ATOM     20  N   UNL     1       2.927   0.026   0.178  0.00  0.00    -0.348 N 
ATOM     21  H   UNL     1       2.571   0.715  -0.406  0.00  0.00    +0.167 HD
BRANCH  14  23
ATOM     22  C   UNL     1      -0.661  -2.435   0.912  0.00  0.00    +0.024 C 
ATOM     23  C   UNL     1      -0.204  -1.197   1.686  0.00  0.00    +0.103 C 
ENDBRANCH  14  23
BRANCH  14  24
ATOM     24  C   UNL     1       0.218   0.624  -0.029  0.00  0.00    +0.103 C 
ATOM     25  C   UNL     1       0.174   1.957   0.721  0.00  0.00    +0.024 C 
ENDBRANCH  14  24
ENDBRANCH   1  18
BRANCH  12  26
ATOM     26  C   UNL     1       8.892  -0.215   0.612  0.00  0.00    +0.231 C 
ATOM     27  O   UNL     1       8.171   0.570   1.191  0.00  0.00    -0.274 OA
ATOM     28  N   UNL     1       9.565   0.173  -0.489  0.00  0.00    -0.328 N 
ATOM     29  H   UNL     1      10.141  -0.455  -0.952  0.00  0.00    +0.145 HD
ATOM     30  H   UNL     1       9.472   1.081  -0.819  0.00  0.00    +0.145 HD
ENDBRANCH  12  26
TORSDOF 4
