REMARK  Name = ZINC39637212
REMARK  9 active torsions:
REMARK  status: ('A' for Active; 'I' for Inactive)
REMARK    1  A    between atoms: C_1  and  C_2
REMARK    2  A    between atoms: C_7  and  N_12
REMARK    3  A    between atoms: C_9  and  C_11
REMARK    4  A    between atoms: C_13  and  C_15
REMARK    5  A    between atoms: C_26  and  C_28
REMARK    6  A    between atoms: C_31  and  O_36
REMARK    7  A    between atoms: C_33  and  O_34
REMARK    8  A    between atoms: O_34  and  C_35
REMARK    9  A    between atoms: O_36  and  C_37
REMARK                            x       y       z     vdW  Elec       q    Type
REMARK                         _______ _______ _______ _____ _____    ______ ____
ROOT
ATOM      1  C   UNL     1       1.941  -4.249   4.122  0.00  0.00    +0.100 C 
ATOM      2  C   UNL     1       3.433  -4.485   3.800  0.00  0.00    +0.121 C 
ATOM      3  N   UNL     1       3.796  -5.698   4.571  0.00  0.00    -0.296 N 
ATOM      4  C   UNL     1       2.612  -6.582   4.446  0.00  0.00    +0.115 C 
ATOM      5  C   UNL     1       1.405  -5.628   4.544  0.00  0.00    -0.004 C 
ATOM      6  C   UNL     1       0.298  -6.078   3.596  0.00  0.00    -0.010 C 
ATOM      7  C   UNL     1      -0.258  -7.423   4.070  0.00  0.00    -0.082 C 
ATOM      8  N   UNL     1      -0.782  -7.285   5.434  0.00  0.00    +0.379 N 
ATOM      9  C   UNL     1       0.308  -6.942   6.356  0.00  0.00    -0.082 C 
ATOM     10  C   UNL     1       0.888  -5.577   5.979  0.00  0.00    -0.010 C 
ATOM     11  C   UNL     1       4.942  -5.941   5.237  0.00  0.00    +0.250 C 
ATOM     12  O   UNL     1       5.787  -5.072   5.330  0.00  0.00    -0.270 OA
ATOM     13  H   UNL     1      -1.479  -6.555   5.453  0.00  0.00    -0.086 HD
ATOM     14  H   UNL     1      -1.203  -8.156   5.721  0.00  0.00    -0.086 HD
ENDROOT
BRANCH  11  15
ATOM     15  C   UNL     1       5.171  -7.261   5.850  0.00  0.00    +0.079 A 
ATOM     16  C   UNL     1       4.690  -8.418   5.228  0.00  0.00    +0.020 A 
ATOM     17  C   UNL     1       4.906  -9.648   5.804  0.00  0.00    +0.046 A 
ATOM     18  C   UNL     1       5.602  -9.747   7.005  0.00  0.00    +0.124 A 
ATOM     19  C   UNL     1       6.083  -8.607   7.631  0.00  0.00    +0.092 A 
ATOM     20  C   UNL     1       5.877  -7.363   7.058  0.00  0.00    +0.136 A 
BRANCH  20  21
ATOM     21  O   UNL     1       6.351  -6.247   7.666  0.00  0.00    -0.494 OA
ATOM     22  C   UNL     1       7.061  -6.428   8.893  0.00  0.00    +0.277 C 
ENDBRANCH  20  21
BRANCH  18  23
ATOM     23  O   UNL     1       5.811 -10.965   7.567  0.00  0.00    -0.495 OA
ATOM     24  C   UNL     1       5.288 -12.098   6.871  0.00  0.00    +0.277 C 
ENDBRANCH  18  23
ENDBRANCH  11  15
BRANCH   1  26
ATOM     25  N   UNL     1       0.042  -3.099   3.031  0.00  0.00    -0.312 N 
ATOM     26  C   UNL     1       1.212  -3.755   2.899  0.00  0.00    +0.218 C 
ATOM     27  O   UNL     1       1.678  -3.948   1.796  0.00  0.00    -0.275 OA
ATOM     28  H   UNL     1      -0.331  -2.945   3.913  0.00  0.00    +0.149 HD
BRANCH  25  34
ATOM     29  C   UNL     1      -4.392  -1.867   1.224  0.00  0.00    +0.008 C 
ATOM     30  C   UNL     1      -2.900  -1.992   0.912  0.00  0.00    -0.009 C 
ATOM     31  C   UNL     1      -2.347  -0.625   0.507  0.00  0.00    +0.003 C 
ATOM     32  C   UNL     1      -0.854  -0.750   0.195  0.00  0.00    +0.002 C 
ATOM     33  C   UNL     1      -0.114  -1.251   1.437  0.00  0.00    +0.022 C 
ATOM     34  C   UNL     1      -0.667  -2.619   1.842  0.00  0.00    +0.076 C 
ATOM     35  C   UNL     1      -2.160  -2.494   2.154  0.00  0.00    +0.009 C 
ATOM     36  C   UNL     1      -2.712  -3.862   2.559  0.00  0.00    +0.009 C 
ENDBRANCH  25  34
ENDBRANCH   1  26
TORSDOF 5
