REMARK  Name = ZINC58153946
REMARK  6 active torsions:
REMARK  status: ('A' for Active; 'I' for Inactive)
REMARK    1  A    between atoms: C_1  and  C_2
REMARK    2  A    between atoms: C_2  and  C_4
REMARK    3  A    between atoms: C_2  and  O_12
REMARK    4  A    between atoms: O_12  and  C_13
REMARK    5  A    between atoms: C_13  and  C_15
REMARK    6  A    between atoms: C_17  and  C_25
REMARK                            x       y       z     vdW  Elec       q    Type
REMARK                         _______ _______ _______ _____ _____    ______ ____
ROOT
ATOM      1  C   UNL     1       2.279  -1.493  -2.045  0.00  0.00    +0.070 A 
ATOM      2  C   UNL     1       1.766  -2.096  -3.185  0.00  0.00    +0.044 A 
ATOM      3  C   UNL     1       2.643  -2.705  -4.097  0.00  0.00    +0.073 A 
ATOM      4  N   UNL     1       3.947  -2.728  -3.910  0.00  0.00    -0.247 NA
ATOM      5  C   UNL     1       4.525  -2.173  -2.844  0.00  0.00    +0.072 A 
ATOM      6  C   UNL     1       3.731  -1.525  -1.864  0.00  0.00    +0.014 A 
ATOM      7  C   UNL     1       4.342  -0.940  -0.750  0.00  0.00    +0.011 A 
ATOM      8  C   UNL     1       5.698  -0.993  -0.620  0.00  0.00    +0.001 A 
ATOM      9  C   UNL     1       6.484  -1.622  -1.582  0.00  0.00    +0.002 A 
ATOM     10  C   UNL     1       5.921  -2.212  -2.672  0.00  0.00    +0.028 A 
ENDROOT
BRANCH   3  11
ATOM     11  C   UNL     1       2.084  -3.345  -5.308  0.00  0.00    +0.008 A 
ATOM     12  C   UNL     1       1.181  -2.663  -6.106  0.00  0.00    +0.010 A 
ATOM     13  C   UNL     1       0.652  -3.256  -7.246  0.00  0.00    +0.001 A 
ATOM     14  C   UNL     1       1.003  -4.522  -7.609  0.00  0.00    +0.008 A 
ATOM     15  C   UNL     1       1.916  -5.251  -6.828  0.00  0.00    -0.017 A 
ATOM     16  C   UNL     1       2.470  -4.659  -5.667  0.00  0.00    -0.009 A 
ATOM     17  C   UNL     1       3.384  -5.386  -4.891  0.00  0.00    +0.009 A 
ATOM     18  C   UNL     1       3.732  -6.648  -5.266  0.00  0.00    +0.001 A 
ATOM     19  C   UNL     1       3.193  -7.230  -6.411  0.00  0.00    +0.001 A 
ATOM     20  C   UNL     1       2.295  -6.558  -7.181  0.00  0.00    +0.008 A 
ENDBRANCH   3  11
BRANCH   1  21
ATOM     21  C   UNL     1       1.395  -0.840  -1.057  0.00  0.00    +0.341 C 
ATOM     22  O   UNL     1       1.858  -0.411  -0.019  0.00  0.00    -0.245 OA
BRANCH  21  23
ATOM     23  O   UNL     1       0.077  -0.719  -1.308  0.00  0.00    -0.449 OA
BRANCH  23  25
ATOM     24  C   UNL     1      -0.764   1.427  -0.585  0.00  0.00    +0.062 C 
ATOM     25  C   UNL     1      -0.717  -0.077  -0.309  0.00  0.00    +0.259 C 
BRANCH  25  26
ATOM     26  C   UNL     1      -2.116  -0.638  -0.343  0.00  0.00    +0.264 C 
ATOM     27  O   UNL     1      -2.473  -1.320  -1.279  0.00  0.00    -0.271 OA
ATOM     28  N   UNL     1      -2.969  -0.380   0.668  0.00  0.00    -0.221 N 
ATOM     29  C   UNL     1      -2.700   0.514   1.804  0.00  0.00    +0.137 C 
ATOM     30  C   UNL     1      -3.990   0.443   2.644  0.00  0.00    +0.125 C 
ATOM     31  N   UNL     1      -4.849  -0.484   1.892  0.00  0.00    -0.297 N 
ATOM     32  C   UNL     1      -4.200  -0.893   0.794  0.00  0.00    +0.309 C 
ATOM     33  O   UNL     1      -4.683  -1.664  -0.012  0.00  0.00    -0.252 OA
ATOM     34  H   UNL     1      -5.745  -0.753   2.149  0.00  0.00    +0.150 HD
ENDBRANCH  25  26
ENDBRANCH  23  25
ENDBRANCH  21  23
ENDBRANCH   1  21
TORSDOF 5
