REMARK  Name = ZINC35331757
REMARK  16 active torsions:
REMARK  status: ('A' for Active; 'I' for Inactive)
REMARK    1  A    between atoms: C_1  and  C_2
REMARK    2  A    between atoms: C_2  and  C_3
REMARK    3  A    between atoms: C_3  and  C_4
REMARK    4  A    between atoms: C_4  and  C_5
REMARK    5  A    between atoms: C_5  and  N_6
REMARK    6  A    between atoms: N_6  and  C_7
REMARK    7  A    between atoms: C_7  and  C_8
REMARK    8  A    between atoms: C_10  and  C_13
REMARK    9  A    between atoms: C_13  and  O_15
REMARK   10  A    between atoms: O_15  and  C_16
REMARK   11  A    between atoms: C_17  and  C_19
REMARK   12  A    between atoms: C_19  and  C_20
REMARK   13  A    between atoms: C_20  and  C_21
REMARK   14  A    between atoms: C_21  and  O_23
REMARK   15  A    between atoms: O_23  and  C_24
REMARK   16  A    between atoms: C_24  and  C_25
REMARK                            x       y       z     vdW  Elec       q    Type
REMARK                         _______ _______ _______ _____ _____    ______ ____
ROOT
ATOM      1  N   UNL     1      -2.828  -4.058   0.007  0.00  0.00    -0.295 N 
ATOM      2  C   UNL     1      -2.830  -4.726  -1.164  0.00  0.00    +0.216 C 
ATOM      3  O   UNL     1      -2.814  -5.938  -1.170  0.00  0.00    -0.276 OA
ENDROOT
BRANCH   1   4
ATOM      4  C   UNL     1      -2.848  -2.593   0.015  0.00  0.00    +0.108 C 
BRANCH   4   5
ATOM      5  C   UNL     1      -1.413  -2.063   0.004  0.00  0.00    +0.019 C 
BRANCH   5   6
ATOM      6  C   UNL     1      -1.433  -0.534   0.013  0.00  0.00    +0.001 C 
BRANCH   6   8
ATOM      7  C   UNL     1      -0.019   1.526   0.010  0.00  0.00    +0.004 C 
ATOM      8  C   UNL     1       0.002  -0.004   0.002  0.00  0.00    -0.003 C 
ENDBRANCH   6   8
ENDBRANCH   5   6
ENDBRANCH   4   5
ENDBRANCH   1   4
BRANCH   1   9
ATOM      9  C   UNL     1      -2.806  -4.797   1.272  0.00  0.00    +0.170 C 
BRANCH   9  10
ATOM     10  C   UNL     1      -4.219  -5.070   1.719  0.00  0.00    +0.096 A 
ATOM     11  N   UNL     1      -4.965  -6.105   1.444  0.00  0.00    -0.236 NA
ATOM     12  C   UNL     1      -6.202  -6.148   1.948  0.00  0.00    +0.155 A 
ATOM     13  C   UNL     1      -6.575  -5.080   2.720  0.00  0.00    +0.082 A 
ATOM     14  S   UNL     1      -5.199  -4.117   2.693  0.00  0.00    -0.078 S 
BRANCH  12  15
ATOM     15  C   UNL     1      -7.111  -7.276   1.688  0.00  0.00    +0.358 C 
ATOM     16  O   UNL     1      -8.229  -7.278   2.164  0.00  0.00    -0.243 OA
BRANCH  15  17
ATOM     17  O   UNL     1      -6.702  -8.307   0.921  0.00  0.00    -0.463 OA
ATOM     18  C   UNL     1      -7.636  -9.368   0.710  0.00  0.00    +0.280 C 
ENDBRANCH  15  17
ENDBRANCH  12  15
ENDBRANCH   9  10
ENDBRANCH   1   9
BRANCH   2  19
ATOM     19  C   UNL     1      -2.853  -3.965  -2.464  0.00  0.00    +0.107 C 
BRANCH  19  20
ATOM     20  C   UNL     1      -2.850  -4.953  -3.633  0.00  0.00    +0.130 C 
BRANCH  20  21
ATOM     21  C   UNL     1      -2.873  -4.192  -4.934  0.00  0.00    +0.308 C 
ATOM     22  O   UNL     1      -2.889  -2.984  -4.927  0.00  0.00    -0.251 OA
BRANCH  21  23
ATOM     23  O   UNL     1      -2.875  -4.857  -6.100  0.00  0.00    -0.465 OA
BRANCH  23  24
ATOM     24  C   UNL     1      -2.897  -4.073  -7.294  0.00  0.00    +0.229 C 
ATOM     25  C   UNL     1      -2.896  -4.998  -8.512  0.00  0.00    +0.048 C 
ENDBRANCH  23  24
ENDBRANCH  21  23
ENDBRANCH  20  21
ENDBRANCH  19  20
ENDBRANCH   2  19
TORSDOF 13
