REMARK  Name = ZINC05511257
REMARK  8 active torsions:
REMARK  status: ('A' for Active; 'I' for Inactive)
REMARK    1  A    between atoms: C_1  and  O_2
REMARK    2  A    between atoms: O_2  and  C_3
REMARK    3  A    between atoms: C_3  and  C_5
REMARK    4  A    between atoms: C_9  and  N_10
REMARK    5  A    between atoms: C_11  and  C_12
REMARK    6  A    between atoms: C_14  and  N_19
REMARK    7  A    between atoms: C_17  and  O_18
REMARK    8  A    between atoms: N_20  and  C_21
REMARK                            x       y       z     vdW  Elec       q    Type
REMARK                         _______ _______ _______ _____ _____    ______ ____
ROOT
ATOM      1  C   UNL     1      -7.137   3.818   0.092  0.00  0.00    +0.037 A 
ATOM      2  C   UNL     1      -5.925   3.125   0.071  0.00  0.00    +0.042 A 
ATOM      3  C   UNL     1      -4.724   3.833   0.068  0.00  0.00    +0.087 A 
ATOM      4  C   UNL     1      -4.737   5.234   0.075  0.00  0.00    +0.033 A 
ATOM      5  C   UNL     1      -5.933   5.918   0.090  0.00  0.00    +0.048 A 
ATOM      6  C   UNL     1      -7.136   5.224   0.098  0.00  0.00    +0.126 A 
ENDROOT
BRANCH   1   8
ATOM      7  N   UNL     1      -9.541   3.734   0.114  0.00  0.00    -0.247 NA
ATOM      8  C   UNL     1      -8.407   3.082   0.100  0.00  0.00    +0.123 C 
BRANCH   7  13
ATOM      9  C   UNL     1     -12.015   3.553   0.136  0.00  0.00    +0.095 A 
ATOM     10  C   UNL     1     -13.090   2.629   0.140  0.00  0.00    -0.021 A 
ATOM     11  C   UNL     1     -12.767   1.319   0.134  0.00  0.00    -0.004 A 
ATOM     12  S   UNL     1     -10.989   1.295   0.107  0.00  0.00    -0.073 S 
ATOM     13  C   UNL     1     -10.709   3.057   0.121  0.00  0.00    +0.116 A 
ATOM     14  C   UNL     1     -13.983   0.434   0.145  0.00  0.00    +0.043 C 
ATOM     15  C   UNL     1     -15.134   1.361   0.594  0.00  0.00    +0.010 C 
ATOM     16  C   UNL     1     -14.617   2.743   0.147  0.00  0.00    +0.037 C 
BRANCH   9  17
ATOM     17  C   UNL     1     -12.269   4.996   0.145  0.00  0.00    +0.342 C 
ATOM     18  O   UNL     1     -12.383   5.600  -0.904  0.00  0.00    -0.245 OA
BRANCH  17  20
ATOM     19  C   UNL     1     -12.626   7.082   1.252  0.00  0.00    +0.280 C 
ATOM     20  O   UNL     1     -12.375   5.654   1.318  0.00  0.00    -0.464 OA
ENDBRANCH  17  20
ENDBRANCH   9  17
ENDBRANCH   7  13
ENDBRANCH   1   8
BRANCH   6  21
ATOM     21  O   UNL     1      -8.309   5.903   0.112  0.00  0.00    -0.506 OA
ATOM     22  H   UNL     1      -8.658   6.104  -0.767  0.00  0.00    +0.292 HD
ENDBRANCH   6  21
BRANCH   3  23
ATOM     23  N   UNL     1      -3.535   3.162   0.053  0.00  0.00    -0.149 NA
ATOM     24  N   UNL     1      -2.424   3.817   0.046  0.00  0.00    -0.149 NA
BRANCH  24  25
ATOM     25  C   UNL     1      -1.234   3.145   0.031  0.00  0.00    +0.086 A 
ATOM     26  C   UNL     1      -1.217   1.747   0.017  0.00  0.00    +0.029 A 
ATOM     27  C   UNL     1      -0.013   1.076   0.008  0.00  0.00    +0.002 A 
ATOM     28  C   UNL     1       1.177   1.782   0.000  0.00  0.00    +0.000 A 
ATOM     29  C   UNL     1       1.168   3.166   0.007  0.00  0.00    +0.002 A 
ATOM     30  C   UNL     1      -0.028   3.851   0.023  0.00  0.00    +0.029 A 
ENDBRANCH  24  25
ENDBRANCH   3  23
TORSDOF 7
