REMARK  Name = ZINC43633746
REMARK  3 active torsions:
REMARK  status: ('A' for Active; 'I' for Inactive)
REMARK    1  A    between atoms: C_1  and  C_2
REMARK    2  A    between atoms: C_2  and  C_3
REMARK    3  A    between atoms: C_15  and  C_18
REMARK                            x       y       z     vdW  Elec       q    Type
REMARK                         _______ _______ _______ _____ _____    ______ ____
ROOT
ATOM      1  C   UNL     1      -1.434  -0.531   0.018  0.00  0.00    +0.135 C 
ATOM      2  C   UNL     1      -1.415  -2.060   0.130  0.00  0.00    +0.141 C 
ATOM      3  N   UNL     1      -2.789  -2.556  -0.050  0.00  0.00    -0.281 N 
ATOM      4  C   UNL     1      -3.547  -2.084  -1.220  0.00  0.00    +0.137 C 
ATOM      5  C   UNL     1      -3.462  -0.554  -1.266  0.00  0.00    +0.179 C 
ATOM      6  O   UNL     1      -2.091  -0.155  -1.194  0.00  0.00    -0.373 OA
ATOM      7  C   UNL     1      -3.336  -3.417   0.830  0.00  0.00    +0.308 C 
ATOM      8  O   UNL     1      -2.665  -3.867   1.739  0.00  0.00    -0.252 OA
ATOM      9  N   UNL     1      -4.628  -3.781   0.703  0.00  0.00    -0.248 N 
ATOM     10  C   UNL     1      -5.223  -4.584   1.669  0.00  0.00    +0.166 A 
ATOM     11  N   UNL     1      -6.457  -5.037   1.708  0.00  0.00    -0.221 NA
ATOM     12  C   UNL     1      -6.873  -5.797   2.705  0.00  0.00    +0.153 A 
ATOM     13  C   UNL     1      -5.974  -6.084   3.678  0.00  0.00    +0.080 A 
ATOM     14  S   UNL     1      -4.536  -5.218   3.069  0.00  0.00    -0.060 S 
ATOM     15  H   UNL     1      -5.143  -3.482  -0.064  0.00  0.00    +0.158 HD
ENDROOT
BRANCH  12  16
ATOM     16  C   UNL     1      -8.285  -6.321   2.759  0.00  0.00    +0.435 C 
ATOM     17  F   UNL     1      -8.957  -5.971   1.583  0.00  0.00    -0.164 F 
ATOM     18  F   UNL     1      -8.261  -7.714   2.885  0.00  0.00    -0.164 F 
ATOM     19  F   UNL     1      -8.947  -5.764   3.859  0.00  0.00    -0.164 F 
ENDBRANCH  12  16
BRANCH   1  21
ATOM     20  C   UNL     1      -0.020   1.528   0.020  0.00  0.00    +0.006 C 
ATOM     21  C   UNL     1       0.001  -0.002   0.008  0.00  0.00    +0.030 C 
ENDBRANCH   1  21
TORSDOF 2
