REMARK  Name = ZINC01022359
REMARK  5 active torsions:
REMARK  status: ('A' for Active; 'I' for Inactive)
REMARK    1  A    between atoms: C_1  and  C_2
REMARK    2  A    between atoms: C_5  and  C_9
REMARK    3  A    between atoms: C_6  and  C_8
REMARK    4  A    between atoms: C_9  and  C_11
REMARK    5  A    between atoms: C_12  and  N_24
REMARK                            x       y       z     vdW  Elec       q    Type
REMARK                         _______ _______ _______ _____ _____    ______ ____
ROOT
ATOM      1  C   UNL     1       2.412   5.335   0.299  0.00  0.00    +0.083 A 
ATOM      2  C   UNL     1       3.450   6.246   0.280  0.00  0.00    +0.052 A 
ATOM      3  C   UNL     1       3.142   7.646   0.521  0.00  0.00    +0.029 A 
ATOM      4  C   UNL     1       4.019   8.755   0.555  0.00  0.00    +0.017 A 
ATOM      5  C   UNL     1       3.515  10.018   0.804  0.00  0.00    -0.025 A 
ATOM      6  C   UNL     1       2.160  10.192   1.016  0.00  0.00    +0.046 A 
ATOM      7  N   UNL     1       1.345   9.147   0.986  0.00  0.00    -0.244 NA
ATOM      8  C   UNL     1       1.776   7.930   0.754  0.00  0.00    +0.111 A 
ATOM      9  S   UNL     1       0.984   6.345   0.637  0.00  0.00    -0.064 S 
ATOM     10  C   UNL     1       1.549  11.544   1.277  0.00  0.00    +0.056 C 
ATOM     11  C   UNL     1       2.621  12.545   1.704  0.00  0.00    +0.006 C 
ATOM     12  C   UNL     1       3.763  12.497   0.681  0.00  0.00    +0.005 C 
ATOM     13  C   UNL     1       4.493  11.165   0.836  0.00  0.00    +0.037 C 
ENDROOT
BRANCH   2  14
ATOM     14  N   UNL     1       4.751   5.836   0.037  0.00  0.00    -0.356 N 
ATOM     15  H   UNL     1       4.943   4.899  -0.122  0.00  0.00    +0.142 HD
ATOM     16  H   UNL     1       5.471   6.487   0.027  0.00  0.00    +0.142 HD
ENDBRANCH   2  14
BRANCH   1  17
ATOM     17  C   UNL     1       2.468   3.937   0.093  0.00  0.00    +0.202 C 
ATOM     18  O   UNL     1       3.545   3.382  -0.034  0.00  0.00    -0.286 OA
BRANCH  17  23
ATOM     19  C   UNL     1      -2.400   0.875  -0.138  0.00  0.00    +0.044 C 
ATOM     20  C   UNL     1      -1.124   1.674  -0.078  0.00  0.00    -0.050 A 
ATOM     21  C   UNL     1      -0.331   1.623   1.055  0.00  0.00    +0.004 A 
ATOM     22  C   UNL     1       0.835   2.356   1.117  0.00  0.00    +0.012 A 
ATOM     23  C   UNL     1       1.218   3.147   0.033  0.00  0.00    +0.026 A 
ATOM     24  C   UNL     1       0.417   3.190  -1.109  0.00  0.00    -0.039 A 
ATOM     25  C   UNL     1      -0.748   2.451  -1.159  0.00  0.00    +0.007 A 
ATOM     26  C   UNL     1       0.823   4.040  -2.285  0.00  0.00    +0.044 C 
ENDBRANCH  17  23
ENDBRANCH   1  17
TORSDOF 3
