REMARK  Name = ZINC11087550
REMARK  9 active torsions:
REMARK  status: ('A' for Active; 'I' for Inactive)
REMARK    1  A    between atoms: C_4  and  N_27
REMARK    2  A    between atoms: C_5  and  C_7
REMARK    3  A    between atoms: C_7  and  O_9
REMARK    4  A    between atoms: O_9  and  C_10
REMARK    5  A    between atoms: C_10  and  C_11
REMARK    6  A    between atoms: C_15  and  C_24
REMARK    7  A    between atoms: N_27  and  C_28
REMARK    8  A    between atoms: C_31  and  O_34
REMARK    9  A    between atoms: O_34  and  C_35
REMARK                            x       y       z     vdW  Elec       q    Type
REMARK                         _______ _______ _______ _____ _____    ______ ____
ROOT
ATOM      1  C   UNL     1      -6.188  -0.054   3.743  0.00  0.00    +0.341 C 
ATOM      2  O   UNL     1      -6.930  -0.113   2.782  0.00  0.00    -0.245 OA
ENDROOT
BRANCH   1   7
ATOM      3  C   UNL     1      -6.121  -1.177   7.321  0.00  0.00    +0.001 A 
ATOM      4  C   UNL     1      -7.286  -1.924   7.396  0.00  0.00    +0.002 A 
ATOM      5  C   UNL     1      -8.097  -2.067   6.289  0.00  0.00    +0.024 A 
ATOM      6  C   UNL     1      -7.752  -1.456   5.090  0.00  0.00    +0.045 A 
ATOM      7  C   UNL     1      -6.569  -0.703   5.009  0.00  0.00    +0.080 A 
ATOM      8  C   UNL     1      -5.759  -0.568   6.140  0.00  0.00    +0.017 A 
BRANCH   6   9
ATOM      9  N   UNL     1      -8.569  -1.593   3.975  0.00  0.00    -0.314 N 
ATOM     10  H   UNL     1      -9.385  -1.073   3.905  0.00  0.00    +0.152 HD
BRANCH   9  11
ATOM     11  C   UNL     1      -8.216  -2.482   2.954  0.00  0.00    +0.032 A 
ATOM     12  C   UNL     1      -7.119  -3.320   3.110  0.00  0.00    +0.027 A 
ATOM     13  C   UNL     1      -6.774  -4.200   2.103  0.00  0.00    +0.047 A 
ATOM     14  C   UNL     1      -7.516  -4.240   0.932  0.00  0.00    +0.127 A 
ATOM     15  C   UNL     1      -8.608  -3.400   0.773  0.00  0.00    +0.047 A 
ATOM     16  C   UNL     1      -8.958  -2.523   1.780  0.00  0.00    +0.027 A 
BRANCH  14  17
ATOM     17  O   UNL     1      -7.172  -5.103  -0.061  0.00  0.00    -0.434 OA
BRANCH  17  18
ATOM     18  C   UNL     1      -6.037  -5.939   0.170  0.00  0.00    +0.541 C 
ATOM     19  F   UNL     1      -4.907  -5.142   0.383  0.00  0.00    -0.166 F 
ATOM     20  F   UNL     1      -6.265  -6.735   1.298  0.00  0.00    -0.166 F 
ENDBRANCH  17  18
ENDBRANCH  14  17
ENDBRANCH   9  11
ENDBRANCH   6   9
ENDBRANCH   1   7
BRANCH   1  21
ATOM     21  O   UNL     1      -5.016   0.605   3.649  0.00  0.00    -0.452 OA
BRANCH  21  22
ATOM     22  C   UNL     1      -4.706   1.220   2.371  0.00  0.00    +0.328 C 
BRANCH  22  23
ATOM     23  C   UNL     1      -3.367   1.905   2.455  0.00  0.00    +0.258 C 
ATOM     24  O   UNL     1      -2.697   1.807   3.462  0.00  0.00    -0.272 OA
ATOM     25  N   UNL     1      -2.913   2.628   1.412  0.00  0.00    -0.261 N 
ATOM     26  C   UNL     1      -3.665   2.691   0.143  0.00  0.00    +0.168 C 
ATOM     27  C   UNL     1      -3.625   4.147  -0.343  0.00  0.00    +0.276 C 
ATOM     28  O   UNL     1      -2.262   4.546  -0.501  0.00  0.00    -0.476 OA
ATOM     29  C   UNL     1      -1.407   4.304   0.528  0.00  0.00    +0.143 A 
ATOM     30  C   UNL     1      -1.709   3.349   1.495  0.00  0.00    +0.078 A 
ATOM     31  C   UNL     1      -0.827   3.109   2.536  0.00  0.00    +0.027 A 
ATOM     32  C   UNL     1       0.355   3.823   2.616  0.00  0.00    +0.002 A 
ATOM     33  C   UNL     1       0.655   4.774   1.658  0.00  0.00    +0.004 A 
ATOM     34  C   UNL     1      -0.221   5.015   0.616  0.00  0.00    +0.047 A 
BRANCH  27  35
ATOM     35  C   UNL     1      -4.340   4.257  -1.665  0.00  0.00    +0.253 C 
ATOM     36  O   UNL     1      -3.723   4.557  -2.665  0.00  0.00    -0.272 OA
ATOM     37  N   UNL     1      -5.665   4.022  -1.736  0.00  0.00    -0.326 N 
ATOM     38  H   UNL     1      -6.159   3.782  -0.936  0.00  0.00    +0.145 HD
ATOM     39  H   UNL     1      -6.126   4.093  -2.587  0.00  0.00    +0.145 HD
ENDBRANCH  27  35
ENDBRANCH  22  23
ENDBRANCH  21  22
ENDBRANCH   1  21
TORSDOF 9
