REMARK  Name = ZINC65301347
REMARK  13 active torsions:
REMARK  status: ('A' for Active; 'I' for Inactive)
REMARK    1  A    between atoms: C_1  and  C_2
REMARK    2  A    between atoms: C_2  and  N_3
REMARK    3  A    between atoms: N_3  and  C_4
REMARK    4  A    between atoms: C_4  and  C_5
REMARK    5  A    between atoms: C_6  and  C_8
REMARK    6  A    between atoms: C_13  and  N_14
REMARK    7  A    between atoms: C_17  and  C_20
REMARK    8  A    between atoms: N_22  and  C_23
REMARK    9  A    between atoms: C_23  and  C_24
REMARK   10  A    between atoms: C_24  and  C_25
REMARK   11  A    between atoms: C_25  and  C_26
REMARK   12  A    between atoms: C_25  and  C_27
REMARK   13  A    between atoms: C_28  and  C_31
REMARK                            x       y       z     vdW  Elec       q    Type
REMARK                         _______ _______ _______ _____ _____    ______ ____
ROOT
ATOM      1  C   UNL     1       0.565  -1.677  -6.160  0.00  0.00    +0.074 A 
ATOM      2  C   UNL     1       1.956  -1.639  -5.999  0.00  0.00    +0.098 A 
ATOM      3  N   UNL     1       2.487  -1.528  -4.800  0.00  0.00    -0.353 N 
ATOM      4  C   UNL     1       1.741  -1.448  -3.718  0.00  0.00    +0.107 A 
ATOM      5  C   UNL     1       0.327  -1.474  -3.756  0.00  0.00    +0.050 A 
ATOM      6  C   UNL     1      -0.272  -1.589  -5.039  0.00  0.00    +0.055 A 
ATOM      7  C   UNL     1      -0.256  -1.375  -2.482  0.00  0.00    +0.058 A 
ATOM      8  N   UNL     1       0.484  -1.273  -1.420  0.00  0.00    -0.213 NA
ATOM      9  S   UNL     1       2.063  -1.294  -1.980  0.00  0.00    +0.030 S 
ATOM     10  C   UNL     1      -1.757  -1.388  -2.346  0.00  0.00    +0.067 C 
ATOM     11  H   UNL     1       3.453  -1.505  -4.711  0.00  0.00    +0.166 HD
ENDROOT
BRANCH   6  12
ATOM     12  N   UNL     1      -1.644  -1.618  -5.178  0.00  0.00    -0.329 N 
ATOM     13  C   UNL     1      -2.389  -2.869  -4.984  0.00  0.00    +0.106 C 
ATOM     14  C   UNL     1      -3.256  -3.123  -6.221  0.00  0.00    +0.031 C 
ATOM     15  C   UNL     1      -4.138  -1.900  -6.481  0.00  0.00    +0.078 C 
ATOM     16  C   UNL     1      -3.254  -0.680  -6.753  0.00  0.00    +0.031 C 
ATOM     17  C   UNL     1      -2.388  -0.397  -5.516  0.00  0.00    +0.106 C 
BRANCH  15  18
ATOM     18  C   UNL     1      -5.017  -2.160  -7.678  0.00  0.00    +0.216 C 
ATOM     19  O   UNL     1      -4.945  -3.219  -8.264  0.00  0.00    -0.276 OA
ATOM     20  N   UNL     1      -5.883  -1.215  -8.095  0.00  0.00    -0.315 N 
ATOM     21  H   UNL     1      -5.940  -0.368  -7.626  0.00  0.00    +0.149 HD
BRANCH  20  22
ATOM     22  C   UNL     1      -6.737  -1.468  -9.258  0.00  0.00    +0.104 C 
BRANCH  22  23
ATOM     23  C   UNL     1      -7.619  -0.245  -9.519  0.00  0.00    +0.022 C 
BRANCH  23  24
ATOM     24  C   UNL     1      -8.511  -0.508 -10.733  0.00  0.00    -0.016 C 
ATOM     25  C   UNL     1      -9.482  -1.647 -10.415  0.00  0.00    +0.007 C 
ATOM     26  C   UNL     1      -9.302   0.757 -11.070  0.00  0.00    +0.007 C 
ENDBRANCH  23  24
ENDBRANCH  22  23
ENDBRANCH  20  22
ENDBRANCH  15  18
ENDBRANCH   6  12
BRANCH   1  28
ATOM     27  N   UNL     1       0.221  -0.854  -8.434  0.00  0.00    -0.298 N 
ATOM     28  C   UNL     1      -0.017  -1.802  -7.506  0.00  0.00    +0.250 C 
ATOM     29  O   UNL     1      -0.713  -2.761  -7.781  0.00  0.00    -0.270 OA
BRANCH  27  31
ATOM     30  C   UNL     1       0.418  -1.728 -10.710  0.00  0.00    +0.024 C 
ATOM     31  C   UNL     1      -0.445  -0.921  -9.737  0.00  0.00    +0.104 C 
ENDBRANCH  27  31
BRANCH  27  32
ATOM     32  C   UNL     1       1.145   0.244  -8.140  0.00  0.00    +0.104 C 
ATOM     33  C   UNL     1       0.358   1.446  -7.614  0.00  0.00    +0.024 C 
ENDBRANCH  27  32
ENDBRANCH   1  28
TORSDOF 8
