REMARK  Name = ZINC13828326
REMARK  4 active torsions:
REMARK  status: ('A' for Active; 'I' for Inactive)
REMARK    1  A    between atoms: C_1  and  C_2
REMARK    2  A    between atoms: C_7  and  C_8
REMARK    3  A    between atoms: C_14  and  C_17
REMARK    4  A    between atoms: C_22  and  O_23
REMARK                            x       y       z     vdW  Elec       q    Type
REMARK                         _______ _______ _______ _____ _____    ______ ____
ROOT
ATOM      1  C   UNL     1       0.173   0.158   2.410  0.00  0.00    +0.096 A 
ATOM      2  C   UNL     1       0.390  -0.352   3.692  0.00  0.00    +0.078 A 
ATOM      3  C   UNL     1       0.395   0.719   4.574  0.00  0.00    +0.157 A 
ATOM      4  N   UNL     1       0.558   0.792   5.902  0.00  0.00    -0.236 NA
ATOM      5  C   UNL     1       0.522   1.945   6.531  0.00  0.00    +0.115 A 
ATOM      6  C   UNL     1       0.310   3.131   5.823  0.00  0.00    +0.048 A 
ATOM      7  C   UNL     1       0.140   3.076   4.454  0.00  0.00    +0.080 A 
ATOM      8  N   UNL     1       0.184   1.853   3.831  0.00  0.00    -0.213 N 
ATOM      9  N   UNL     1       0.056   1.471   2.490  0.00  0.00    -0.164 NA
ENDROOT
BRANCH   1  16
ATOM     10  C   UNL     1      -1.968   0.643   0.527  0.00  0.00    +0.044 C 
ATOM     11  C   UNL     1      -0.933  -0.416   0.250  0.00  0.00    -0.041 A 
ATOM     12  C   UNL     1      -0.998  -1.160  -0.912  0.00  0.00    +0.004 A 
ATOM     13  C   UNL     1      -0.049  -2.132  -1.167  0.00  0.00    +0.000 A 
ATOM     14  C   UNL     1       0.970  -2.366  -0.261  0.00  0.00    +0.001 A 
ATOM     15  C   UNL     1       1.045  -1.629   0.903  0.00  0.00    +0.010 A 
ATOM     16  C   UNL     1       0.095  -0.643   1.162  0.00  0.00    +0.005 A 
ENDBRANCH   1  16
BRANCH   7  17
ATOM     17  C   UNL     1      -0.085   4.309   3.675  0.00  0.00    +0.043 A 
ATOM     18  C   UNL     1       0.940   4.840   2.890  0.00  0.00    +0.033 A 
ATOM     19  C   UNL     1       0.724   5.993   2.163  0.00  0.00    +0.042 A 
ATOM     20  C   UNL     1      -0.508   6.627   2.210  0.00  0.00    +0.023 A 
ATOM     21  C   UNL     1      -1.530   6.111   2.984  0.00  0.00    +0.047 A 
ATOM     22  C   UNL     1      -1.330   4.950   3.715  0.00  0.00    +0.126 A 
ATOM     23 CL   UNL     1       1.998   6.653   1.187  0.00  0.00    -0.084 Cl
BRANCH  22  24
ATOM     24  O   UNL     1      -2.336   4.440   4.471  0.00  0.00    -0.506 OA
ATOM     25  H   UNL     1      -2.356   4.776   5.378  0.00  0.00    +0.292 HD
ENDBRANCH  22  24
ENDBRANCH   7  17
TORSDOF 3
