REMARK  Name = ZINC31978231
REMARK  4 active torsions:
REMARK  status: ('A' for Active; 'I' for Inactive)
REMARK    1  A    between atoms: C_4  and  C_20
REMARK    2  A    between atoms: C_5  and  O_6
REMARK    3  A    between atoms: O_6  and  C_7
REMARK    4  A    between atoms: C_13  and  N_15
REMARK                            x       y       z     vdW  Elec       q    Type
REMARK                         _______ _______ _______ _____ _____    ______ ____
ROOT
ATOM      1  C   UNL     1       0.021   1.086  -0.012  0.00  0.00    +0.196 C 
ATOM      2  C   UNL     1      -0.662   1.580   1.265  0.00  0.00    +0.047 C 
ATOM      3  C   UNL     1      -2.096   1.050   1.315  0.00  0.00    +0.004 C 
ATOM      4  C   UNL     1      -2.869   1.557   0.096  0.00  0.00    +0.002 C 
ATOM      5  C   UNL     1      -2.187   1.063  -1.182  0.00  0.00    +0.029 C 
ATOM      6  C   UNL     1      -0.753   1.593  -1.232  0.00  0.00    +0.129 C 
ENDROOT
BRANCH   6   7
ATOM      7  N   UNL     1      -0.773   3.058  -1.224  0.00  0.00    -0.332 N 
ATOM      8  C   UNL     1       0.121   3.878  -0.591  0.00  0.00    +0.105 A 
ATOM      9  C   UNL     1      -0.264   5.144  -0.844  0.00  0.00    +0.101 A 
ATOM     10  N   UNL     1      -1.369   5.096  -1.603  0.00  0.00    -0.352 N 
ATOM     11  C   UNL     1      -1.680   3.850  -1.834  0.00  0.00    +0.174 A 
ATOM     12  H   UNL     1      -1.857   6.029  -1.923  0.00  0.00    +0.166 HD
ENDBRANCH   6   7
BRANCH   1  13
ATOM     13  O   UNL     1       1.360   1.581  -0.059  0.00  0.00    -0.485 OA
BRANCH  13  18
ATOM     14  C   UNL     1       2.022  -0.395   1.106  0.00  0.00    +0.054 A 
ATOM     15  C   UNL     1       3.023  -1.131   1.653  0.00  0.00    +0.049 A 
ATOM     16  S   UNL     1       4.433  -0.165   1.368  0.00  0.00    -0.086 S 
ATOM     17  C   UNL     1       3.660   1.199   0.517  0.00  0.00    +0.142 A 
ATOM     18  C   UNL     1       2.322   0.809   0.508  0.00  0.00    +0.142 A 
BRANCH  17  19
ATOM     19  C   UNL     1       4.251   2.370  -0.012  0.00  0.00    +0.397 C 
ATOM     20  O   UNL     1       3.559   3.203  -0.567  0.00  0.00    -0.240 OA
ATOM     21  O   UNL     1       5.582   2.565   0.101  0.00  0.00    -0.240 OA
ENDBRANCH  17  19
ENDBRANCH  13  18
ENDBRANCH   1  13
TORSDOF 4
