REMARK  Name = ZINC02630001
REMARK  9 active torsions:
REMARK  status: ('A' for Active; 'I' for Inactive)
REMARK    1  A    between atoms: C_1  and  C_2
REMARK    2  A    between atoms: N_11  and  S_12
REMARK    3  A    between atoms: S_12  and  C_15
REMARK    4  A    between atoms: C_19  and  C_21
REMARK    5  A    between atoms: C_21  and  O_23
REMARK    6  A    between atoms: O_23  and  C_24
REMARK    7  A    between atoms: C_24  and  C_25
REMARK    8  A    between atoms: N_27  and  C_28
REMARK    9  A    between atoms: C_31  and  C_34
REMARK                            x       y       z     vdW  Elec       q    Type
REMARK                         _______ _______ _______ _____ _____    ______ ____
ROOT
ATOM      1  C   UNL     1      -0.411   1.652  -1.926  0.00  0.00    +0.110 A 
ATOM      2  C   UNL     1      -0.115   2.830  -2.588  0.00  0.00    +0.029 A 
ATOM      3  C   UNL     1      -0.868   3.225  -3.679  0.00  0.00    +0.003 A 
ATOM      4  C   UNL     1      -1.920   2.446  -4.115  0.00  0.00    +0.015 A 
ATOM      5  C   UNL     1      -2.224   1.256  -3.451  0.00  0.00    +0.061 A 
ATOM      6  C   UNL     1      -1.456   0.860  -2.353  0.00  0.00    +0.043 A 
ENDROOT
BRANCH   1   7
ATOM      7  S   UNL     1       0.554   1.158  -0.537  0.00  0.00    +0.075 S 
ATOM      8  O   UNL     1       0.419  -0.252  -0.428  0.00  0.00    -0.150 OA
ATOM      9  O   UNL     1       1.818   1.793  -0.674  0.00  0.00    -0.150 OA
BRANCH   7  19
ATOM     10  C   UNL     1       1.629   3.173   1.804  0.00  0.00    +0.030 C 
ATOM     11  C   UNL     1       0.160   3.120   1.378  0.00  0.00    +0.099 C 
ATOM     12  C   UNL     1      -0.759   3.262   2.602  0.00  0.00    +0.061 C 
ATOM     13  C   UNL     1      -1.545   1.971   2.639  0.00  0.00    -0.023 A 
ATOM     14  C   UNL     1      -2.517   1.526   3.515  0.00  0.00    +0.005 A 
ATOM     15  C   UNL     1      -3.098   0.285   3.336  0.00  0.00    +0.000 A 
ATOM     16  C   UNL     1      -2.705  -0.511   2.276  0.00  0.00    +0.002 A 
ATOM     17  C   UNL     1      -1.736  -0.072   1.399  0.00  0.00    +0.025 A 
ATOM     18  C   UNL     1      -1.144   1.181   1.574  0.00  0.00    +0.055 A 
ATOM     19  N   UNL     1      -0.158   1.807   0.810  0.00  0.00    -0.200 N 
ENDBRANCH   7  19
ENDBRANCH   1   7
BRANCH   5  20
ATOM     20  C   UNL     1      -3.348   0.415  -3.912  0.00  0.00    +0.340 C 
ATOM     21  O   UNL     1      -3.610  -0.620  -3.332  0.00  0.00    -0.245 OA
BRANCH  20  22
ATOM     22  O   UNL     1      -4.083   0.797  -4.974  0.00  0.00    -0.452 OA
BRANCH  22  23
ATOM     23  C   UNL     1      -5.172  -0.077  -5.371  0.00  0.00    +0.328 C 
BRANCH  23  24
ATOM     24  C   UNL     1      -5.875   0.508  -6.568  0.00  0.00    +0.255 C 
ATOM     25  O   UNL     1      -5.496   1.558  -7.041  0.00  0.00    -0.272 OA
ATOM     26  N   UNL     1      -6.926  -0.137  -7.114  0.00  0.00    -0.283 N 
ATOM     27  H   UNL     1      -7.182  -1.013  -6.785  0.00  0.00    +0.155 HD
BRANCH  26  28
ATOM     28  C   UNL     1      -7.646   0.457  -8.151  0.00  0.00    +0.034 A 
ATOM     29  C   UNL     1      -7.807   1.838  -8.182  0.00  0.00    +0.024 A 
ATOM     30  C   UNL     1      -8.513   2.427  -9.207  0.00  0.00    +0.015 A 
ATOM     31  C   UNL     1      -9.076   1.635 -10.211  0.00  0.00    +0.037 A 
ATOM     32  C   UNL     1      -8.916   0.247 -10.174  0.00  0.00    +0.015 A 
ATOM     33  C   UNL     1      -8.205  -0.335  -9.149  0.00  0.00    +0.024 A 
BRANCH  31  34
ATOM     34  C   UNL     1      -9.837   2.262 -11.309  0.00  0.00    +0.242 C 
ATOM     35  O   UNL     1     -10.326   1.572 -12.182  0.00  0.00    -0.270 OA
ATOM     36  N   UNL     1      -9.990   3.601 -11.343  0.00  0.00    -0.325 N 
ATOM     37  H   UNL     1      -9.600   4.152 -10.647  0.00  0.00    +0.145 HD
ATOM     38  H   UNL     1     -10.491   4.013 -12.065  0.00  0.00    +0.145 HD
ENDBRANCH  31  34
ENDBRANCH  26  28
ENDBRANCH  23  24
ENDBRANCH  22  23
ENDBRANCH  20  22
ENDBRANCH   5  20
TORSDOF 8
