REMARK  Name = ZINC08756651
REMARK  14 active torsions:
REMARK  status: ('A' for Active; 'I' for Inactive)
REMARK    1  A    between atoms: C_1  and  C_2
REMARK    2  A    between atoms: C_2  and  C_3
REMARK    3  A    between atoms: C_3  and  C_4
REMARK    4  A    between atoms: C_4  and  N_5
REMARK    5  A    between atoms: C_9  and  C_39
REMARK    6  A    between atoms: N_13  and  N_14
REMARK    7  A    between atoms: C_15  and  C_17
REMARK    8  A    between atoms: C_17  and  C_18
REMARK    9  A    between atoms: N_20  and  N_21
REMARK   10  A    between atoms: C_25  and  C_36
REMARK   11  A    between atoms: N_29  and  C_32
REMARK   12  A    between atoms: C_32  and  C_33
REMARK   13  A    between atoms: C_33  and  C_34
REMARK   14  A    between atoms: C_34  and  C_35
REMARK                            x       y       z     vdW  Elec       q    Type
REMARK                         _______ _______ _______ _____ _____    ______ ____
ROOT
ATOM      1  C   UNL     1      -9.222  -5.281  -1.027  0.00  0.00    +0.194 C 
ENDROOT
BRANCH   1   3
ATOM      2  N   UNL     1      -6.990  -4.230  -0.854  0.00  0.00    -0.206 N 
ATOM      3  C   UNL     1      -7.977  -4.699  -1.643  0.00  0.00    +0.241 C 
ATOM      4  O   UNL     1      -7.862  -4.652  -2.850  0.00  0.00    -0.274 OA
ATOM      5  H   UNL     1      -7.082  -4.267   0.111  0.00  0.00    +0.177 HD
BRANCH   2  14
ATOM      6  N   UNL     1      -2.824  -2.486   0.024  0.00  0.00    -0.266 N 
ATOM      7  C   UNL     1      -3.436  -3.022   1.152  0.00  0.00    +0.046 A 
ATOM      8  C   UNL     1      -3.028  -3.091   2.480  0.00  0.00    +0.024 A 
ATOM      9  C   UNL     1      -3.838  -3.689   3.423  0.00  0.00    +0.005 A 
ATOM     10  C   UNL     1      -5.063  -4.226   3.063  0.00  0.00    -0.050 A 
ATOM     11  C   UNL     1      -5.484  -4.168   1.750  0.00  0.00    +0.015 A 
ATOM     12  C   UNL     1      -4.675  -3.567   0.792  0.00  0.00    +0.029 A 
ATOM     13  C   UNL     1      -4.824  -3.342  -0.665  0.00  0.00    +0.153 C 
ATOM     14  N   UNL     1      -5.832  -3.688  -1.427  0.00  0.00    -0.175 NA
ATOM     15  C   UNL     1      -3.590  -2.637  -1.069  0.00  0.00    +0.271 C 
ATOM     16  O   UNL     1      -3.315  -2.263  -2.194  0.00  0.00    -0.268 OA
ATOM     17  C   UNL     1      -5.936  -4.876   4.106  0.00  0.00    +0.044 C 
BRANCH   6  18
ATOM     18  C   UNL     1      -1.512  -1.833   0.029  0.00  0.00    +0.114 C 
BRANCH  18  19
ATOM     19  C   UNL     1      -1.688  -0.337   0.298  0.00  0.00    +0.019 C 
BRANCH  19  21
ATOM     20  C   UNL     1      -0.495   1.840   0.571  0.00  0.00    +0.004 C 
ATOM     21  C   UNL     1      -0.319   0.344   0.303  0.00  0.00    -0.002 C 
ENDBRANCH  19  21
ENDBRANCH  18  19
ENDBRANCH   6  18
ENDBRANCH   2  14
ENDBRANCH   1   3
BRANCH   1  22
ATOM     22  C   UNL     1     -10.161  -5.729  -2.118  0.00  0.00    +0.241 C 
ATOM     23  O   UNL     1      -9.849  -5.589  -3.281  0.00  0.00    -0.274 OA
ATOM     24  N   UNL     1     -11.346  -6.285  -1.801  0.00  0.00    -0.206 N 
ATOM     25  H   UNL     1     -11.596  -6.397  -0.870  0.00  0.00    +0.177 HD
BRANCH  24  26
ATOM     26  N   UNL     1     -12.219  -6.701  -2.815  0.00  0.00    -0.175 NA
ATOM     27  C   UNL     1     -13.372  -7.242  -2.506  0.00  0.00    +0.153 C 
ATOM     28  C   UNL     1     -14.411  -7.743  -3.436  0.00  0.00    +0.029 A 
ATOM     29  C   UNL     1     -14.501  -7.801  -4.822  0.00  0.00    +0.015 A 
ATOM     30  C   UNL     1     -15.626  -8.339  -5.414  0.00  0.00    -0.050 A 
ATOM     31  C   UNL     1     -16.661  -8.819  -4.628  0.00  0.00    +0.005 A 
ATOM     32  C   UNL     1     -16.581  -8.766  -3.252  0.00  0.00    +0.024 A 
ATOM     33  C   UNL     1     -15.455  -8.228  -2.638  0.00  0.00    +0.046 A 
ATOM     34  N   UNL     1     -15.127  -8.058  -1.297  0.00  0.00    -0.266 N 
ATOM     35  C   UNL     1     -13.916  -7.491  -1.156  0.00  0.00    +0.271 C 
ATOM     36  O   UNL     1     -13.368  -7.227  -0.102  0.00  0.00    -0.268 OA
ATOM     37  C   UNL     1     -15.729  -8.403  -6.916  0.00  0.00    +0.044 C 
BRANCH  34  38
ATOM     38  C   UNL     1     -15.988  -8.453  -0.180  0.00  0.00    +0.114 C 
BRANCH  38  39
ATOM     39  C   UNL     1     -15.672  -9.895   0.223  0.00  0.00    +0.019 C 
BRANCH  39  40
ATOM     40  C   UNL     1     -16.571 -10.308   1.390  0.00  0.00    -0.002 C 
ATOM     41  C   UNL     1     -16.255 -11.749   1.793  0.00  0.00    +0.004 C 
ENDBRANCH  39  40
ENDBRANCH  38  39
ENDBRANCH  34  38
ENDBRANCH  24  26
ENDBRANCH   1  22
TORSDOF 10
