REMARK  Name = ZINC00678549
REMARK  12 active torsions:
REMARK  status: ('A' for Active; 'I' for Inactive)
REMARK    1  A    between atoms: C_1  and  C_2
REMARK    2  A    between atoms: C_2  and  C_3
REMARK    3  A    between atoms: C_3  and  C_5
REMARK    4  A    between atoms: C_3  and  S_6
REMARK    5  A    between atoms: S_6  and  C_7
REMARK    6  A    between atoms: N_11  and  C_12
REMARK    7  A    between atoms: C_12  and  C_13
REMARK    8  A    between atoms: C_13  and  C_15
REMARK    9  A    between atoms: C_13  and  O_24
REMARK   10  A    between atoms: C_15  and  O_16
REMARK   11  A    between atoms: O_16  and  C_17
REMARK   12  A    between atoms: N_31  and  C_32
REMARK                            x       y       z     vdW  Elec       q    Type
REMARK                         _______ _______ _______ _____ _____    ______ ____
ROOT
ATOM      1  C   UNL     1       2.495   0.010   1.131  0.00  0.00    +0.172 A 
ATOM      2  N   UNL     1       2.840   0.703   0.065  0.00  0.00    -0.204 NA
ATOM      3  C   UNL     1       4.136   1.010   0.121  0.00  0.00    +0.169 A 
ATOM      4  C   UNL     1       4.644   0.476   1.300  0.00  0.00    +0.152 A 
ATOM      5  N   UNL     1       3.581  -0.154   1.934  0.00  0.00    -0.311 N 
ATOM      6  C   UNL     1       6.004   0.658   1.607  0.00  0.00    +0.280 A 
ATOM      7  O   UNL     1       6.470   0.198   2.635  0.00  0.00    -0.265 OA
ATOM      8  N   UNL     1       6.787   1.346   0.751  0.00  0.00    -0.273 N 
ATOM      9  H   UNL     1       7.755   1.477   0.966  0.00  0.00    +0.173 HD
ATOM     10  C   UNL     1       6.287   1.859  -0.386  0.00  0.00    +0.331 A 
ATOM     11  O   UNL     1       7.023   2.474  -1.134  0.00  0.00    -0.246 OA
ATOM     12  N   UNL     1       4.991   1.708  -0.718  0.00  0.00    -0.280 N 
ATOM     13  C   UNL     1       4.483   2.282  -1.967  0.00  0.00    +0.155 C 
ENDROOT
BRANCH   1  14
ATOM     14  S   UNL     1       0.877  -0.604   1.468  0.00  0.00    -0.085 S 
BRANCH  14  15
ATOM     15  C   UNL     1       0.002  -0.004   0.002  0.00  0.00    +0.051 C 
ATOM     16  C   UNL     1      -0.019   1.526   0.010  0.00  0.00    +0.019 C 
BRANCH  15  18
ATOM     17  C   UNL     1      -1.416  -2.058  -0.121  0.00  0.00    +0.005 C 
ATOM     18  C   UNL     1      -1.433  -0.534   0.013  0.00  0.00    +0.011 C 
ENDBRANCH  15  18
ENDBRANCH  14  15
ENDBRANCH   1  14
BRANCH   5  19
ATOM     19  C   UNL     1       3.621  -0.859   3.217  0.00  0.00    +0.159 C 
BRANCH  19  20
ATOM     20  C   UNL     1       3.958  -2.332   2.979  0.00  0.00    +0.171 C 
BRANCH  20  21
ATOM     21  O   UNL     1       2.901  -2.949   2.242  0.00  0.00    -0.387 OA
ATOM     22  H   UNL     1       2.043  -2.921   2.687  0.00  0.00    +0.210 HD
ENDBRANCH  20  21
BRANCH  20  23
ATOM     23  C   UNL     1       4.123  -3.042   4.324  0.00  0.00    +0.262 C 
BRANCH  23  24
ATOM     24  O   UNL     1       4.551  -4.387   4.104  0.00  0.00    -0.489 OA
BRANCH  24  25
ATOM     25  C   UNL     1       4.747  -5.161   5.204  0.00  0.00    +0.121 A 
ATOM     26  C   UNL     1       4.536  -4.634   6.470  0.00  0.00    +0.047 A 
ATOM     27  C   UNL     1       4.731  -5.423   7.587  0.00  0.00    +0.023 A 
ATOM     28  C   UNL     1       5.145  -6.736   7.444  0.00  0.00    +0.041 A 
ATOM     29  C   UNL     1       5.361  -7.262   6.183  0.00  0.00    +0.023 A 
ATOM     30  C   UNL     1       5.162  -6.477   5.063  0.00  0.00    +0.047 A 
ATOM     31 CL   UNL     1       5.395  -7.724   8.850  0.00  0.00    -0.084 Cl
ENDBRANCH  24  25
ENDBRANCH  23  24
ENDBRANCH  20  23
ENDBRANCH  19  20
ENDBRANCH   5  19
TORSDOF 9
