REMARK  Name = ZINC24152283
REMARK  5 active torsions:
REMARK  status: ('A' for Active; 'I' for Inactive)
REMARK    1  A    between atoms: C_1  and  C_2
REMARK    2  A    between atoms: C_2  and  C_4
REMARK    3  A    between atoms: C_2  and  O_17
REMARK    4  A    between atoms: N_13  and  C_16
REMARK    5  A    between atoms: O_17  and  C_18
REMARK                            x       y       z     vdW  Elec       q    Type
REMARK                         _______ _______ _______ _____ _____    ______ ____
ROOT
ATOM      1  C   UNL     1      -1.424  -0.753  -0.044  0.00  0.00    +0.259 C 
ATOM      2  O   UNL     1      -1.833  -1.194  -1.098  0.00  0.00    -0.271 OA
ATOM      3  N   UNL     1      -2.231  -0.732   1.035  0.00  0.00    -0.262 N 
ATOM      4  C   UNL     1      -3.531  -1.215   0.941  0.00  0.00    +0.165 A 
ATOM      5  N   UNL     1      -4.453  -1.268   1.878  0.00  0.00    -0.229 NA
ATOM      6  C   UNL     1      -5.663  -1.760   1.643  0.00  0.00    +0.056 A 
ATOM      7  C   UNL     1      -5.867  -2.198   0.371  0.00  0.00    +0.028 A 
ATOM      8  S   UNL     1      -4.311  -1.867  -0.403  0.00  0.00    -0.055 S 
ATOM      9  C   UNL     1      -7.114  -2.799  -0.181  0.00  0.00    +0.128 C 
ATOM     10  N   UNL     1      -7.985  -3.168   0.952  0.00  0.00    -0.300 NA
ATOM     11  C   UNL     1      -8.105  -2.052   1.901  0.00  0.00    +0.090 C 
ATOM     12  C   UNL     1      -6.790  -1.857   2.662  0.00  0.00    +0.071 C 
ATOM     13  C   UNL     1      -9.307  -3.601   0.480  0.00  0.00    +0.105 C 
ATOM     14  H   UNL     1      -1.904  -0.380   1.878  0.00  0.00    +0.157 HD
ENDROOT
BRANCH   1  16
ATOM     15  C   UNL     1      -0.048   1.273   0.344  0.00  0.00    +0.062 C 
ATOM     16  C   UNL     1      -0.015  -0.230   0.058  0.00  0.00    +0.256 C 
BRANCH  16  17
ATOM     17  O   UNL     1       0.671  -0.465  -1.174  0.00  0.00    -0.478 OA
BRANCH  17  18
ATOM     18  C   UNL     1       2.026  -0.553  -1.118  0.00  0.00    +0.140 A 
ATOM     19  C   UNL     1       2.690  -0.303   0.074  0.00  0.00    +0.048 A 
ATOM     20  C   UNL     1       4.068  -0.393   0.128  0.00  0.00    +0.023 A 
ATOM     21  C   UNL     1       4.786  -0.732  -1.005  0.00  0.00    +0.043 A 
ATOM     22  C   UNL     1       4.126  -0.982  -2.195  0.00  0.00    +0.043 A 
ATOM     23  C   UNL     1       2.748  -0.899  -2.253  0.00  0.00    +0.084 A 
ATOM     24 CL   UNL     1       1.919  -1.219  -3.744  0.00  0.00    -0.080 Cl
ATOM     25 CL   UNL     1       6.517  -0.844  -0.933  0.00  0.00    -0.083 Cl
ENDBRANCH  17  18
ENDBRANCH  16  17
ENDBRANCH   1  16
TORSDOF 3
