REMARK  Name = ZINC60207695
REMARK  9 active torsions:
REMARK  status: ('A' for Active; 'I' for Inactive)
REMARK    1  A    between atoms: C_1  and  C_2
REMARK    2  A    between atoms: C_2  and  C_3
REMARK    3  A    between atoms: C_2  and  N_4
REMARK    4  A    between atoms: C_8  and  C_11
REMARK    5  A    between atoms: C_11  and  N_12
REMARK    6  A    between atoms: C_13  and  C_15
REMARK    7  A    between atoms: C_18  and  C_21
REMARK    8  A    between atoms: C_21  and  N_22
REMARK    9  A    between atoms: C_23  and  C_25
REMARK                            x       y       z     vdW  Elec       q    Type
REMARK                         _______ _______ _______ _____ _____    ______ ____
ROOT
ATOM      1  C   UNL     1       3.469  -6.300   4.711  0.00  0.00    +0.037 A 
ATOM      2  C   UNL     1       4.118  -5.394   5.552  0.00  0.00    +0.013 A 
ATOM      3  C   UNL     1       4.933  -5.859   6.563  0.00  0.00    +0.006 A 
ATOM      4  C   UNL     1       5.109  -7.219   6.745  0.00  0.00    -0.030 A 
ATOM      5  C   UNL     1       4.469  -8.122   5.915  0.00  0.00    +0.006 A 
ATOM      6  C   UNL     1       3.646  -7.671   4.904  0.00  0.00    +0.013 A 
ENDROOT
BRANCH   1   8
ATOM      7  N   UNL     1       2.425  -4.485   3.442  0.00  0.00    -0.311 N 
ATOM      8  C   UNL     1       2.594  -5.810   3.626  0.00  0.00    +0.244 C 
ATOM      9  O   UNL     1       2.026  -6.601   2.899  0.00  0.00    -0.270 OA
ATOM     10  H   UNL     1       2.878  -3.854   4.023  0.00  0.00    +0.149 HD
BRANCH   7  11
ATOM     11  C   UNL     1       1.557  -3.999   2.367  0.00  0.00    +0.106 C 
BRANCH  11  16
ATOM     12  N   UNL     1       0.713  -0.491   1.192  0.00  0.00    +0.381 N 
ATOM     13  C   UNL     1       0.030  -0.009   2.399  0.00  0.00    -0.078 C 
ATOM     14  C   UNL     1       0.811  -0.445   3.640  0.00  0.00    -0.018 C 
ATOM     15  C   UNL     1       0.893  -1.974   3.674  0.00  0.00    +0.001 C 
ATOM     16  C   UNL     1       1.540  -2.469   2.377  0.00  0.00    -0.011 C 
ATOM     17  C   UNL     1       0.732  -1.958   1.183  0.00  0.00    -0.074 C 
ATOM     18  H   UNL     1       1.660  -0.143   1.183  0.00  0.00    -0.081 HD
BRANCH  12  20
ATOM     19  C   UNL     1      -0.019   1.526   0.010  0.00  0.00    -0.014 C 
ATOM     20  C   UNL     1       0.002  -0.004   0.002  0.00  0.00    -0.075 C 
ATOM     21  C   UNL     1       0.718  -0.497  -1.257  0.00  0.00    -0.014 C 
ENDBRANCH  12  20
ENDBRANCH  11  16
ENDBRANCH   7  11
ENDBRANCH   1   8
BRANCH   4  22
ATOM     22  C   UNL     1       6.001  -7.719   7.852  0.00  0.00    +0.139 C 
BRANCH  22  23
ATOM     23  N   UNL     1       5.210  -7.905   9.071  0.00  0.00    -0.311 N 
ATOM     24  C   UNL     1       5.803  -8.349  10.197  0.00  0.00    +0.219 C 
ATOM     25  O   UNL     1       6.990  -8.594  10.201  0.00  0.00    -0.275 OA
ATOM     26  H   UNL     1       4.260  -7.709   9.067  0.00  0.00    +0.149 HD
BRANCH  24  27
ATOM     27  C   UNL     1       4.989  -8.541  11.451  0.00  0.00    +0.048 C 
ATOM     28  C   UNL     1       4.365  -7.206  11.863  0.00  0.00    +0.019 C 
ATOM     29  C   UNL     1       3.538  -7.400  13.136  0.00  0.00    -0.009 C 
ATOM     30  C   UNL     1       4.445  -7.908  14.259  0.00  0.00    +0.007 C 
ATOM     31  C   UNL     1       5.069  -9.243  13.847  0.00  0.00    -0.009 C 
ATOM     32  C   UNL     1       5.895  -9.048  12.574  0.00  0.00    +0.019 C 
ATOM     33  C   UNL     1       3.961 -10.264  13.585  0.00  0.00    +0.007 C 
ATOM     34  C   UNL     1       3.054  -9.757  12.462  0.00  0.00    -0.009 C 
ATOM     35  C   UNL     1       2.430  -8.422  12.873  0.00  0.00    +0.007 C 
ATOM     36  C   UNL     1       3.881  -9.562  11.189  0.00  0.00    +0.019 C 
ENDBRANCH  24  27
ENDBRANCH  22  23
ENDBRANCH   4  22
TORSDOF 7
