REMARK  Name = ZINC26738355
REMARK  10 active torsions:
REMARK  status: ('A' for Active; 'I' for Inactive)
REMARK    1  A    between atoms: C_4  and  N_7
REMARK    2  A    between atoms: C_14  and  C_17
REMARK    3  A    between atoms: C_14  and  C_25
REMARK    4  A    between atoms: C_17  and  C_18
REMARK    5  A    between atoms: C_18  and  C_19
REMARK    6  A    between atoms: C_19  and  C_20
REMARK    7  A    between atoms: C_20  and  C_21
REMARK    8  A    between atoms: C_21  and  C_22
REMARK    9  A    between atoms: C_22  and  C_23
REMARK   10  A    between atoms: C_25  and  C_26
REMARK                            x       y       z     vdW  Elec       q    Type
REMARK                         _______ _______ _______ _____ _____    ______ ____
ROOT
ATOM      1  N   UNL     1      -1.238   2.070   0.019  0.00  0.00    -0.239 N 
ATOM      2  C   UNL     1      -2.482   1.444  -0.079  0.00  0.00    +0.045 A 
ATOM      3  C   UNL     1      -2.818   0.097  -0.202  0.00  0.00    +0.024 A 
ATOM      4  C   UNL     1      -4.142  -0.282  -0.282  0.00  0.00    +0.002 A 
ATOM      5  C   UNL     1      -5.145   0.668  -0.243  0.00  0.00    +0.000 A 
ATOM      6  C   UNL     1      -4.820   2.008  -0.121  0.00  0.00    +0.006 A 
ATOM      7  C   UNL     1      -3.499   2.389  -0.040  0.00  0.00    -0.010 A 
ATOM      8  C   UNL     1      -2.824   3.735   0.095  0.00  0.00    +0.078 C 
ATOM      9  C   UNL     1      -1.347   3.404   0.129  0.00  0.00    +0.235 C 
ATOM     10  O   UNL     1      -0.434   4.196   0.234  0.00  0.00    -0.274 OA
ENDROOT
BRANCH   1  14
ATOM     11  C   UNL     1       2.391   0.022  -0.015  0.00  0.00    +0.000 A 
ATOM     12  C   UNL     1       1.523  -0.130   1.051  0.00  0.00    +0.002 A 
ATOM     13  C   UNL     1       0.320   0.548   1.066  0.00  0.00    +0.024 A 
ATOM     14  C   UNL     1      -0.017   1.385   0.010  0.00  0.00    +0.041 A 
ATOM     15  C   UNL     1       0.857   1.535  -1.059  0.00  0.00    +0.024 A 
ATOM     16  C   UNL     1       2.058   0.854  -1.068  0.00  0.00    +0.002 A 
ENDBRANCH   1  14
BRANCH   8  17
ATOM     17  C   UNL     1      -3.155   4.623  -1.105  0.00  0.00    +0.021 C 
BRANCH  17  18
ATOM     18  C   UNL     1      -2.461   5.977  -0.944  0.00  0.00    +0.001 C 
BRANCH  18  19
ATOM     19  C   UNL     1      -2.791   6.866  -2.145  0.00  0.00    +0.000 C 
BRANCH  19  20
ATOM     20  C   UNL     1      -2.097   8.220  -1.984  0.00  0.00    +0.001 C 
BRANCH  20  21
ATOM     21  C   UNL     1      -2.427   9.108  -3.185  0.00  0.00    +0.015 C 
BRANCH  21  22
ATOM     22  C   UNL     1      -1.733  10.462  -3.024  0.00  0.00    +0.118 C 
BRANCH  22  23
ATOM     23  C   UNL     1      -2.051  11.317  -4.179  0.00  0.00    +0.063 C 
ATOM     24  N   UNL     1      -2.296  11.977  -5.071  0.00  0.00    -0.197 NA
ENDBRANCH  22  23
ENDBRANCH  21  22
ENDBRANCH  20  21
ENDBRANCH  19  20
ENDBRANCH  18  19
ENDBRANCH  17  18
ENDBRANCH   8  17
BRANCH   8  25
ATOM     25  C   UNL     1      -3.247   4.417   1.398  0.00  0.00    +0.056 C 
BRANCH  25  26
ATOM     26  C   UNL     1      -2.869   3.545   2.567  0.00  0.00    -0.043 A 
ATOM     27  C   UNL     1      -3.754   2.599   3.061  0.00  0.00    +0.023 A 
ATOM     28  C   UNL     1      -3.372   1.813   4.132  0.00  0.00    +0.111 A 
ATOM     29  N   UNL     1      -2.186   1.963   4.689  0.00  0.00    -0.263 NA
ATOM     30  C   UNL     1      -1.321   2.857   4.249  0.00  0.00    +0.111 A 
ATOM     31  C   UNL     1      -1.632   3.674   3.179  0.00  0.00    +0.023 A 
ENDBRANCH  25  26
ENDBRANCH   8  25
TORSDOF 10
