REMARK  Name = ZINC23478693
REMARK  6 active torsions:
REMARK  status: ('A' for Active; 'I' for Inactive)
REMARK    1  A    between atoms: C_1  and  N_2
REMARK    2  A    between atoms: C_6  and  N_9
REMARK    3  A    between atoms: C_12  and  C_15
REMARK    4  A    between atoms: C_15  and  N_16
REMARK    5  A    between atoms: N_16  and  C_17
REMARK    6  A    between atoms: C_20  and  C_23
REMARK                            x       y       z     vdW  Elec       q    Type
REMARK                         _______ _______ _______ _____ _____    ______ ____
ROOT
ATOM      1  N   UNL     1      -3.814   8.435   1.241  0.00  0.00    +0.381 N 
ATOM      2  H   UNL     1      -2.825   8.910   1.328  0.00  0.00    -0.086 HD
ATOM      3  H   UNL     1      -4.155   8.488   0.197  0.00  0.00    -0.086 HD
ENDROOT
BRANCH   1   4
ATOM      4  C   UNL     1      -4.765   9.171   2.085  0.00  0.00    -0.072 C 
ATOM      5  C   UNL     1      -6.182   8.984   1.539  0.00  0.00    -0.015 C 
ATOM      6  C   UNL     1      -6.251   9.518   0.107  0.00  0.00    +0.006 C 
ATOM      7  C   UNL     1      -5.894  11.006   0.100  0.00  0.00    +0.019 C 
ATOM      8  C   UNL     1      -4.478  11.194   0.646  0.00  0.00    +0.006 C 
ATOM      9  C   UNL     1      -4.408  10.659   2.078  0.00  0.00    -0.015 C 
BRANCH   7  10
ATOM     10  C   UNL     1      -5.963  11.533  -1.310  0.00  0.00    -0.044 A 
ATOM     11  C   UNL     1      -5.149  10.995  -2.289  0.00  0.00    +0.004 A 
ATOM     12  C   UNL     1      -5.215  11.475  -3.584  0.00  0.00    +0.000 A 
ATOM     13  C   UNL     1      -6.088  12.500  -3.897  0.00  0.00    +0.000 A 
ATOM     14  C   UNL     1      -6.898  13.041  -2.917  0.00  0.00    +0.000 A 
ATOM     15  C   UNL     1      -6.836  12.558  -1.623  0.00  0.00    +0.004 A 
ENDBRANCH   7  10
ENDBRANCH   1   4
BRANCH   1  16
ATOM     16  C   UNL     1      -3.720   7.029   1.655  0.00  0.00    -0.077 C 
BRANCH  16  20
ATOM     17  N   UNL     1      -2.416   3.994   0.045  0.00  0.00    -0.328 N 
ATOM     18  C   UNL     1      -2.539   4.849  -1.154  0.00  0.00    +0.105 C 
ATOM     19  C   UNL     1      -3.307   6.104  -0.668  0.00  0.00    +0.022 C 
ATOM     20  C   UNL     1      -2.722   6.298   0.755  0.00  0.00    -0.009 C 
ATOM     21  C   UNL     1      -2.507   4.849   1.243  0.00  0.00    +0.107 C 
BRANCH  17  27
ATOM     22  C   UNL     1       2.418   1.194  -0.014  0.00  0.00    +0.176 C 
ATOM     23  N   UNL     1       1.141   1.911   0.001  0.00  0.00    -0.233 N 
ATOM     24  C   UNL     1      -0.015   1.217   0.009  0.00  0.00    +0.269 A 
ATOM     25  O   UNL     1       0.002  -0.004   0.002  0.00  0.00    -0.266 OA
ATOM     26  C   UNL     1      -1.235   1.906   0.018  0.00  0.00    +0.096 A 
ATOM     27  C   UNL     1      -1.226   3.288   0.030  0.00  0.00    +0.055 A 
ATOM     28  C   UNL     1       0.009   3.973   0.022  0.00  0.00    +0.156 A 
ATOM     29  N   UNL     1       1.131   3.309   0.009  0.00  0.00    -0.175 NA
ENDBRANCH  17  27
ENDBRANCH  16  20
ENDBRANCH   1  16
TORSDOF 5
