REMARK  Name = ZINC12009208
REMARK  6 active torsions:
REMARK  status: ('A' for Active; 'I' for Inactive)
REMARK    1  A    between atoms: C_4  and  C_7
REMARK    2  A    between atoms: C_16  and  N_25
REMARK    3  A    between atoms: C_18  and  C_20
REMARK    4  A    between atoms: C_26  and  C_28
REMARK    5  A    between atoms: C_30  and  C_38
REMARK    6  A    between atoms: C_32  and  C_34
REMARK                            x       y       z     vdW  Elec       q    Type
REMARK                         _______ _______ _______ _____ _____    ______ ____
ROOT
ATOM      1  C   UNL     1       5.471   0.852  -1.173  0.00  0.00    +0.080 A 
ATOM      2  C   UNL     1       6.166   0.774   0.024  0.00  0.00    +0.098 A 
ATOM      3  C   UNL     1       5.437   0.667   1.220  0.00  0.00    +0.253 A 
ATOM      4  O   UNL     1       6.011   0.597   2.294  0.00  0.00    -0.268 OA
ATOM      5  N   UNL     1       4.089   0.649   1.159  0.00  0.00    -0.291 N 
ATOM      6  H   UNL     1       3.569   0.579   1.975  0.00  0.00    +0.172 HD
ATOM      7  C   UNL     1       3.457   0.723  -0.043  0.00  0.00    +0.234 A 
ATOM      8  N   UNL     1       4.131   0.824  -1.166  0.00  0.00    -0.212 NA
ATOM      9  N   UNL     1       2.076   0.697  -0.084  0.00  0.00    -0.184 N 
ATOM     10  C   UNL     1       1.294  -0.422  -0.096  0.00  0.00    +0.133 A 
ATOM     11  C   UNL     1      -0.001  -0.020  -0.138  0.00  0.00    +0.077 A 
ATOM     12  C   UNL     1      -0.015   1.391  -0.152  0.00  0.00    +0.130 A 
ATOM     13  N   UNL     1       1.233   1.815  -0.119  0.00  0.00    -0.159 NA
ENDROOT
BRANCH   1  17
ATOM     14  C   UNL     1       7.581   1.182  -4.848  0.00  0.00    +0.000 A 
ATOM     15  C   UNL     1       6.200   1.258  -4.837  0.00  0.00    +0.001 A 
ATOM     16  C   UNL     1       5.510   1.152  -3.647  0.00  0.00    +0.010 A 
ATOM     17  C   UNL     1       6.207   0.967  -2.454  0.00  0.00    +0.001 A 
ATOM     18  C   UNL     1       7.599   0.896  -2.470  0.00  0.00    +0.010 A 
ATOM     19  C   UNL     1       8.278   0.998  -3.667  0.00  0.00    +0.001 A 
ENDBRANCH   1  17
BRANCH  12  20
ATOM     20  C   UNL     1      -1.219   2.246  -0.201  0.00  0.00    +0.155 A 
ATOM     21  C   UNL     1      -1.233   3.606  -0.209  0.00  0.00    +0.051 A 
ATOM     22  C   UNL     1      -2.585   3.998  -0.263  0.00  0.00    +0.042 A 
ATOM     23  C   UNL     1      -3.323   2.870  -0.278  0.00  0.00    +0.196 A 
ATOM     24  O   UNL     1      -2.494   1.814  -0.240  0.00  0.00    -0.461 OA
ENDBRANCH  12  20
BRANCH  10  25
ATOM     25  N   UNL     1       1.744  -1.740  -0.070  0.00  0.00    -0.266 N 
ATOM     26  C   UNL     1       0.860  -2.752   0.025  0.00  0.00    +0.249 C 
ATOM     27  O   UNL     1      -0.321  -2.515   0.188  0.00  0.00    -0.270 OA
ATOM     28  H   UNL     1       2.695  -1.928  -0.121  0.00  0.00    +0.157 HD
BRANCH  26  29
ATOM     29  C   UNL     1       1.327  -4.152  -0.068  0.00  0.00    +0.038 A 
ATOM     30  C   UNL     1       2.692  -4.431  -0.155  0.00  0.00    +0.025 A 
ATOM     31  C   UNL     1       3.120  -5.740  -0.237  0.00  0.00    +0.056 A 
ATOM     32  C   UNL     1       2.200  -6.774  -0.244  0.00  0.00    +0.024 A 
ATOM     33  C   UNL     1       0.846  -6.503  -0.164  0.00  0.00    +0.056 A 
ATOM     34  C   UNL     1       0.404  -5.199  -0.076  0.00  0.00    +0.025 A 
BRANCH  33  35
ATOM     35  C   UNL     1      -0.149  -7.635  -0.172  0.00  0.00    +0.417 C 
ATOM     36  F   UNL     1      -1.445  -7.117  -0.081  0.00  0.00    -0.166 F 
ATOM     37  F   UNL     1      -0.019  -8.362  -1.360  0.00  0.00    -0.166 F 
ATOM     38  F   UNL     1       0.094  -8.477   0.919  0.00  0.00    -0.166 F 
ENDBRANCH  33  35
BRANCH  31  39
ATOM     39  C   UNL     1       4.594  -6.045  -0.324  0.00  0.00    +0.417 C 
ATOM     40  F   UNL     1       5.009  -5.960  -1.657  0.00  0.00    -0.166 F 
ATOM     41  F   UNL     1       5.307  -5.120   0.447  0.00  0.00    -0.166 F 
ATOM     42  F   UNL     1       4.832  -7.336   0.159  0.00  0.00    -0.166 F 
ENDBRANCH  31  39
ENDBRANCH  26  29
ENDBRANCH  10  25
TORSDOF 6
