REMARK  Name = ZINC06135154
REMARK  12 active torsions:
REMARK  status: ('A' for Active; 'I' for Inactive)
REMARK    1  A    between atoms: C_1  and  C_2
REMARK    2  A    between atoms: C_2  and  C_3
REMARK    3  A    between atoms: C_10  and  C_15
REMARK    4  A    between atoms: C_15  and  C_17
REMARK    5  A    between atoms: C_15  and  N_72
REMARK    6  A    between atoms: N_21  and  C_22
REMARK    7  A    between atoms: C_22  and  C_23
REMARK    8  A    between atoms: C_22  and  C_24
REMARK    9  A    between atoms: C_22  and  C_25
REMARK   10  A    between atoms: N_28  and  C_31
REMARK   11  A    between atoms: C_34  and  O_37
REMARK   12  A    between atoms: O_37  and  C_38
REMARK                            x       y       z     vdW  Elec       q    Type
REMARK                         _______ _______ _______ _____ _____    ______ ____
ROOT
ATOM      1  C   UNL     1       1.574   3.700  -0.149  0.00  0.00    +0.039 C 
ENDROOT
BRANCH   1   9
ATOM      2  C   UNL     1       6.380   7.268   1.419  0.00  0.00    -0.047 A 
ATOM      3  C   UNL     1       7.263   6.763   0.475  0.00  0.00    +0.005 A 
ATOM      4  C   UNL     1       6.871   5.769  -0.395  0.00  0.00    +0.026 A 
ATOM      5  C   UNL     1       5.575   5.267  -0.330  0.00  0.00    +0.049 A 
ATOM      6  C   UNL     1       4.682   5.782   0.628  0.00  0.00    -0.001 A 
ATOM      7  C   UNL     1       5.103   6.790   1.502  0.00  0.00    +0.013 A 
ATOM      8  C   UNL     1       3.318   5.251   0.685  0.00  0.00    +0.017 A 
ATOM      9  C   UNL     1       2.968   4.271  -0.184  0.00  0.00    +0.011 A 
ATOM     10  C   UNL     1       3.902   3.789  -1.126  0.00  0.00    +0.251 A 
ATOM     11  O   UNL     1       3.565   2.911  -1.901  0.00  0.00    -0.268 OA
ATOM     12  N   UNL     1       5.155   4.274  -1.189  0.00  0.00    -0.322 N 
ATOM     13  H   UNL     1       5.791   3.909  -1.869  0.00  0.00    +0.169 HD
BRANCH   2  15
ATOM     14  C   UNL     1       7.422   7.722   3.623  0.00  0.00    +0.009 C 
ATOM     15  C   UNL     1       6.833   8.354   2.360  0.00  0.00    +0.032 C 
ENDBRANCH   2  15
ENDBRANCH   1   9
BRANCH   1  21
ATOM     16  C   UNL     1       0.307   1.659   0.161  0.00  0.00    -0.058 C 
ATOM     17  C   UNL     1       0.420   0.135   0.237  0.00  0.00    +0.086 C 
ATOM     18  N   UNL     1       1.286  -0.234   1.365  0.00  0.00    -0.333 N 
ATOM     19  C   UNL     1       2.627   0.347   1.208  0.00  0.00    +0.086 C 
ATOM     20  C   UNL     1       2.514   1.871   1.132  0.00  0.00    -0.058 C 
ATOM     21  N   UNL     1       1.659   2.229  -0.020  0.00  0.00    +0.391 N 
ATOM     22  H   UNL     1       2.073   1.842  -0.876  0.00  0.00    -0.080 HD
BRANCH  18  23
ATOM     23  C   UNL     1       1.356  -1.624   1.510  0.00  0.00    +0.030 A 
ATOM     24  C   UNL     1       0.650  -2.449   0.645  0.00  0.00    +0.027 A 
ATOM     25  C   UNL     1       0.724  -3.821   0.786  0.00  0.00    +0.047 A 
ATOM     26  C   UNL     1       1.493  -4.374   1.798  0.00  0.00    +0.120 A 
ATOM     27  C   UNL     1       2.195  -3.551   2.666  0.00  0.00    +0.047 A 
ATOM     28  C   UNL     1       2.127  -2.179   2.523  0.00  0.00    +0.027 A 
BRANCH  26  29
ATOM     29  O   UNL     1       1.561  -5.725   1.940  0.00  0.00    -0.495 OA
ATOM     30  C   UNL     1       0.813  -6.513   1.011  0.00  0.00    +0.277 C 
ENDBRANCH  26  29
ENDBRANCH  18  23
ENDBRANCH   1  21
BRANCH   1  31
ATOM     31  C   UNL     1       0.861   4.035  -1.434  0.00  0.00    +0.143 A 
ATOM     32  N   UNL     1       1.135   3.567  -2.627  0.00  0.00    -0.115 NA
ATOM     33  N   UNL     1       0.303   4.089  -3.460  0.00  0.00    -0.023 NA
ATOM     34  N   UNL     1      -0.490   4.884  -2.831  0.00  0.00    -0.043 NA
ATOM     35  N   UNL     1      -0.178   4.879  -1.579  0.00  0.00    -0.225 N 
BRANCH  35  36
ATOM     36  C   UNL     1      -0.832   5.646  -0.516  0.00  0.00    +0.059 C 
ATOM     37  C   UNL     1       0.201   6.534   0.181  0.00  0.00    +0.036 C 
ATOM     38  C   UNL     1      -1.931   6.521  -1.121  0.00  0.00    +0.036 C 
ATOM     39  C   UNL     1      -1.447   4.684   0.502  0.00  0.00    +0.036 C 
ENDBRANCH  35  36
ENDBRANCH   1  31
TORSDOF 7
