REMARK  Name = ZINC13495959
REMARK  15 active torsions:
REMARK  status: ('A' for Active; 'I' for Inactive)
REMARK    1  A    between atoms: C_1  and  C_2
REMARK    2  A    between atoms: C_2  and  C_3
REMARK    3  A    between atoms: C_3  and  C_5
REMARK    4  A    between atoms: C_3  and  N_77
REMARK    5  A    between atoms: N_9  and  C_10
REMARK    6  A    between atoms: C_10  and  C_11
REMARK    7  A    between atoms: C_17  and  C_18
REMARK    8  A    between atoms: C_17  and  N_77
REMARK    9  A    between atoms: C_18  and  C_19
REMARK   10  A    between atoms: C_23  and  C_25
REMARK   11  A    between atoms: C_26  and  C_27
REMARK   12  A    between atoms: C_26  and  N_77
REMARK   13  A    between atoms: C_31  and  O_39
REMARK   14  A    between atoms: O_39  and  C_40
REMARK   15  A    between atoms: C_40  and  C_41
REMARK                            x       y       z     vdW  Elec       q    Type
REMARK                         _______ _______ _______ _____ _____    ______ ____
ROOT
ATOM      1  N   UNL     1      -0.377   7.146  -0.704  0.00  0.00    +0.389 N 
ATOM      2  H   UNL     1       0.457   7.245  -0.113  0.00  0.00    -0.080 HD
ENDROOT
BRANCH   1   3
ATOM      3  C   UNL     1      -1.347   8.201  -0.345  0.00  0.00    +0.003 C 
BRANCH   3   4
ATOM      4  C   UNL     1      -0.589   9.459  -0.007  0.00  0.00    +0.138 A 
ATOM      5  N   UNL     1       0.379  10.000  -0.707  0.00  0.00    -0.115 NA
ATOM      6  N   UNL     1       0.767  11.064  -0.092  0.00  0.00    -0.023 NA
ATOM      7  N   UNL     1       0.078  11.210   0.986  0.00  0.00    -0.044 NA
ATOM      8  N   UNL     1      -0.769  10.241   1.073  0.00  0.00    -0.228 N 
BRANCH   8   9
ATOM      9  C   UNL     1      -1.743  10.031   2.147  0.00  0.00    +0.178 C 
BRANCH   9  10
ATOM     10  C   UNL     1      -1.113   9.176   3.248  0.00  0.00    +0.140 C 
ATOM     11  C   UNL     1      -2.167   8.853   4.328  0.00  0.00    +0.035 C 
ATOM     12  C   UNL     1      -1.342   8.968   5.639  0.00  0.00    +0.031 C 
ATOM     13  C   UNL     1      -0.359  10.108   5.269  0.00  0.00    +0.160 C 
ATOM     14  O   UNL     1      -0.053   9.903   3.880  0.00  0.00    -0.375 OA
ENDBRANCH   9  10
ENDBRANCH   8   9
ENDBRANCH   3   4
BRANCH   3  16
ATOM     15  C   UNL     1      -3.133   7.227  -1.795  0.00  0.00    +0.002 C 
ATOM     16  C   UNL     1      -2.295   8.476  -1.514  0.00  0.00    -0.011 C 
ENDBRANCH   3  16
ENDBRANCH   1   3
BRANCH   1  17
ATOM     17  C   UNL     1      -0.972   5.813  -0.474  0.00  0.00    -0.073 C 
BRANCH  17  18
ATOM     18  C   UNL     1      -1.015   5.546   1.032  0.00  0.00    +0.016 C 
BRANCH  18  19
ATOM     19  C   UNL     1      -1.667   4.212   1.288  0.00  0.00    -0.049 A 
ATOM     20  C   UNL     1      -3.035   4.135   1.469  0.00  0.00    +0.003 A 
ATOM     21  C   UNL     1      -3.634   2.911   1.699  0.00  0.00    +0.001 A 
ATOM     22  C   UNL     1      -2.864   1.764   1.757  0.00  0.00    +0.003 A 
ATOM     23  C   UNL     1      -1.496   1.841   1.575  0.00  0.00    -0.050 A 
ATOM     24  C   UNL     1      -0.897   3.065   1.340  0.00  0.00    +0.007 A 
ATOM     25  C   UNL     1      -0.656   0.591   1.633  0.00  0.00    +0.044 C 
ENDBRANCH  18  19
ENDBRANCH  17  18
ENDBRANCH   1  17
BRANCH   1  26
ATOM     26  C   UNL     1       0.020   7.285  -2.121  0.00  0.00    -0.037 C 
BRANCH  26  27
ATOM     27  C   UNL     1       1.310   6.537  -2.337  0.00  0.00    +0.001 A 
ATOM     28  C   UNL     1       1.283   5.267  -2.811  0.00  0.00    +0.017 A 
ATOM     29  C   UNL     1       2.554   4.567  -3.010  0.00  0.00    +0.002 A 
ATOM     30  C   UNL     1       2.588   3.256  -3.496  0.00  0.00    +0.055 A 
ATOM     31  C   UNL     1       3.803   2.626  -3.672  0.00  0.00    +0.121 A 
ATOM     32  C   UNL     1       4.990   3.289  -3.368  0.00  0.00    +0.047 A 
ATOM     33  C   UNL     1       4.969   4.580  -2.888  0.00  0.00    +0.030 A 
ATOM     34  C   UNL     1       3.755   5.234  -2.703  0.00  0.00    +0.049 A 
ATOM     35  N   UNL     1       3.714   6.527  -2.223  0.00  0.00    -0.322 N 
ATOM     36  H   UNL     1       4.542   6.985  -2.012  0.00  0.00    +0.169 HD
ATOM     37  C   UNL     1       2.542   7.163  -2.050  0.00  0.00    +0.251 A 
ATOM     38  O   UNL     1       2.544   8.307  -1.629  0.00  0.00    -0.268 OA
BRANCH  31  39
ATOM     39  O   UNL     1       3.842   1.351  -4.144  0.00  0.00    -0.492 OA
BRANCH  39  40
ATOM     40  C   UNL     1       5.132   0.758  -4.302  0.00  0.00    +0.225 C 
ATOM     41  C   UNL     1       4.976  -0.666  -4.840  0.00  0.00    +0.048 C 
ENDBRANCH  39  40
ENDBRANCH  31  39
ENDBRANCH  26  27
ENDBRANCH   1  26
TORSDOF 12
