REMARK  Name = ZINC13498915
REMARK  18 active torsions:
REMARK  status: ('A' for Active; 'I' for Inactive)
REMARK    1  A    between atoms: C_1  and  C_2
REMARK    2  A    between atoms: C_2  and  O_3
REMARK    3  A    between atoms: O_3  and  C_4
REMARK    4  A    between atoms: C_4  and  C_6
REMARK    5  A    between atoms: C_6  and  N_7
REMARK    6  A    between atoms: C_8  and  C_12
REMARK    7  A    between atoms: C_12  and  C_14
REMARK    8  A    between atoms: C_12  and  N_17
REMARK    9  A    between atoms: C_14  and  C_15
REMARK   10  A    between atoms: C_14  and  C_16
REMARK   11  A    between atoms: N_17  and  C_18
REMARK   12  A    between atoms: N_17  and  C_27
REMARK   13  A    between atoms: C_18  and  C_19
REMARK   14  A    between atoms: C_22  and  O_25
REMARK   15  A    between atoms: O_25  and  C_26
REMARK   16  A    between atoms: C_27  and  C_28
REMARK   17  A    between atoms: C_32  and  C_41
REMARK   18  A    between atoms: C_33  and  C_40
REMARK                            x       y       z     vdW  Elec       q    Type
REMARK                         _______ _______ _______ _____ _____    ______ ____
ROOT
ATOM      1  N   UNL     1       3.465  -4.959   0.025  0.00  0.00    -0.284 NA
ENDROOT
BRANCH   1   2
ATOM      2  C   UNL     1       3.627  -4.189  -1.216  0.00  0.00    +0.130 C 
BRANCH   2   4
ATOM      3  N   UNL     1       1.790  -3.584  -2.878  0.00  0.00    -0.217 N 
ATOM      4  C   UNL     1       2.473  -4.479  -2.141  0.00  0.00    +0.169 A 
ATOM      5  N   UNL     1       1.941  -5.652  -2.385  0.00  0.00    -0.112 NA
ATOM      6  N   UNL     1       0.980  -5.486  -3.227  0.00  0.00    -0.023 NA
ATOM      7  N   UNL     1       0.883  -4.237  -3.524  0.00  0.00    -0.043 NA
BRANCH   3   8
ATOM      8  C   UNL     1       2.027  -2.139  -2.933  0.00  0.00    +0.267 C 
BRANCH   8   9
ATOM      9  C   UNL     1       1.102  -1.442  -1.970  0.00  0.00    +0.329 C 
ATOM     10  O   UNL     1       0.394  -2.090  -1.235  0.00  0.00    -0.249 OA
BRANCH   9  11
ATOM     11  O   UNL     1       1.064  -0.101  -1.927  0.00  0.00    -0.464 OA
BRANCH  11  13
ATOM     12  C   UNL     1       0.416   2.013  -0.951  0.00  0.00    +0.048 C 
ATOM     13  C   UNL     1       0.236   0.494  -0.925  0.00  0.00    +0.229 C 
ENDBRANCH  11  13
ENDBRANCH   9  11
ENDBRANCH   8   9
ENDBRANCH   3   8
ENDBRANCH   2   4
BRANCH   2  14
ATOM     14  C   UNL     1       4.938  -4.588  -1.896  0.00  0.00    +0.008 C 
ATOM     15  C   UNL     1       5.059  -3.860  -3.236  0.00  0.00    +0.009 C 
ATOM     16  C   UNL     1       6.116  -4.203  -0.998  0.00  0.00    +0.009 C 
ENDBRANCH   2  14
ENDBRANCH   1   2
BRANCH   1  17
ATOM     17  C   UNL     1       3.917  -6.345  -0.153  0.00  0.00    +0.120 C 
BRANCH  17  18
ATOM     18  C   UNL     1       3.404  -7.190   0.984  0.00  0.00    -0.033 A 
ATOM     19  C   UNL     1       4.179  -7.373   2.114  0.00  0.00    +0.008 A 
ATOM     20  C   UNL     1       3.711  -8.148   3.157  0.00  0.00    +0.046 A 
ATOM     21  C   UNL     1       2.460  -8.743   3.070  0.00  0.00    +0.120 A 
ATOM     22  C   UNL     1       1.683  -8.557   1.936  0.00  0.00    +0.046 A 
ATOM     23  C   UNL     1       2.155  -7.777   0.898  0.00  0.00    +0.008 A 
BRANCH  21  24
ATOM     24  O   UNL     1       1.997  -9.506   4.095  0.00  0.00    -0.495 OA
ATOM     25  C   UNL     1       0.701 -10.087   3.937  0.00  0.00    +0.277 C 
ENDBRANCH  21  24
ENDBRANCH  17  18
ENDBRANCH   1  17
BRANCH   1  26
ATOM     26  C   UNL     1       4.170  -4.313   1.140  0.00  0.00    +0.126 C 
BRANCH  26  27
ATOM     27  C   UNL     1       3.351  -3.156   1.650  0.00  0.00    +0.031 A 
ATOM     28  C   UNL     1       2.487  -3.340   2.679  0.00  0.00    +0.020 A 
ATOM     29  C   UNL     1       1.707  -2.195   3.151  0.00  0.00    -0.001 A 
ATOM     30  C   UNL     1       0.800  -2.324   4.208  0.00  0.00    +0.013 A 
ATOM     31  C   UNL     1       0.087  -1.236   4.625  0.00  0.00    -0.047 A 
ATOM     32  C   UNL     1       0.254  -0.003   4.008  0.00  0.00    -0.046 A 
ATOM     33  C   UNL     1       1.140   0.146   2.964  0.00  0.00    +0.030 A 
ATOM     34  C   UNL     1       1.878  -0.947   2.523  0.00  0.00    +0.049 A 
ATOM     35  N   UNL     1       2.773  -0.826   1.481  0.00  0.00    -0.322 N 
ATOM     36  H   UNL     1       2.890   0.035   1.049  0.00  0.00    +0.169 HD
ATOM     37  C   UNL     1       3.490  -1.882   1.058  0.00  0.00    +0.254 A 
ATOM     38  O   UNL     1       4.275  -1.736   0.138  0.00  0.00    -0.268 OA
ATOM     39  C   UNL     1      -0.544   1.183   4.485  0.00  0.00    +0.044 C 
ATOM     40  C   UNL     1      -0.889  -1.375   5.765  0.00  0.00    +0.044 C 
ENDBRANCH  26  27
ENDBRANCH   1  26
TORSDOF 12
