REMARK  Name = ZINC20611124
REMARK  5 active torsions:
REMARK  status: ('A' for Active; 'I' for Inactive)
REMARK    1  A    between atoms: C_1  and  C_2
REMARK    2  A    between atoms: C_7  and  N_8
REMARK    3  A    between atoms: N_8  and  S_9
REMARK    4  A    between atoms: S_9  and  C_12
REMARK    5  A    between atoms: N_19  and  C_21
REMARK                            x       y       z     vdW  Elec       q    Type
REMARK                         _______ _______ _______ _____ _____    ______ ____
ROOT
ATOM      1  C   UNL     1       3.368  -1.280  -4.266  0.00  0.00    +0.046 C 
ATOM      2  C   UNL     1       4.054  -0.025  -3.790  0.00  0.00    -0.024 A 
ATOM      3  C   UNL     1       4.197   1.017  -4.649  0.00  0.00    +0.037 A 
ATOM      4  C   UNL     1       4.841   2.190  -4.216  0.00  0.00    +0.114 A 
ATOM      5  C   UNL     1       5.340   2.259  -2.834  0.00  0.00    +0.115 A 
ATOM      6  C   UNL     1       5.157   1.149  -1.992  0.00  0.00    +0.058 A 
ATOM      7  C   UNL     1       4.524   0.039  -2.472  0.00  0.00    +0.079 A 
ATOM      8  N   UNL     1       5.883   3.462  -2.731  0.00  0.00    -0.147 NA
ATOM      9  N   UNL     1       5.758   4.072  -3.858  0.00  0.00    -0.149 N 
ATOM     10  N   UNL     1       5.155   3.362  -4.746  0.00  0.00    -0.147 NA
ENDROOT
BRANCH   9  11
ATOM     11  C   UNL     1       6.226   5.372  -4.091  0.00  0.00    +0.086 A 
ATOM     12  C   UNL     1       6.056   5.958  -5.338  0.00  0.00    +0.032 A 
ATOM     13  C   UNL     1       6.515   7.241  -5.565  0.00  0.00    +0.040 A 
ATOM     14  C   UNL     1       7.154   7.938  -4.553  0.00  0.00    +0.124 A 
ATOM     15  C   UNL     1       7.329   7.353  -3.310  0.00  0.00    +0.040 A 
ATOM     16  C   UNL     1       6.867   6.072  -3.078  0.00  0.00    +0.032 A 
ATOM     17  F   UNL     1       7.606   9.191  -4.779  0.00  0.00    -0.205 F 
ENDBRANCH   9  11
BRANCH   7  18
ATOM     18  N   UNL     1       4.345  -1.062  -1.630  0.00  0.00    -0.098 NA
BRANCH  18  19
ATOM     19  S   UNL     1       4.041  -0.831  -0.018  0.00  0.00    +0.092 S 
ATOM     20  O   UNL     1       5.077   0.006   0.475  0.00  0.00    -0.148 OA
ATOM     21  O   UNL     1       3.770  -2.113   0.531  0.00  0.00    -0.148 OA
BRANCH  19  22
ATOM     22  C   UNL     1       2.546   0.095   0.102  0.00  0.00    +0.110 A 
ATOM     23  C   UNL     1       1.331  -0.561   0.177  0.00  0.00    +0.029 A 
ATOM     24  C   UNL     1       0.159   0.165   0.271  0.00  0.00    +0.002 A 
ATOM     25  C   UNL     1       0.201   1.546   0.290  0.00  0.00    +0.000 A 
ATOM     26  C   UNL     1       1.415   2.202   0.216  0.00  0.00    +0.002 A 
ATOM     27  C   UNL     1       2.588   1.476   0.122  0.00  0.00    +0.029 A 
ENDBRANCH  19  22
ENDBRANCH  18  19
ENDBRANCH   7  18
TORSDOF 4
