REMARK  Name = ZINC00451730
REMARK  3 active torsions:
REMARK  status: ('A' for Active; 'I' for Inactive)
REMARK    1  A    between atoms: C_5  and  N_7
REMARK    2  A    between atoms: C_8  and  C_10
REMARK    3  A    between atoms: C_12  and  N_17
REMARK                            x       y       z     vdW  Elec       q    Type
REMARK                         _______ _______ _______ _____ _____    ______ ____
ROOT
ATOM      1  N   UNL     1       1.237  -2.073  -0.019  0.00  0.00    -0.281 N 
ATOM      2  C   UNL     1       0.187  -2.760  -0.510  0.00  0.00    +0.250 C 
ATOM      3  O   UNL     1      -0.739  -2.166  -1.028  0.00  0.00    -0.270 OA
ATOM      4  H   UNL     1       2.011  -2.548   0.321  0.00  0.00    +0.155 HD
ENDROOT
BRANCH   1   9
ATOM      5  C   UNL     1      -0.028   1.372   0.038  0.00  0.00    +0.002 A 
ATOM      6  C   UNL     1       1.157   2.079   0.032  0.00  0.00    +0.004 A 
ATOM      7  C   UNL     1       2.378   1.417   0.011  0.00  0.00    -0.042 A 
ATOM      8  C   UNL     1       2.408   0.042  -0.002  0.00  0.00    -0.023 A 
ATOM      9  C   UNL     1       1.211  -0.674   0.000  0.00  0.00    +0.037 A 
ATOM     10  C   UNL     1      -0.005  -0.008   0.021  0.00  0.00    +0.023 A 
ATOM     11  C   UNL     1       3.695  -0.742  -0.009  0.00  0.00    +0.037 C 
ATOM     12  C   UNL     1       4.862   0.145  -0.439  0.00  0.00    +0.005 C 
ATOM     13  C   UNL     1       4.840   1.420   0.412  0.00  0.00    +0.005 C 
ATOM     14  C   UNL     1       3.630   2.255  -0.002  0.00  0.00    +0.035 C 
ENDBRANCH   1   9
BRANCH   2  15
ATOM     15  C   UNL     1       0.161  -4.234  -0.419  0.00  0.00    +0.057 A 
ATOM     16  C   UNL     1       1.220  -4.919   0.180  0.00  0.00    +0.047 A 
ATOM     17  C   UNL     1       1.190  -6.295   0.261  0.00  0.00    +0.127 A 
ATOM     18  C   UNL     1       0.112  -6.999  -0.248  0.00  0.00    +0.034 A 
ATOM     19  C   UNL     1      -0.941  -6.328  -0.844  0.00  0.00    +0.023 A 
ATOM     20  C   UNL     1      -0.926  -4.949  -0.928  0.00  0.00    +0.053 A 
ATOM     21 CL   UNL     1      -2.252  -4.109  -1.668  0.00  0.00    -0.083 Cl
BRANCH  17  22
ATOM     22  N   UNL     1       2.312  -7.022   0.896  0.00  0.00    +0.056 N 
ATOM     23  O   UNL     1       3.254  -6.409   1.341  0.00  0.00    -0.126 OA
ATOM     24  O   UNL     1       2.287  -8.228   0.968  0.00  0.00    -0.126 OA
ENDBRANCH  17  22
ENDBRANCH   2  15
TORSDOF 3
