REMARK  Name = ZINC09561020
REMARK  11 active torsions:
REMARK  status: ('A' for Active; 'I' for Inactive)
REMARK    1  A    between atoms: C_1  and  C_2
REMARK    2  A    between atoms: C_2  and  O_3
REMARK    3  A    between atoms: O_3  and  C_4
REMARK    4  A    between atoms: C_9  and  N_10
REMARK    5  A    between atoms: C_11  and  C_13
REMARK    6  A    between atoms: N_23  and  C_36
REMARK    7  A    between atoms: C_24  and  C_26
REMARK    8  A    between atoms: N_28  and  C_35
REMARK    9  A    between atoms: C_36  and  C_37
REMARK   10  A    between atoms: C_37  and  O_38
REMARK   11  A    between atoms: O_38  and  C_39
REMARK                            x       y       z     vdW  Elec       q    Type
REMARK                         _______ _______ _______ _____ _____    ______ ____
ROOT
ATOM      1  C   UNL     1       3.331  -1.035  -5.433  0.00  0.00    +0.131 C 
ATOM      2  C   UNL     1       2.292  -0.159  -6.082  0.00  0.00    -0.021 A 
ATOM      3  C   UNL     1       1.990   1.080  -5.559  0.00  0.00    +0.005 A 
ATOM      4  C   UNL     1       1.022   1.866  -6.161  0.00  0.00    +0.000 A 
ATOM      5  C   UNL     1       0.354   1.417  -7.286  0.00  0.00    +0.001 A 
ATOM      6  C   UNL     1       0.651   0.180  -7.822  0.00  0.00    +0.013 A 
ATOM      7  C   UNL     1       1.630  -0.612  -7.225  0.00  0.00    +0.041 A 
ATOM      8  C   UNL     1       1.998  -1.924  -7.796  0.00  0.00    +0.247 C 
ATOM      9  O   UNL     1       1.294  -2.446  -8.639  0.00  0.00    -0.270 OA
ATOM     10  N   UNL     1       3.120  -2.537  -7.373  0.00  0.00    -0.287 N 
ATOM     11  C   UNL     1       4.062  -1.854  -6.494  0.00  0.00    +0.125 C 
ENDROOT
BRANCH  11  12
ATOM     12  C   UNL     1       4.930  -0.936  -7.315  0.00  0.00    -0.001 A 
ATOM     13  C   UNL     1       4.603  -0.360  -8.482  0.00  0.00    +0.092 A 
ATOM     14  N   UNL     1       5.643   0.406  -8.933  0.00  0.00    -0.349 N 
ATOM     15  C   UNL     1       6.692   0.340  -8.044  0.00  0.00    +0.049 A 
ATOM     16  C   UNL     1       6.290  -0.498  -6.988  0.00  0.00    +0.005 A 
ATOM     17  C   UNL     1       7.160  -0.747  -5.925  0.00  0.00    +0.010 A 
ATOM     18  C   UNL     1       8.399  -0.171  -5.914  0.00  0.00    +0.001 A 
ATOM     19  C   UNL     1       8.800   0.660  -6.951  0.00  0.00    +0.002 A 
ATOM     20  C   UNL     1       7.960   0.912  -8.014  0.00  0.00    +0.026 A 
ATOM     21  C   UNL     1       5.641   1.181 -10.176  0.00  0.00    +0.149 C 
ENDBRANCH  11  12
BRANCH   1  23
ATOM     22  N   UNL     1       1.953  -1.467  -3.424  0.00  0.00    -0.282 N 
ATOM     23  C   UNL     1       2.659  -1.967  -4.458  0.00  0.00    +0.227 C 
ATOM     24  O   UNL     1       2.753  -3.168  -4.603  0.00  0.00    -0.275 OA
ATOM     25  H   UNL     1       1.810  -0.511  -3.352  0.00  0.00    +0.155 HD
BRANCH  22  31
ATOM     26  C   UNL     1       0.317  -1.943  -1.704  0.00  0.00    +0.142 A 
ATOM     27  C   UNL     1      -0.203  -2.801  -0.749  0.00  0.00    +0.047 A 
ATOM     28  C   UNL     1       0.382  -4.036  -0.538  0.00  0.00    +0.004 A 
ATOM     29  C   UNL     1       1.486  -4.418  -1.277  0.00  0.00    +0.002 A 
ATOM     30  C   UNL     1       2.010  -3.568  -2.232  0.00  0.00    +0.027 A 
ATOM     31  C   UNL     1       1.426  -2.329  -2.453  0.00  0.00    +0.076 A 
BRANCH  26  32
ATOM     32  O   UNL     1      -0.257  -0.728  -1.914  0.00  0.00    -0.490 OA
BRANCH  32  34
ATOM     33  C   UNL     1      -1.896   0.995  -1.485  0.00  0.00    +0.048 C 
ATOM     34  C   UNL     1      -1.391  -0.399  -1.109  0.00  0.00    +0.226 C 
ENDBRANCH  32  34
ENDBRANCH  26  32
ENDBRANCH  22  31
ENDBRANCH   1  23
BRANCH  10  35
ATOM     35  C   UNL     1       3.398  -3.909  -7.803  0.00  0.00    +0.137 C 
BRANCH  35  36
ATOM     36  C   UNL     1       4.204  -3.883  -9.103  0.00  0.00    +0.178 C 
BRANCH  36  37
ATOM     37  O   UNL     1       5.484  -3.297  -8.859  0.00  0.00    -0.381 OA
ATOM     38  C   UNL     1       6.320  -3.224 -10.015  0.00  0.00    +0.194 C 
ENDBRANCH  36  37
ENDBRANCH  35  36
ENDBRANCH  10  35
TORSDOF 8
