REMARK  Name = ZINC45681162
REMARK  10 active torsions:
REMARK  status: ('A' for Active; 'I' for Inactive)
REMARK    1  A    between atoms: C_1  and  C_2
REMARK    2  A    between atoms: C_2  and  C_3
REMARK    3  A    between atoms: C_3  and  C_27
REMARK    4  A    between atoms: N_6  and  C_10
REMARK    5  A    between atoms: C_10  and  N_11
REMARK    6  A    between atoms: C_14  and  C_17
REMARK    7  A    between atoms: C_17  and  C_18
REMARK    8  A    between atoms: C_18  and  C_19
REMARK    9  A    between atoms: C_22  and  O_25
REMARK   10  A    between atoms: O_25  and  C_26
REMARK                            x       y       z     vdW  Elec       q    Type
REMARK                         _______ _______ _______ _____ _____    ______ ____
ROOT
ATOM      1  C   UNL     1       3.442   1.474  -2.834  0.00  0.00    +0.043 C 
ENDROOT
BRANCH   1   5
ATOM      2  C   UNL     1       0.718  -0.497  -1.257  0.00  0.00    +0.138 C 
ATOM      3  C   UNL     1       2.144   0.016  -1.295  0.00  0.00    +0.249 C 
ATOM      4  O   UNL     1       3.025  -0.210  -0.494  0.00  0.00    -0.272 OA
ATOM      5  N   UNL     1       2.228   0.775  -2.405  0.00  0.00    -0.241 N 
ATOM      6  C   UNL     1       1.066   0.812  -3.067  0.00  0.00    +0.308 C 
ATOM      7  O   UNL     1       0.895   1.432  -4.099  0.00  0.00    -0.252 OA
ATOM      8  N   UNL     1       0.107   0.087  -2.463  0.00  0.00    -0.281 N 
ATOM      9  H   UNL     1      -0.807  -0.029  -2.764  0.00  0.00    +0.152 HD
BRANCH   2  10
ATOM     10  C   UNL     1       0.691  -2.003  -1.325  0.00  0.00    -0.015 A 
ATOM     11  C   UNL     1       0.664  -2.747  -0.160  0.00  0.00    +0.007 A 
ATOM     12  C   UNL     1       0.639  -4.127  -0.221  0.00  0.00    +0.020 A 
ATOM     13  C   UNL     1       0.641  -4.765  -1.449  0.00  0.00    +0.041 A 
ATOM     14  C   UNL     1       0.669  -4.020  -2.615  0.00  0.00    +0.020 A 
ATOM     15  C   UNL     1       0.688  -2.639  -2.552  0.00  0.00    +0.007 A 
ATOM     16 CL   UNL     1       0.611  -6.498  -1.528  0.00  0.00    -0.084 Cl
ENDBRANCH   2  10
BRANCH   2  18
ATOM     17  C   UNL     1      -0.019   1.526   0.010  0.00  0.00    +0.007 C 
ATOM     18  C   UNL     1       0.002  -0.004   0.002  0.00  0.00    +0.037 C 
ENDBRANCH   2  18
ENDBRANCH   1   5
BRANCH   1  19
ATOM     19  N   UNL     1       4.230   0.595  -3.709  0.00  0.00    +0.390 N 
ATOM     20  C   UNL     1       3.473   0.324  -4.938  0.00  0.00    -0.076 C 
ATOM     21  C   UNL     1       4.254  -0.656  -5.816  0.00  0.00    -0.015 C 
ATOM     22  C   UNL     1       5.610  -0.042  -6.176  0.00  0.00    -0.014 C 
ATOM     23  C   UNL     1       6.359   0.305  -4.886  0.00  0.00    -0.015 C 
ATOM     24  C   UNL     1       5.501   1.249  -4.042  0.00  0.00    -0.076 C 
ATOM     25  H   UNL     1       4.415  -0.275  -3.232  0.00  0.00    -0.079 HD
BRANCH  22  26
ATOM     26  C   UNL     1       6.428  -1.048  -6.988  0.00  0.00    +0.008 C 
BRANCH  26  27
ATOM     27  C   UNL     1       7.729  -0.390  -7.452  0.00  0.00    +0.035 C 
BRANCH  27  28
ATOM     28  C   UNL     1       8.535  -1.381  -8.253  0.00  0.00    -0.047 A 
ATOM     29  C   UNL     1       9.443  -2.207  -7.616  0.00  0.00    +0.007 A 
ATOM     30  C   UNL     1      10.183  -3.115  -8.348  0.00  0.00    +0.046 A 
ATOM     31  C   UNL     1      10.014  -3.199  -9.722  0.00  0.00    +0.120 A 
ATOM     32  C   UNL     1       9.102  -2.370 -10.358  0.00  0.00    +0.046 A 
ATOM     33  C   UNL     1       8.360  -1.466  -9.621  0.00  0.00    +0.007 A 
BRANCH  31  34
ATOM     34  O   UNL     1      10.741  -4.092 -10.444  0.00  0.00    -0.495 OA
ATOM     35  C   UNL     1      10.515  -4.123 -11.854  0.00  0.00    +0.277 C 
ENDBRANCH  31  34
ENDBRANCH  27  28
ENDBRANCH  26  27
ENDBRANCH  22  26
ENDBRANCH   1  19
TORSDOF 8
