REMARK  Name = ZINC18330552
REMARK  6 active torsions:
REMARK  status: ('A' for Active; 'I' for Inactive)
REMARK    1  A    between atoms: C_1  and  C_2
REMARK    2  A    between atoms: C_2  and  C_4
REMARK    3  A    between atoms: C_2  and  S_20
REMARK    4  A    between atoms: C_10  and  C_15
REMARK    5  A    between atoms: S_20  and  C_21
REMARK    6  A    between atoms: N_26  and  C_27
REMARK                            x       y       z     vdW  Elec       q    Type
REMARK                         _______ _______ _______ _____ _____    ______ ____
ROOT
ATOM      1  C   UNL     1      -2.988   0.661  -1.417  0.00  0.00    +0.027 C 
ATOM      2  C   UNL     1      -2.482   0.817   0.018  0.00  0.00    +0.116 C 
ENDROOT
BRANCH   2   3
ATOM      3  C   UNL     1      -1.203   1.615   0.017  0.00  0.00    +0.124 A 
ATOM      4  N   UNL     1      -0.011   0.966   0.007  0.00  0.00    -0.309 N 
ATOM      5  H   UNL     1       0.002  -0.004   0.002  0.00  0.00    +0.170 HD
ATOM      6  C   UNL     1       1.153   1.641  -0.000  0.00  0.00    +0.260 A 
ATOM      7  O   UNL     1       2.215   1.044  -0.014  0.00  0.00    -0.267 OA
ATOM      8  C   UNL     1       1.125   3.072   0.008  0.00  0.00    +0.083 A 
ATOM      9  C   UNL     1       2.236   4.017   0.002  0.00  0.00    +0.039 A 
ATOM     10  C   UNL     1       1.961   5.346   0.011  0.00  0.00    +0.059 A 
ATOM     11  S   UNL     1       0.179   5.398   0.029  0.00  0.00    -0.076 S 
ATOM     12  C   UNL     1      -0.153   3.655   0.023  0.00  0.00    +0.116 A 
ATOM     13  N   UNL     1      -1.261   2.920   0.029  0.00  0.00    -0.225 NA
BRANCH   9  14
ATOM     14  C   UNL     1       3.633   3.537  -0.014  0.00  0.00    +0.136 A 
ATOM     15  C   UNL     1       4.609   3.948  -0.868  0.00  0.00    +0.050 A 
ATOM     16  C   UNL     1       5.776   3.236  -0.524  0.00  0.00    +0.042 A 
ATOM     17  C   UNL     1       5.456   2.429   0.506  0.00  0.00    +0.196 A 
ATOM     18  O   UNL     1       4.160   2.613   0.812  0.00  0.00    -0.463 OA
ENDBRANCH   9  14
ENDBRANCH   2   3
BRANCH   2  19
ATOM     19  S   UNL     1      -3.732   1.679   1.010  0.00  0.00    -0.086 S 
BRANCH  19  20
ATOM     20  C   UNL     1      -5.097   0.566   1.038  0.00  0.00    +0.161 A 
ATOM     21  N   UNL     1      -5.217  -0.624   0.480  0.00  0.00    -0.133 NA
ATOM     22  N   UNL     1      -6.385  -1.335   0.629  0.00  0.00    -0.125 NA
ATOM     23  C   UNL     1      -7.380  -0.824   1.328  0.00  0.00    +0.183 A 
ATOM     24  S   UNL     1      -6.686   0.742   1.834  0.00  0.00    -0.025 S 
ATOM     25  N   UNL     1      -8.632  -1.363   1.601  0.00  0.00    -0.319 N 
ATOM     26  H   UNL     1      -9.268  -0.864   2.137  0.00  0.00    +0.148 HD
BRANCH  25  27
ATOM     27  C   UNL     1      -8.990  -2.684   1.081  0.00  0.00    +0.072 C 
ATOM     28  C   UNL     1      -9.526  -2.542  -0.346  0.00  0.00    +0.022 C 
ATOM     29  C   UNL     1      -9.900  -3.922  -0.890  0.00  0.00    +0.002 C 
ATOM     30  C   UNL     1     -10.978  -4.545  -0.000  0.00  0.00    +0.000 C 
ATOM     31  C   UNL     1     -10.442  -4.688   1.426  0.00  0.00    +0.002 C 
ATOM     32  C   UNL     1     -10.068  -3.308   1.970  0.00  0.00    +0.022 C 
ENDBRANCH  25  27
ENDBRANCH  19  20
ENDBRANCH   2  19
TORSDOF 5
