REMARK  Name = ZINC62221973
REMARK  13 active torsions:
REMARK  status: ('A' for Active; 'I' for Inactive)
REMARK    1  A    between atoms: C_1  and  C_2
REMARK    2  A    between atoms: C_2  and  C_3
REMARK    3  A    between atoms: C_3  and  C_5
REMARK    4  A    between atoms: C_3  and  C_6
REMARK    5  A    between atoms: C_6  and  C_8
REMARK    6  A    between atoms: C_6  and  N_24
REMARK    7  A    between atoms: N_10  and  C_11
REMARK    8  A    between atoms: C_11  and  C_12
REMARK    9  A    between atoms: C_25  and  O_27
REMARK   10  A    between atoms: O_27  and  C_28
REMARK   11  A    between atoms: C_28  and  C_29
REMARK   12  A    between atoms: C_28  and  C_30
REMARK   13  A    between atoms: C_28  and  C_31
REMARK                            x       y       z     vdW  Elec       q    Type
REMARK                         _______ _______ _______ _____ _____    ______ ____
ROOT
ATOM      1  C   UNL     1      -3.327  -0.930  -1.424  0.00  0.00    +0.234 C 
ATOM      2  O   UNL     1      -4.378  -0.390  -1.698  0.00  0.00    -0.274 OA
ATOM      3  N   UNL     1      -3.291  -2.256  -1.191  0.00  0.00    -0.309 N 
ATOM      4  H   UNL     1      -2.465  -2.676  -0.901  0.00  0.00    +0.149 HD
ENDROOT
BRANCH   1   5
ATOM      5  C   UNL     1      -2.061  -0.116  -1.346  0.00  0.00    +0.165 C 
BRANCH   5   6
ATOM      6  N   UNL     1      -2.365   1.290  -1.625  0.00  0.00    -0.270 N 
ATOM      7  C   UNL     1      -1.453   2.067  -2.240  0.00  0.00    +0.401 C 
ATOM      8  O   UNL     1      -0.416   1.581  -2.648  0.00  0.00    -0.226 OA
ATOM      9  H   UNL     1      -3.224   1.660  -1.368  0.00  0.00    +0.153 HD
BRANCH   7  10
ATOM     10  O   UNL     1      -1.689   3.383  -2.403  0.00  0.00    -0.445 OA
BRANCH  10  11
ATOM     11  C   UNL     1      -0.678   4.147  -3.064  0.00  0.00    +0.107 C 
ATOM     12  C   UNL     1      -0.458   3.592  -4.472  0.00  0.00    +0.055 C 
ATOM     13  C   UNL     1      -1.122   5.608  -3.155  0.00  0.00    +0.055 C 
ATOM     14  C   UNL     1       0.627   4.059  -2.271  0.00  0.00    +0.055 C 
ENDBRANCH  10  11
ENDBRANCH   7  10
ENDBRANCH   5   6
BRANCH   5  15
ATOM     15  C   UNL     1      -1.462  -0.239   0.057  0.00  0.00    +0.015 C 
ATOM     16  C   UNL     1      -0.095   0.447   0.089  0.00  0.00    +0.010 C 
BRANCH  15  18
ATOM     17  C   UNL     1      -3.684  -0.381   1.190  0.00  0.00    +0.004 C 
ATOM     18  C   UNL     1      -2.393   0.431   1.069  0.00  0.00    +0.002 C 
ENDBRANCH  15  18
ENDBRANCH   5  15
ENDBRANCH   1   5
BRANCH   3  19
ATOM     19  C   UNL     1      -4.498  -3.066  -1.374  0.00  0.00    +0.145 C 
BRANCH  19  20
ATOM     20  C   UNL     1      -4.192  -4.505  -1.050  0.00  0.00    +0.034 A 
ATOM     21  C   UNL     1      -4.454  -4.989   0.190  0.00  0.00    +0.020 A 
ATOM     22  C   UNL     1      -4.145  -6.391   0.473  0.00  0.00    -0.001 A 
ATOM     23  C   UNL     1      -4.393  -6.947   1.732  0.00  0.00    +0.010 A 
ATOM     24  C   UNL     1      -4.094  -8.260   1.964  0.00  0.00    +0.001 A 
ATOM     25  C   UNL     1      -3.547  -9.047   0.961  0.00  0.00    +0.002 A 
ATOM     26  C   UNL     1      -3.294  -8.521  -0.287  0.00  0.00    +0.026 A 
ATOM     27  C   UNL     1      -3.591  -7.187  -0.547  0.00  0.00    +0.049 A 
ATOM     28  N   UNL     1      -3.349  -6.635  -1.787  0.00  0.00    -0.322 N 
ATOM     29  H   UNL     1      -2.966  -7.185  -2.489  0.00  0.00    +0.169 HD
ATOM     30  C   UNL     1      -3.640  -5.347  -2.039  0.00  0.00    +0.254 A 
ATOM     31  O   UNL     1      -3.418  -4.893  -3.148  0.00  0.00    -0.268 OA
ENDBRANCH  19  20
ENDBRANCH   3  19
TORSDOF 8
