REMARK  Name = ZINC57562772
REMARK  7 active torsions:
REMARK  status: ('A' for Active; 'I' for Inactive)
REMARK    1  A    between atoms: C_1  and  C_2
REMARK    2  A    between atoms: C_5  and  C_7
REMARK    3  A    between atoms: C_7  and  C_9
REMARK    4  A    between atoms: C_7  and  N_28
REMARK    5  A    between atoms: C_9  and  N_10
REMARK    6  A    between atoms: N_13  and  C_14
REMARK    7  A    between atoms: C_14  and  C_15
REMARK                            x       y       z     vdW  Elec       q    Type
REMARK                         _______ _______ _______ _____ _____    ______ ____
ROOT
ATOM      1  N   UNL     1       3.687  -3.903  -0.934  0.00  0.00    -0.297 N 
ATOM      2  C   UNL     1       4.343  -4.396  -2.003  0.00  0.00    +0.300 C 
ATOM      3  O   UNL     1       4.057  -4.013  -3.122  0.00  0.00    -0.253 OA
ATOM      4  N   UNL     1       5.317  -5.312  -1.833  0.00  0.00    -0.295 N 
ATOM      5  H   UNL     1       3.916  -4.208  -0.042  0.00  0.00    +0.150 HD
ATOM      6  H   UNL     1       5.545  -5.617  -0.941  0.00  0.00    +0.151 HD
ENDROOT
BRANCH   1   7
ATOM      7  C   UNL     1       2.629  -2.907  -1.119  0.00  0.00    +0.132 C 
BRANCH   7   8
ATOM      8  C   UNL     1       2.139  -2.423   0.247  0.00  0.00    +0.140 C 
BRANCH   8  13
ATOM      9  C   UNL     1       6.327  -1.464   2.889  0.00  0.00    +0.086 C 
ATOM     10  C   UNL     1       5.068  -1.255   2.089  0.00  0.00    +0.102 A 
ATOM     11  C   UNL     1       4.544  -0.065   1.744  0.00  0.00    +0.045 A 
ATOM     12  C   UNL     1       3.370  -0.334   1.003  0.00  0.00    +0.046 A 
ATOM     13  C   UNL     1       3.247  -1.672   0.940  0.00  0.00    +0.124 A 
ATOM     14  O   UNL     1       4.281  -2.224   1.594  0.00  0.00    -0.463 OA
ENDBRANCH   8  13
BRANCH   8  15
ATOM     15  N   UNL     1       1.746  -3.579   1.064  0.00  0.00    -0.287 NA
ATOM     16  C   UNL     1       0.690  -4.357   0.401  0.00  0.00    +0.113 C 
ATOM     17  C   UNL     1       0.353  -5.582   1.256  0.00  0.00    +0.175 C 
ATOM     18  O   UNL     1      -0.032  -5.152   2.565  0.00  0.00    -0.377 OA
ATOM     19  C   UNL     1       0.974  -4.391   3.240  0.00  0.00    +0.175 C 
ATOM     20  C   UNL     1       1.317  -3.154   2.405  0.00  0.00    +0.113 C 
ENDBRANCH   8  15
ENDBRANCH   7   8
ENDBRANCH   1   7
BRANCH   4  21
ATOM     21  C   UNL     1       6.030  -5.847  -2.995  0.00  0.00    +0.142 C 
BRANCH  21  22
ATOM     22  C   UNL     1       7.061  -6.846  -2.536  0.00  0.00    -0.014 A 
ATOM     23  C   UNL     1       8.349  -6.432  -2.224  0.00  0.00    +0.010 A 
ATOM     24  C   UNL     1       9.264  -7.381  -1.806  0.00  0.00    +0.042 A 
ATOM     25  C   UNL     1       8.866  -8.710  -1.713  0.00  0.00    +0.099 A 
ATOM     26  N   UNL     1       7.628  -9.066  -2.019  0.00  0.00    -0.349 N 
ATOM     27  C   UNL     1       6.732  -8.181  -2.415  0.00  0.00    +0.089 A 
ATOM     28  N   UNL     1       9.776  -9.675  -1.295  0.00  0.00    -0.317 N 
ATOM     29  C   UNL     1      11.075  -9.245  -0.828  0.00  0.00    +0.106 C 
ATOM     30  C   UNL     1      12.058  -9.171  -2.022  0.00  0.00    +0.019 C 
ATOM     31  C   UNL     1      12.399 -10.524  -2.488  0.00  0.00    +0.002 C 
ATOM     32  C   UNL     1      11.214 -11.321  -3.023  0.00  0.00    +0.002 C 
ATOM     33  C   UNL     1      10.506 -11.997  -1.875  0.00  0.00    +0.019 C 
ATOM     34  C   UNL     1       9.374 -11.094  -1.341  0.00  0.00    +0.106 C 
ATOM     35  H   UNL     1       7.372  -9.999  -1.947  0.00  0.00    +0.167 HD
ENDBRANCH  21  22
ENDBRANCH   4  21
TORSDOF 6
