REMARK  Name = ZINC02595211
REMARK  9 active torsions:
REMARK  status: ('A' for Active; 'I' for Inactive)
REMARK    1  A    between atoms: C_1  and  C_2
REMARK    2  A    between atoms: C_2  and  C_3
REMARK    3  A    between atoms: C_2  and  O_4
REMARK    4  A    between atoms: O_4  and  C_5
REMARK    5  A    between atoms: C_8  and  C_11
REMARK    6  A    between atoms: N_13  and  C_14
REMARK    7  A    between atoms: C_14  and  C_28
REMARK    8  A    between atoms: N_17  and  C_21
REMARK    9  A    between atoms: C_18  and  O_20
REMARK                            x       y       z     vdW  Elec       q    Type
REMARK                         _______ _______ _______ _____ _____    ______ ____
ROOT
ATOM      1  C   UNL     1      -5.899  -1.540  -6.270  0.00  0.00    +0.304 C 
ATOM      2  C   UNL     1      -5.973  -0.203  -6.982  0.00  0.00    +0.279 C 
ATOM      3  O   UNL     1      -5.050   0.519  -7.292  0.00  0.00    -0.270 OA
ATOM      4  N   UNL     1      -7.289   0.008  -7.196  0.00  0.00    -0.219 N 
ATOM      5  C   UNL     1      -8.032  -1.034  -6.703  0.00  0.00    +0.288 C 
ATOM      6  N   UNL     1      -7.306  -1.958  -6.159  0.00  0.00    -0.192 NA
ENDROOT
BRANCH   4   7
ATOM      7  C   UNL     1      -7.847   1.188  -7.861  0.00  0.00    +0.086 C 
ATOM      8  C   UNL     1      -8.739   1.950  -6.861  0.00  0.00    +0.023 C 
ATOM      9  C   UNL     1      -8.889   3.369  -7.339  0.00  0.00    +0.002 C 
ATOM     10  C   UNL     1     -10.158   3.574  -8.188  0.00  0.00    +0.000 C 
ATOM     11  C   UNL     1     -10.409   2.418  -9.176  0.00  0.00    +0.000 C 
ATOM     12  C   UNL     1      -9.146   1.949  -9.846  0.00  0.00    +0.002 C 
ATOM     13  C   UNL     1      -8.579   0.760  -9.044  0.00  0.00    +0.023 C 
ENDBRANCH   4   7
BRANCH   1  16
ATOM     14  C   UNL     1      -4.077  -0.838  -4.813  0.00  0.00    +0.246 C 
ATOM     15  O   UNL     1      -3.500  -0.402  -5.791  0.00  0.00    -0.270 OA
ATOM     16  N   UNL     1      -5.303  -1.383  -4.941  0.00  0.00    -0.273 N 
ATOM     17  H   UNL     1      -5.790  -1.672  -4.154  0.00  0.00    +0.152 HD
BRANCH  14  21
ATOM     18  C   UNL     1      -2.231  -0.639  -0.994  0.00  0.00    +0.121 A 
ATOM     19  C   UNL     1      -1.569  -0.142  -2.111  0.00  0.00    +0.046 A 
ATOM     20  C   UNL     1      -2.164  -0.204  -3.351  0.00  0.00    +0.016 A 
ATOM     21  C   UNL     1      -3.435  -0.769  -3.486  0.00  0.00    +0.037 A 
ATOM     22  C   UNL     1      -4.097  -1.269  -2.361  0.00  0.00    +0.016 A 
ATOM     23  C   UNL     1      -3.493  -1.207  -1.125  0.00  0.00    +0.046 A 
BRANCH  18  24
ATOM     24  O   UNL     1      -1.641  -0.576   0.226  0.00  0.00    -0.489 OA
BRANCH  24  26
ATOM     25  C   UNL     1      -0.583   1.591   0.394  0.00  0.00    +0.051 C 
ATOM     26  C   UNL     1      -0.372   0.078   0.300  0.00  0.00    +0.167 C 
ATOM     27  C   UNL     1       0.381  -0.409   1.540  0.00  0.00    +0.051 C 
ENDBRANCH  24  26
ENDBRANCH  18  24
ENDBRANCH  14  21
ENDBRANCH   1  16
BRANCH   1  28
ATOM     28  C   UNL     1      -5.103  -2.550  -7.099  0.00  0.00    +0.440 C 
ATOM     29  F   UNL     1      -5.116  -3.793  -6.457  0.00  0.00    -0.166 F 
ATOM     30  F   UNL     1      -5.683  -2.674  -8.366  0.00  0.00    -0.166 F 
ATOM     31  F   UNL     1      -3.783  -2.107  -7.231  0.00  0.00    -0.166 F 
ENDBRANCH   1  28
BRANCH   5  32
ATOM     32  O   UNL     1      -9.380  -1.091  -6.778  0.00  0.00    -0.481 OA
ATOM     33  H   UNL     1      -9.762  -1.889  -6.387  0.00  0.00    +0.295 HD
ENDBRANCH   5  32
TORSDOF 7
