REMARK  Name = ZINC65329844
REMARK  9 active torsions:
REMARK  status: ('A' for Active; 'I' for Inactive)
REMARK    1  A    between atoms: C_1  and  N_2
REMARK    2  A    between atoms: N_2  and  C_3
REMARK    3  A    between atoms: N_2  and  C_4
REMARK    4  A    between atoms: C_8  and  C_10
REMARK    5  A    between atoms: C_10  and  N_12
REMARK    6  A    between atoms: N_14  and  C_15
REMARK    7  A    between atoms: N_22  and  C_23
REMARK    8  A    between atoms: C_23  and  C_24
REMARK    9  A    between atoms: C_24  and  C_25
REMARK                            x       y       z     vdW  Elec       q    Type
REMARK                         _______ _______ _______ _____ _____    ______ ____
ROOT
ATOM      1  N   UNL     1       0.402  -1.127  -6.747  0.00  0.00    -0.143 NA
ATOM      2  C   UNL     1       0.593   0.143  -7.071  0.00  0.00    +0.194 C 
ATOM      3  N   UNL     1      -0.129   1.122  -6.452  0.00  0.00    -0.328 N 
ATOM      4  N   UNL     1       1.512   0.473  -8.024  0.00  0.00    -0.357 N 
ATOM      5  H   UNL     1      -0.127   1.187  -5.484  0.00  0.00    +0.169 HD
ATOM      6  H   UNL     1       1.991  -0.225  -8.498  0.00  0.00    +0.162 HD
ENDROOT
BRANCH   3   7
ATOM      7  C   UNL     1      -0.872   2.031  -7.213  0.00  0.00    +0.042 A 
ATOM      8  C   UNL     1      -1.506   1.610  -8.375  0.00  0.00    +0.028 A 
ATOM      9  C   UNL     1      -2.239   2.509  -9.125  0.00  0.00    +0.040 A 
ATOM     10  C   UNL     1      -2.343   3.829  -8.719  0.00  0.00    +0.124 A 
ATOM     11  C   UNL     1      -1.712   4.250  -7.560  0.00  0.00    +0.040 A 
ATOM     12  C   UNL     1      -0.982   3.354  -6.805  0.00  0.00    +0.028 A 
ATOM     13  F   UNL     1      -3.060   4.707  -9.454  0.00  0.00    -0.205 F 
ENDBRANCH   3   7
BRANCH   1  14
ATOM     14  C   UNL     1      -0.593  -1.463  -5.915  0.00  0.00    +0.270 C 
ATOM     15  O   UNL     1      -1.263  -0.595  -5.385  0.00  0.00    -0.268 OA
BRANCH  14  20
ATOM     16  C   UNL     1      -2.173  -4.581  -4.523  0.00  0.00    +0.030 A 
ATOM     17  C   UNL     1      -1.404  -5.566  -5.132  0.00  0.00    +0.023 A 
ATOM     18  C   UNL     1      -0.379  -5.216  -5.989  0.00  0.00    +0.003 A 
ATOM     19  C   UNL     1      -0.111  -3.886  -6.247  0.00  0.00    +0.013 A 
ATOM     20  C   UNL     1      -0.877  -2.891  -5.640  0.00  0.00    +0.041 A 
ATOM     21  C   UNL     1      -1.916  -3.243  -4.780  0.00  0.00    +0.036 A 
BRANCH  16  23
ATOM     22  C   UNL     1      -4.023  -3.902  -3.019  0.00  0.00    +0.129 C 
ATOM     23  N   UNL     1      -3.209  -4.940  -3.656  0.00  0.00    -0.336 N 
ATOM     24  C   UNL     1      -3.481  -6.353  -3.385  0.00  0.00    +0.129 C 
ENDBRANCH  16  23
ENDBRANCH  14  20
ENDBRANCH   1  14
BRANCH   4  25
ATOM     25  C   UNL     1       1.775   1.881  -8.332  0.00  0.00    +0.120 C 
BRANCH  25  26
ATOM     26  C   UNL     1       2.842   1.973  -9.425  0.00  0.00    +0.054 C 
BRANCH  26  27
ATOM     27  C   UNL     1       3.200   3.418  -9.656  0.00  0.00    -0.040 C 
ATOM     28  C   UNL     1       4.204   4.111  -9.071  0.00  0.00    -0.001 A 
ATOM     29  C   UNL     1       5.223   3.740  -8.081  0.00  0.00    +0.010 A 
ATOM     30  C   UNL     1       6.115   4.673  -7.677  0.00  0.00    +0.001 A 
ATOM     31  C   UNL     1       6.091   5.982  -8.178  0.00  0.00    +0.002 A 
ATOM     32  C   UNL     1       5.185   6.397  -9.089  0.00  0.00    +0.026 A 
ATOM     33  C   UNL     1       4.200   5.499  -9.585  0.00  0.00    +0.043 A 
ATOM     34  N   UNL     1       3.232   5.659 -10.454  0.00  0.00    -0.380 N 
ATOM     35  C   UNL     1       2.515   4.386 -10.594  0.00  0.00    +0.144 C 
ATOM     36  H   UNL     1       3.026   6.480 -10.928  0.00  0.00    +0.160 HD
ENDBRANCH  26  27
ENDBRANCH  25  26
ENDBRANCH   4  25
TORSDOF 7
