REMARK  Name = ZINC09505429
REMARK  11 active torsions:
REMARK  status: ('A' for Active; 'I' for Inactive)
REMARK    1  A    between atoms: C_1  and  C_2
REMARK    2  A    between atoms: C_2  and  C_3
REMARK    3  A    between atoms: N_12  and  C_13
REMARK    4  A    between atoms: C_13  and  C_14
REMARK    5  A    between atoms: C_14  and  C_15
REMARK    6  A    between atoms: C_15  and  N_63
REMARK    7  A    between atoms: C_16  and  N_63
REMARK    8  A    between atoms: C_17  and  N_63
REMARK    9  A    between atoms: C_18  and  C_20
REMARK   10  A    between atoms: N_25  and  S_26
REMARK   11  A    between atoms: S_26  and  C_29
REMARK                            x       y       z     vdW  Elec       q    Type
REMARK                         _______ _______ _______ _____ _____    ______ ____
ROOT
ATOM      1  C   UNL     1       0.410   6.521  -0.154  0.00  0.00    -0.046 A 
ATOM      2  C   UNL     1       1.677   6.077  -0.504  0.00  0.00    +0.006 A 
ATOM      3  C   UNL     1       1.957   4.743  -0.636  0.00  0.00    +0.029 A 
ATOM      4  C   UNL     1       0.955   3.769  -0.418  0.00  0.00    +0.080 A 
ATOM      5  C   UNL     1      -0.323   4.257  -0.065  0.00  0.00    +0.041 A 
ATOM      6  C   UNL     1      -0.595   5.596   0.065  0.00  0.00    +0.021 A 
ATOM      7  S   UNL     1      -1.266   2.761   0.106  0.00  0.00    -0.052 S 
ATOM      8  C   UNL     1       0.054   1.619  -0.280  0.00  0.00    +0.168 A 
ATOM      9  N   UNL     1       1.065   2.425  -0.507  0.00  0.00    -0.224 NA
ATOM     10  N   UNL     1       0.018   0.235  -0.333  0.00  0.00    -0.249 N 
ATOM     11  C   UNL     1      -1.129  -0.420  -0.064  0.00  0.00    +0.240 C 
ATOM     12  O   UNL     1      -2.104   0.194   0.314  0.00  0.00    -0.273 OA
ENDROOT
BRANCH  11  13
ATOM     13  C   UNL     1      -1.200  -1.916  -0.234  0.00  0.00    +0.166 C 
ATOM     14  C   UNL     1      -0.692  -2.614   1.045  0.00  0.00    +0.031 C 
ATOM     15  C   UNL     1      -1.651  -3.826   1.183  0.00  0.00    +0.019 C 
ATOM     16  C   UNL     1      -2.985  -3.228   0.671  0.00  0.00    +0.110 C 
ATOM     17  N   UNL     1      -2.596  -2.330  -0.433  0.00  0.00    -0.164 NA
BRANCH  17  18
ATOM     18  S   UNL     1      -3.572  -1.866  -1.688  0.00  0.00    +0.068 S 
ATOM     19  O   UNL     1      -4.911  -2.001  -1.232  0.00  0.00    -0.152 OA
ATOM     20  O   UNL     1      -3.053  -0.635  -2.172  0.00  0.00    -0.152 OA
BRANCH  18  21
ATOM     21  C   UNL     1      -3.357  -3.046  -2.979  0.00  0.00    +0.143 A 
ATOM     22  C   UNL     1      -4.035  -4.198  -3.204  0.00  0.00    +0.036 A 
ATOM     23  C   UNL     1      -3.693  -4.974  -4.295  0.00  0.00    +0.010 A 
ATOM     24  C   UNL     1      -2.683  -4.567  -5.101  0.00  0.00    +0.047 A 
ATOM     25  S   UNL     1      -2.185  -3.038  -4.325  0.00  0.00    -0.077 S 
ENDBRANCH  18  21
ENDBRANCH  17  18
ENDBRANCH  11  13
BRANCH   1  27
ATOM     26  C   UNL     1      -0.327   8.556  -1.365  0.00  0.00    +0.009 C 
ATOM     27  C   UNL     1       0.130   7.995  -0.017  0.00  0.00    +0.032 C 
ENDBRANCH   1  27
BRANCH  10  28
ATOM     28  C   UNL     1       1.226  -0.516  -0.680  0.00  0.00    +0.114 C 
BRANCH  28  29
ATOM     29  C   UNL     1       2.076  -0.724   0.575  0.00  0.00    +0.001 C 
BRANCH  29  30
ATOM     30  C   UNL     1       3.341  -1.504   0.211  0.00  0.00    -0.078 C 
BRANCH  30  33
ATOM     31  C   UNL     1       5.255  -2.645   1.159  0.00  0.00    -0.097 C 
ATOM     32  C   UNL     1       4.670  -0.424   1.923  0.00  0.00    -0.097 C 
ATOM     33  N   UNL     1       4.141  -1.715   1.436  0.00  0.00    +0.376 N 
ATOM     34  H   UNL     1       3.538  -2.123   2.161  0.00  0.00    -0.083 HD
ENDBRANCH  30  33
ENDBRANCH  29  30
ENDBRANCH  28  29
ENDBRANCH  10  28
TORSDOF 8
