REMARK  Name = ZINC12780027
REMARK  6 active torsions:
REMARK  status: ('A' for Active; 'I' for Inactive)
REMARK    1  A    between atoms: C_1  and  C_2
REMARK    2  A    between atoms: C_2  and  C_4
REMARK    3  A    between atoms: C_2  and  S_17
REMARK    4  A    between atoms: N_6  and  C_7
REMARK    5  A    between atoms: S_17  and  C_18
REMARK    6  A    between atoms: C_21  and  C_23
REMARK                            x       y       z     vdW  Elec       q    Type
REMARK                         _______ _______ _______ _____ _____    ______ ____
ROOT
ATOM      1  C   UNL     1      -3.235   7.749  -0.009  0.00  0.00    +0.029 C 
ATOM      2  C   UNL     1      -2.132   7.259  -0.950  0.00  0.00    +0.138 C 
ENDROOT
BRANCH   2   3
ATOM      3  C   UNL     1      -2.112   5.752  -0.958  0.00  0.00    +0.227 C 
ATOM      4  O   UNL     1      -2.637   5.143  -1.866  0.00  0.00    -0.275 OA
ATOM      5  N   UNL     1      -1.510   5.081   0.044  0.00  0.00    -0.309 N 
ATOM      6  H   UNL     1      -1.089   5.567   0.770  0.00  0.00    +0.149 HD
BRANCH   5   7
ATOM      7  C   UNL     1      -1.490   3.616   0.036  0.00  0.00    +0.035 C 
ATOM      8  C   UNL     1      -0.773   3.123  -1.223  0.00  0.00    +0.029 C 
ATOM      9  C   UNL     1      -0.753   1.593  -1.232  0.00  0.00    -0.008 C 
ATOM     10  C   UNL     1      -0.013   1.086   0.008  0.00  0.00    +0.007 C 
ATOM     11  C   UNL     1      -0.729   1.579   1.267  0.00  0.00    -0.008 C 
ATOM     12  C   UNL     1      -0.750   3.109   1.275  0.00  0.00    +0.029 C 
ATOM     13  C   UNL     1      -2.164   1.050   1.278  0.00  0.00    +0.007 C 
ATOM     14  C   UNL     1      -2.904   1.556   0.038  0.00  0.00    -0.008 C 
ATOM     15  C   UNL     1      -2.188   1.063  -1.221  0.00  0.00    +0.007 C 
ATOM     16  C   UNL     1      -2.925   3.086   0.047  0.00  0.00    +0.029 C 
ENDBRANCH   5   7
ENDBRANCH   2   3
BRANCH   2  17
ATOM     17  S   UNL     1      -2.453   7.867  -2.624  0.00  0.00    -0.053 S 
BRANCH  17  18
ATOM     18  C   UNL     1      -2.275   9.600  -2.359  0.00  0.00    +0.278 A 
ATOM     19  N   UNL     1      -1.987  10.187  -1.220  0.00  0.00    -0.101 NA
ATOM     20  N   UNL     1      -1.936  11.460  -1.395  0.00  0.00    -0.106 NA
ATOM     21  C   UNL     1      -2.189  11.738  -2.651  0.00  0.00    +0.250 A 
ATOM     22  O   UNL     1      -2.404  10.566  -3.289  0.00  0.00    -0.411 OA
BRANCH  21  23
ATOM     23  C   UNL     1      -2.227  13.084  -3.259  0.00  0.00    +0.052 A 
ATOM     24  C   UNL     1      -2.505  13.232  -4.619  0.00  0.00    +0.014 A 
ATOM     25  C   UNL     1      -2.543  14.492  -5.179  0.00  0.00    +0.001 A 
ATOM     26  C   UNL     1      -2.296  15.607  -4.399  0.00  0.00    +0.001 A 
ATOM     27  C   UNL     1      -2.015  15.469  -3.051  0.00  0.00    +0.016 A 
ATOM     28  C   UNL     1      -1.979  14.214  -2.477  0.00  0.00    +0.030 A 
ATOM     29 BR   UNL     1      -1.593  14.026  -0.635  0.00  0.00    -0.050 Br
ENDBRANCH  21  23
ENDBRANCH  17  18
ENDBRANCH   2  17
TORSDOF 5
