REMARK  Name = ZINC50310000
REMARK  5 active torsions:
REMARK  status: ('A' for Active; 'I' for Inactive)
REMARK    1  A    between atoms: C_1  and  C_2
REMARK    2  A    between atoms: C_2  and  C_3
REMARK    3  A    between atoms: C_2  and  C_4
REMARK    4  A    between atoms: C_5  and  N_24
REMARK    5  A    between atoms: C_6  and  C_10
REMARK                            x       y       z     vdW  Elec       q    Type
REMARK                         _______ _______ _______ _____ _____    ______ ____
ROOT
ATOM      1  C   UNL     1      -2.996  -3.751  -4.234  0.00  0.00    +0.060 A 
ATOM      2  C   UNL     1      -2.775  -3.120  -3.050  0.00  0.00    +0.078 A 
ATOM      3  C   UNL     1      -4.055  -2.968  -2.458  0.00  0.00    +0.168 A 
ATOM      4  N   UNL     1      -4.932  -3.497  -3.290  0.00  0.00    -0.167 NA
ATOM      5  N   UNL     1      -4.336  -3.954  -4.332  0.00  0.00    -0.279 N 
ATOM      6  H   UNL     1      -4.779  -4.383  -5.081  0.00  0.00    +0.189 HD
ENDROOT
BRANCH   3   7
ATOM      7  C   UNL     1      -4.350  -2.339  -1.157  0.00  0.00    +0.269 C 
ATOM      8  O   UNL     1      -3.464  -1.786  -0.534  0.00  0.00    -0.268 OA
ATOM      9  N   UNL     1      -5.601  -2.378  -0.658  0.00  0.00    -0.296 N 
ATOM     10  C   UNL     1      -5.949  -1.623   0.554  0.00  0.00    +0.108 C 
ATOM     11  C   UNL     1      -6.580  -2.583   1.566  0.00  0.00    +0.023 C 
ATOM     12  C   UNL     1      -7.765  -3.302   0.915  0.00  0.00    -0.005 C 
ATOM     13  C   UNL     1      -8.412  -4.237   1.939  0.00  0.00    +0.004 C 
ATOM     14  C   UNL     1      -9.594  -4.963   1.295  0.00  0.00    +0.000 C 
ATOM     15  C   UNL     1      -9.098  -5.782   0.102  0.00  0.00    +0.000 C 
ATOM     16  C   UNL     1      -8.456  -4.847  -0.924  0.00  0.00    +0.005 C 
ATOM     17  C   UNL     1      -7.274  -4.115  -0.285  0.00  0.00    +0.010 C 
ATOM     18  C   UNL     1      -6.647  -3.170  -1.319  0.00  0.00    +0.112 C 
ENDBRANCH   3   7
BRANCH   1  20
ATOM     19  C   UNL     1      -1.989  -5.661  -5.453  0.00  0.00    +0.014 C 
ATOM     20  C   UNL     1      -1.954  -4.145  -5.247  0.00  0.00    +0.033 C 
ATOM     21  C   UNL     1      -2.243  -3.443  -6.576  0.00  0.00    +0.014 C 
ENDBRANCH   1  20
BRANCH   2  22
ATOM     22  N   UNL     1      -1.542  -2.706  -2.525  0.00  0.00    -0.355 N 
ATOM     23  H   UNL     1      -0.725  -2.865  -3.024  0.00  0.00    +0.142 HD
ATOM     24  H   UNL     1      -1.505  -2.262  -1.664  0.00  0.00    +0.142 HD
ENDBRANCH   2  22
TORSDOF 3
