REMARK  Name = ZINC08712464
REMARK  12 active torsions:
REMARK  status: ('A' for Active; 'I' for Inactive)
REMARK    1  A    between atoms: C_1  and  C_2
REMARK    2  A    between atoms: C_4  and  C_46
REMARK    3  A    between atoms: C_6  and  S_8
REMARK    4  A    between atoms: S_8  and  C_9
REMARK    5  A    between atoms: C_9  and  C_10
REMARK    6  A    between atoms: N_12  and  C_13
REMARK    7  A    between atoms: N_12  and  C_25
REMARK    8  A    between atoms: C_13  and  C_14
REMARK    9  A    between atoms: C_16  and  C_19
REMARK   10  A    between atoms: C_25  and  C_27
REMARK   11  A    between atoms: C_25  and  C_34
REMARK   12  A    between atoms: N_36  and  C_37
REMARK                            x       y       z     vdW  Elec       q    Type
REMARK                         _______ _______ _______ _____ _____    ______ ____
ROOT
ATOM      1  C   UNL     1       0.674  -0.839   2.265  0.00  0.00    +0.227 C 
ATOM      2  O   UNL     1      -0.332  -0.279   2.645  0.00  0.00    -0.275 OA
ATOM      3  N   UNL     1       1.021  -0.792   0.964  0.00  0.00    -0.283 N 
ENDROOT
BRANCH   1   4
ATOM      4  C   UNL     1       1.537  -1.587   3.248  0.00  0.00    +0.173 C 
BRANCH   4   5
ATOM      5  S   UNL     1       0.812  -1.465   4.902  0.00  0.00    -0.077 S 
BRANCH   5  11
ATOM      6  C   UNL     1       5.110  -4.234   5.131  0.00  0.00    +0.066 C 
ATOM      7  C   UNL     1       3.931  -3.635   5.854  0.00  0.00    +0.043 A 
ATOM      8  C   UNL     1       3.778  -3.818   7.220  0.00  0.00    +0.046 A 
ATOM      9  C   UNL     1       2.680  -3.250   7.846  0.00  0.00    +0.043 A 
ATOM     10  N   UNL     1       1.815  -2.555   7.127  0.00  0.00    -0.227 NA
ATOM     11  C   UNL     1       1.989  -2.399   5.822  0.00  0.00    +0.189 A 
ATOM     12  N   UNL     1       3.026  -2.933   5.192  0.00  0.00    -0.227 NA
ATOM     13  C   UNL     1       2.474  -3.423   9.329  0.00  0.00    +0.066 C 
ENDBRANCH   5  11
ENDBRANCH   4   5
ENDBRANCH   1   4
BRANCH   3  14
ATOM     14  C   UNL     1       2.184  -1.545   0.488  0.00  0.00    +0.171 C 
BRANCH  14  15
ATOM     15  C   UNL     1       3.416  -0.683   0.586  0.00  0.00    +0.096 A 
ATOM     16  N   UNL     1       4.248  -0.553   1.590  0.00  0.00    -0.242 NA
ATOM     17  C   UNL     1       5.297   0.252   1.518  0.00  0.00    +0.078 A 
ATOM     18  C   UNL     1       5.484   0.959   0.361  0.00  0.00    +0.075 A 
ATOM     19  S   UNL     1       4.085   0.396  -0.598  0.00  0.00    -0.078 S 
BRANCH  17  20
ATOM     20  C   UNL     1       6.237   0.387   2.658  0.00  0.00    +0.001 A 
ATOM     21  C   UNL     1       6.085  -0.414   3.789  0.00  0.00    +0.010 A 
ATOM     22  C   UNL     1       6.966  -0.287   4.844  0.00  0.00    +0.001 A 
ATOM     23  C   UNL     1       7.991   0.640   4.785  0.00  0.00    +0.000 A 
ATOM     24  C   UNL     1       8.143   1.441   3.668  0.00  0.00    +0.001 A 
ATOM     25  C   UNL     1       7.272   1.319   2.605  0.00  0.00    +0.010 A 
ENDBRANCH  17  20
ENDBRANCH  14  15
ENDBRANCH   3  14
BRANCH   3  26
ATOM     26  C   UNL     1       0.234   0.012   0.024  0.00  0.00    +0.166 C 
BRANCH  26  27
ATOM     27  C   UNL     1       0.124   1.445   0.548  0.00  0.00    +0.023 C 
ATOM     28  C   UNL     1       1.526   2.008   0.811  0.00  0.00    +0.010 C 
ATOM     29  C   UNL     1       1.381   3.367   1.499  0.00  0.00    +0.027 C 
ATOM     30  C   UNL     1       0.406   4.225   0.747  0.00  0.00    -0.031 C 
ATOM     31  C   UNL     1      -0.443   3.771  -0.119  0.00  0.00    -0.031 C 
ATOM     32  C   UNL     1      -0.567   2.323  -0.497  0.00  0.00    +0.032 C 
ENDBRANCH  26  27
BRANCH  26  33
ATOM     33  C   UNL     1      -1.144  -0.581  -0.112  0.00  0.00    +0.238 C 
ATOM     34  O   UNL     1      -1.576  -1.317   0.749  0.00  0.00    -0.273 OA
ATOM     35  N   UNL     1      -1.897  -0.294  -1.192  0.00  0.00    -0.284 N 
ATOM     36  H   UNL     1      -1.578   0.343  -1.851  0.00  0.00    +0.155 HD
BRANCH  35  37
ATOM     37  C   UNL     1      -3.141  -0.915  -1.365  0.00  0.00    +0.037 A 
ATOM     38  C   UNL     1      -3.937  -1.193  -0.261  0.00  0.00    +0.027 A 
ATOM     39  C   UNL     1      -5.164  -1.806  -0.429  0.00  0.00    +0.051 A 
ATOM     40  C   UNL     1      -5.604  -2.144  -1.699  0.00  0.00    +0.166 A 
ATOM     41  C   UNL     1      -4.808  -1.866  -2.808  0.00  0.00    +0.168 A 
ATOM     42  C   UNL     1      -3.581  -1.247  -2.639  0.00  0.00    +0.072 A 
ATOM     43  O   UNL     1      -5.458  -2.292  -3.930  0.00  0.00    -0.453 OA
ATOM     44  C   UNL     1      -6.473  -3.201  -3.464  0.00  0.00    +0.466 C 
ATOM     45  O   UNL     1      -6.753  -2.745  -2.127  0.00  0.00    -0.453 OA
ENDBRANCH  35  37
ENDBRANCH  26  33
ENDBRANCH   3  26
TORSDOF 10
