REMARK  Name = ZINC41513647
REMARK  14 active torsions:
REMARK  status: ('A' for Active; 'I' for Inactive)
REMARK    1  A    between atoms: C_1  and  C_2
REMARK    2  A    between atoms: C_4  and  O_31
REMARK    3  A    between atoms: C_5  and  C_21
REMARK    4  A    between atoms: C_11  and  C_12
REMARK    5  A    between atoms: C_13  and  C_14
REMARK    6  A    between atoms: C_21  and  N_22
REMARK    7  A    between atoms: N_22  and  C_23
REMARK    8  A    between atoms: N_22  and  C_27
REMARK    9  A    between atoms: C_23  and  C_24
REMARK   10  A    between atoms: C_24  and  C_25
REMARK   11  A    between atoms: C_24  and  C_26
REMARK   12  A    between atoms: C_27  and  C_28
REMARK   13  A    between atoms: C_28  and  C_29
REMARK   14  A    between atoms: C_28  and  C_30
REMARK                            x       y       z     vdW  Elec       q    Type
REMARK                         _______ _______ _______ _____ _____    ______ ____
ROOT
ATOM      1  C   UNL     1      -1.299   0.235   2.330  0.00  0.00    +0.045 C 
ATOM      2  C   UNL     1      -0.914  -1.123   1.803  0.00  0.00    -0.033 A 
ATOM      3  C   UNL     1      -1.032  -1.399   0.470  0.00  0.00    +0.050 A 
ATOM      4  C   UNL     1      -0.676  -2.653  -0.019  0.00  0.00    +0.122 A 
ATOM      5  C   UNL     1      -0.201  -3.634   0.836  0.00  0.00    +0.020 A 
ATOM      6  C   UNL     1      -0.075  -3.370   2.194  0.00  0.00    +0.145 A 
ATOM      7  C   UNL     1      -0.432  -2.099   2.675  0.00  0.00    +0.071 A 
ATOM      8  C   UNL     1      -0.186  -2.122   4.128  0.00  0.00    +0.232 C 
ATOM      9  O   UNL     1      -0.368  -1.221   4.930  0.00  0.00    -0.283 OA
ATOM     10  C   UNL     1       0.327  -3.471   4.395  0.00  0.00    +0.176 C 
ATOM     11  C   UNL     1       0.698  -3.966   5.612  0.00  0.00    +0.050 C 
ATOM     12  O   UNL     1       0.354  -4.139   3.219  0.00  0.00    -0.451 OA
ENDROOT
BRANCH  11  13
ATOM     13  C   UNL     1       1.174  -5.287   5.719  0.00  0.00    +0.004 C 
ATOM     14  C   UNL     1       1.542  -5.778   6.926  0.00  0.00    +0.008 C 
BRANCH  14  15
ATOM     15  C   UNL     1       2.040  -7.157   7.038  0.00  0.00    -0.025 A 
ATOM     16  C   UNL     1       2.140  -7.963   5.899  0.00  0.00    +0.008 A 
ATOM     17  C   UNL     1       2.608  -9.255   6.012  0.00  0.00    +0.001 A 
ATOM     18  C   UNL     1       2.978  -9.755   7.249  0.00  0.00    +0.000 A 
ATOM     19  C   UNL     1       2.881  -8.964   8.381  0.00  0.00    +0.001 A 
ATOM     20  C   UNL     1       2.421  -7.668   8.284  0.00  0.00    +0.008 A 
ENDBRANCH  14  15
ENDBRANCH  11  13
BRANCH   4  21
ATOM     21  O   UNL     1      -0.797  -2.917  -1.345  0.00  0.00    -0.506 OA
ATOM     22  H   UNL     1      -0.039  -2.633  -1.873  0.00  0.00    +0.292 HD
ENDBRANCH   4  21
BRANCH   5  23
ATOM     23  C   UNL     1       0.179  -4.988   0.293  0.00  0.00    -0.036 C 
BRANCH  23  24
ATOM     24  N   UNL     1       1.629  -5.035   0.066  0.00  0.00    +0.383 N 
ATOM     25  H   UNL     1       2.111  -4.780   0.915  0.00  0.00    -0.081 HD
BRANCH  24  26
ATOM     26  C   UNL     1       2.019  -6.395  -0.329  0.00  0.00    -0.075 C 
BRANCH  26  27
ATOM     27  C   UNL     1       1.777  -7.354   0.837  0.00  0.00    -0.034 C 
ATOM     28  C   UNL     1       2.080  -8.786   0.391  0.00  0.00    +0.005 C 
ATOM     29  C   UNL     1       2.692  -6.979   2.005  0.00  0.00    +0.005 C 
ENDBRANCH  26  27
ENDBRANCH  24  26
BRANCH  24  30
ATOM     30  C   UNL     1       1.989  -4.092  -1.002  0.00  0.00    -0.075 C 
BRANCH  30  31
ATOM     31  C   UNL     1       3.511  -4.026  -1.133  0.00  0.00    -0.034 C 
ATOM     32  C   UNL     1       3.883  -3.126  -2.312  0.00  0.00    +0.005 C 
ATOM     33  C   UNL     1       4.110  -3.454   0.154  0.00  0.00    +0.005 C 
ENDBRANCH  30  31
ENDBRANCH  24  30
ENDBRANCH  23  24
ENDBRANCH   5  23
TORSDOF 9
