REMARK  Name = ZINC67202478
REMARK  8 active torsions:
REMARK  status: ('A' for Active; 'I' for Inactive)
REMARK    1  A    between atoms: C_1  and  C_2
REMARK    2  A    between atoms: C_2  and  C_27
REMARK    3  A    between atoms: N_5  and  C_9
REMARK    4  A    between atoms: C_9  and  C_10
REMARK    5  A    between atoms: N_12  and  C_13
REMARK    6  A    between atoms: C_13  and  C_14
REMARK    7  A    between atoms: N_19  and  C_20
REMARK    8  A    between atoms: C_20  and  C_21
REMARK                            x       y       z     vdW  Elec       q    Type
REMARK                         _______ _______ _______ _____ _____    ______ ____
ROOT
ATOM      1  C   UNL     1      -2.517  -3.217   0.978  0.00  0.00    +0.231 C 
ATOM      2  O   UNL     1      -1.588  -3.792   0.452  0.00  0.00    -0.274 OA
ATOM      3  N   UNL     1      -3.624  -3.902   1.327  0.00  0.00    -0.316 N 
ATOM      4  H   UNL     1      -4.367  -3.441   1.747  0.00  0.00    +0.149 HD
ENDROOT
BRANCH   1   5
ATOM      5  C   UNL     1      -2.433  -1.735   1.242  0.00  0.00    +0.213 C 
BRANCH   5  10
ATOM      6  C   UNL     1       0.680   1.145  -0.778  0.00  0.00    +0.042 C 
ATOM      7  C   UNL     1       0.546  -0.353  -0.492  0.00  0.00    +0.113 C 
ATOM      8  C   UNL     1      -0.913  -0.763  -0.468  0.00  0.00    +0.247 C 
ATOM      9  O   UNL     1      -1.710  -0.688  -1.378  0.00  0.00    -0.273 OA
ATOM     10  N   UNL     1      -1.139  -1.229   0.776  0.00  0.00    -0.215 N 
ATOM     11  C   UNL     1      -0.038  -1.170   1.533  0.00  0.00    +0.310 C 
ATOM     12  O   UNL     1       0.006  -1.535   2.692  0.00  0.00    -0.252 OA
ATOM     13  N   UNL     1       1.016  -0.664   0.868  0.00  0.00    -0.285 N 
ATOM     14  H   UNL     1       1.912  -0.531   1.217  0.00  0.00    +0.151 HD
BRANCH   7  15
ATOM     15  C   UNL     1       1.321  -1.168  -1.530  0.00  0.00    +0.021 C 
ATOM     16  C   UNL     1       2.314  -2.209  -1.011  0.00  0.00    +0.006 C 
ATOM     17  C   UNL     1       2.825  -0.915  -1.648  0.00  0.00    +0.006 C 
ENDBRANCH   7  15
ENDBRANCH   5  10
ENDBRANCH   1   5
BRANCH   3  18
ATOM     18  C   UNL     1      -3.705  -5.341   1.070  0.00  0.00    +0.089 C 
BRANCH  18  19
ATOM     19  C   UNL     1      -4.988  -5.899   1.691  0.00  0.00    -0.051 C 
ATOM     20  C   UNL     1      -5.206  -7.354   1.228  0.00  0.00    -0.016 C 
ATOM     21  C   UNL     1      -5.761  -8.046   2.501  0.00  0.00    -0.020 C 
ATOM     22  C   UNL     1      -4.972  -7.322   3.620  0.00  0.00    -0.078 C 
ATOM     23  N   UNL     1      -4.866  -5.917   3.160  0.00  0.00    +0.383 N 
ATOM     24  H   UNL     1      -5.606  -5.367   3.569  0.00  0.00    -0.081 HD
BRANCH  23  25
ATOM     25  C   UNL     1      -3.564  -5.363   3.556  0.00  0.00    -0.075 C 
BRANCH  25  26
ATOM     26  C   UNL     1      -3.514  -5.215   5.078  0.00  0.00    -0.028 C 
ATOM     27  C   UNL     1      -3.314  -6.591   5.718  0.00  0.00    +0.002 C 
ATOM     28  C   UNL     1      -3.264  -6.442   7.239  0.00  0.00    +0.000 C 
ATOM     29  C   UNL     1      -2.100  -5.527   7.625  0.00  0.00    +0.000 C 
ATOM     30  C   UNL     1      -2.300  -4.151   6.985  0.00  0.00    +0.000 C 
ATOM     31  C   UNL     1      -2.350  -4.300   5.463  0.00  0.00    +0.002 C 
ENDBRANCH  25  26
ENDBRANCH  23  25
ENDBRANCH  18  19
ENDBRANCH   3  18
TORSDOF 7
