REMARK  Name = ZINC41550648
REMARK  6 active torsions:
REMARK  status: ('A' for Active; 'I' for Inactive)
REMARK    1  A    between atoms: C_1  and  C_2
REMARK    2  A    between atoms: C_9  and  N_13
REMARK    3  A    between atoms: C_10  and  C_11
REMARK    4  A    between atoms: C_14  and  C_16
REMARK    5  A    between atoms: C_25  and  O_27
REMARK    6  A    between atoms: O_27  and  C_28
REMARK                            x       y       z     vdW  Elec       q    Type
REMARK                         _______ _______ _______ _____ _____    ______ ____
ROOT
ATOM      1  N   UNL     1       0.685  -5.843   2.444  0.00  0.00    -0.275 N 
ATOM      2  C   UNL     1       1.676  -6.096   3.321  0.00  0.00    +0.250 C 
ATOM      3  O   UNL     1       2.450  -5.213   3.635  0.00  0.00    -0.270 OA
ATOM      4  H   UNL     1       0.115  -6.564   2.134  0.00  0.00    +0.156 HD
ENDROOT
BRANCH   2   5
ATOM      5  C   UNL     1       1.823  -7.452   3.902  0.00  0.00    +0.054 A 
ATOM      6  C   UNL     1       1.040  -8.489   3.477  0.00  0.00    +0.105 A 
ATOM      7  C   UNL     1       1.205  -9.772   4.052  0.00  0.00    +0.338 A 
ATOM      8  O   UNL     1       0.504 -10.689   3.667  0.00  0.00    -0.245 OA
ATOM      9  O   UNL     1       2.115 -10.003   5.011  0.00  0.00    -0.422 OA
ATOM     10  C   UNL     1       2.919  -9.024   5.476  0.00  0.00    +0.143 A 
ATOM     11  C   UNL     1       2.820  -7.723   4.950  0.00  0.00    +0.030 A 
ATOM     12  C   UNL     1       3.655  -6.709   5.427  0.00  0.00    +0.016 A 
ATOM     13  C   UNL     1       4.572  -6.986   6.400  0.00  0.00    +0.046 A 
ATOM     14  C   UNL     1       4.680  -8.273   6.922  0.00  0.00    +0.124 A 
ATOM     15  C   UNL     1       3.852  -9.287   6.468  0.00  0.00    +0.092 A 
BRANCH  14  16
ATOM     16  O   UNL     1       5.596  -8.534   7.889  0.00  0.00    -0.495 OA
ATOM     17  C   UNL     1       6.412  -7.443   8.321  0.00  0.00    +0.277 C 
ENDBRANCH  14  16
ENDBRANCH   2   5
BRANCH   1  25
ATOM     18  C   UNL     1      -0.041   1.537   0.048  0.00  0.00    +0.008 C 
ATOM     19  C   UNL     1      -0.024   0.007   0.036  0.00  0.00    -0.009 C 
ATOM     20  C   UNL     1      -1.460  -0.522   0.069  0.00  0.00    +0.008 C 
ATOM     21  C   UNL     1      -1.466  -2.030  -0.191  0.00  0.00    +0.037 C 
ATOM     22  C   UNL     1      -0.487  -2.693   0.767  0.00  0.00    -0.018 A 
ATOM     23  C   UNL     1       0.471  -1.979   1.398  0.00  0.00    -0.004 A 
ATOM     24  S   UNL     1       1.339  -3.165   2.382  0.00  0.00    -0.077 S 
ATOM     25  C   UNL     1       0.479  -4.552   1.984  0.00  0.00    +0.090 A 
ATOM     26  C   UNL     1      -0.482  -4.109   1.089  0.00  0.00    +0.084 A 
ATOM     27  C   UNL     1       0.728  -0.509   1.272  0.00  0.00    +0.046 C 
BRANCH  26  28
ATOM     28  C   UNL     1      -1.431  -5.010   0.508  0.00  0.00    +0.102 C 
ATOM     29  N   UNL     1      -2.184  -5.724   0.047  0.00  0.00    -0.191 NA
ENDBRANCH  26  28
ENDBRANCH   1  25
TORSDOF 4
