REMARK  Name = ZINC03221382
REMARK  12 active torsions:
REMARK  status: ('A' for Active; 'I' for Inactive)
REMARK    1  A    between atoms: C_1  and  C_2
REMARK    2  A    between atoms: C_2  and  C_3
REMARK    3  A    between atoms: C_7  and  C_35
REMARK    4  A    between atoms: C_8  and  N_9
REMARK    5  A    between atoms: C_10  and  C_29
REMARK    6  A    between atoms: C_13  and  S_14
REMARK    7  A    between atoms: S_14  and  C_15
REMARK    8  A    between atoms: C_15  and  C_16
REMARK    9  A    between atoms: N_18  and  C_19
REMARK   10  A    between atoms: C_24  and  O_25
REMARK   11  A    between atoms: O_25  and  C_26
REMARK   12  A    between atoms: C_35  and  C_36
REMARK                            x       y       z     vdW  Elec       q    Type
REMARK                         _______ _______ _______ _____ _____    ______ ____
ROOT
ATOM      1  N   UNL     1      -0.015   1.363   0.049  0.00  0.00    -0.270 N 
ATOM      2  C   UNL     1       1.308   1.751   0.049  0.00  0.00    +0.171 A 
ATOM      3  N   UNL     1       2.030   0.655   0.036  0.00  0.00    -0.128 NA
ATOM      4  N   UNL     1       1.264  -0.377   0.027  0.00  0.00    -0.122 NA
ATOM      5  C   UNL     1       0.004  -0.005   0.035  0.00  0.00    +0.197 A 
ENDROOT
BRANCH   1  11
ATOM      6  C   UNL     1      -1.697   2.626  -1.141  0.00  0.00    -0.023 A 
ATOM      7  C   UNL     1      -2.812   3.441  -1.131  0.00  0.00    +0.005 A 
ATOM      8  C   UNL     1      -3.368   3.839   0.070  0.00  0.00    +0.001 A 
ATOM      9  C   UNL     1      -2.814   3.417   1.265  0.00  0.00    +0.005 A 
ATOM     10  C   UNL     1      -1.703   2.597   1.261  0.00  0.00    -0.023 A 
ATOM     11  C   UNL     1      -1.142   2.196   0.056  0.00  0.00    +0.057 A 
BRANCH   6  13
ATOM     12  C   UNL     1      -1.647   0.832  -2.852  0.00  0.00    +0.009 C 
ATOM     13  C   UNL     1      -1.087   2.198  -2.452  0.00  0.00    +0.034 C 
ENDBRANCH   6  13
BRANCH  10  14
ATOM     14  C   UNL     1      -1.100   2.138   2.564  0.00  0.00    +0.034 C 
ATOM     15  C   UNL     1       0.045   3.075   2.954  0.00  0.00    +0.009 C 
ENDBRANCH  10  14
ENDBRANCH   1  11
BRANCH   2  16
ATOM     16  C   UNL     1       1.816   3.139   0.062  0.00  0.00    +0.038 A 
ATOM     17  C   UNL     1       3.156   3.403   0.372  0.00  0.00    +0.014 A 
ATOM     18  C   UNL     1       3.582   4.720   0.370  0.00  0.00    +0.020 A 
ATOM     19  C   UNL     1       2.679   5.723   0.064  0.00  0.00    +0.111 A 
ATOM     20  N   UNL     1       1.423   5.444  -0.226  0.00  0.00    -0.263 NA
ATOM     21  C   UNL     1       0.971   4.207  -0.242  0.00  0.00    +0.122 A 
ENDBRANCH   2  16
BRANCH   5  22
ATOM     22  S   UNL     1      -1.401  -1.069   0.029  0.00  0.00    -0.076 S 
BRANCH  22  23
ATOM     23  C   UNL     1      -0.575  -2.679   0.009  0.00  0.00    +0.173 C 
BRANCH  23  24
ATOM     24  C   UNL     1      -1.609  -3.775   0.002  0.00  0.00    +0.228 C 
ATOM     25  O   UNL     1      -2.789  -3.494   0.009  0.00  0.00    -0.275 OA
ATOM     26  N   UNL     1      -1.224  -5.066  -0.013  0.00  0.00    -0.282 N 
ATOM     27  H   UNL     1      -0.284  -5.291  -0.100  0.00  0.00    +0.155 HD
BRANCH  26  28
ATOM     28  C   UNL     1      -2.180  -6.084   0.097  0.00  0.00    +0.076 A 
ATOM     29  C   UNL     1      -3.396  -5.832   0.716  0.00  0.00    +0.027 A 
ATOM     30  C   UNL     1      -4.340  -6.837   0.818  0.00  0.00    +0.002 A 
ATOM     31  C   UNL     1      -4.071  -8.097   0.315  0.00  0.00    +0.004 A 
ATOM     32  C   UNL     1      -2.860  -8.356  -0.299  0.00  0.00    +0.048 A 
ATOM     33  C   UNL     1      -1.910  -7.353  -0.410  0.00  0.00    +0.148 A 
BRANCH  33  34
ATOM     34  O   UNL     1      -0.718  -7.607  -1.012  0.00  0.00    -0.432 OA
BRANCH  34  35
ATOM     35  C   UNL     1      -0.511  -8.932  -1.508  0.00  0.00    +0.541 C 
ATOM     36  F   UNL     1      -0.601  -9.845  -0.452  0.00  0.00    -0.166 F 
ATOM     37  F   UNL     1      -1.486  -9.229  -2.466  0.00  0.00    -0.166 F 
ENDBRANCH  34  35
ENDBRANCH  33  34
ENDBRANCH  26  28
ENDBRANCH  23  24
ENDBRANCH  22  23
ENDBRANCH   5  22
TORSDOF 10
