REMARK  Name = ZINC13500633
REMARK  11 active torsions:
REMARK  status: ('A' for Active; 'I' for Inactive)
REMARK    1  A    between atoms: C_1  and  C_2
REMARK    2  A    between atoms: C_9  and  C_14
REMARK    3  A    between atoms: C_14  and  N_69
REMARK    4  A    between atoms: C_15  and  N_69
REMARK    5  A    between atoms: C_20  and  C_22
REMARK    6  A    between atoms: C_20  and  C_35
REMARK    7  A    between atoms: C_20  and  N_69
REMARK    8  A    between atoms: N_26  and  C_27
REMARK    9  A    between atoms: C_27  and  C_28
REMARK   10  A    between atoms: C_35  and  C_36
REMARK   11  A    between atoms: C_35  and  C_37
REMARK                            x       y       z     vdW  Elec       q    Type
REMARK                         _______ _______ _______ _____ _____    ______ ____
ROOT
ATOM      1  N   UNL     1       1.426   4.106   1.776  0.00  0.00    +0.391 N 
ATOM      2  H   UNL     1       0.632   3.671   2.261  0.00  0.00    -0.080 HD
ENDROOT
BRANCH   1   3
ATOM      3  C   UNL     1       2.607   4.072   2.664  0.00  0.00    -0.067 C 
ATOM      4  C   UNL     1       3.799   4.820   2.030  0.00  0.00    -0.015 C 
ATOM      5  C   UNL     1       5.035   3.982   2.444  0.00  0.00    -0.002 C 
ATOM      6  C   UNL     1       4.510   2.527   2.350  0.00  0.00    -0.002 C 
ATOM      7  C   UNL     1       3.059   2.615   2.867  0.00  0.00    -0.015 C 
ENDBRANCH   1   3
BRANCH   1   8
ATOM      8  C   UNL     1       1.704   3.350   0.536  0.00  0.00    -0.036 C 
BRANCH   8  17
ATOM      9  C   UNL     1       8.646   3.779  -2.153  0.00  0.00    +0.044 C 
ATOM     10  C   UNL     1       7.252   4.334  -2.021  0.00  0.00    -0.050 A 
ATOM     11  C   UNL     1       6.920   5.522  -2.659  0.00  0.00    +0.005 A 
ATOM     12  C   UNL     1       5.651   6.048  -2.552  0.00  0.00    +0.026 A 
ATOM     13  C   UNL     1       4.691   5.384  -1.795  0.00  0.00    +0.049 A 
ATOM     14  C   UNL     1       5.030   4.181  -1.149  0.00  0.00    -0.001 A 
ATOM     15  C   UNL     1       6.325   3.666  -1.272  0.00  0.00    +0.013 A 
ATOM     16  C   UNL     1       4.013   3.490  -0.355  0.00  0.00    +0.017 A 
ATOM     17  C   UNL     1       2.775   4.036  -0.272  0.00  0.00    +0.001 A 
ATOM     18  C   UNL     1       2.485   5.245  -0.940  0.00  0.00    +0.251 A 
ATOM     19  O   UNL     1       1.365   5.719  -0.852  0.00  0.00    -0.268 OA
ATOM     20  N   UNL     1       3.413   5.888  -1.671  0.00  0.00    -0.322 N 
ATOM     21  H   UNL     1       3.181   6.717  -2.117  0.00  0.00    +0.169 HD
ENDBRANCH   8  17
ENDBRANCH   1   8
BRANCH   1  22
ATOM     22  C   UNL     1       1.081   5.505   1.448  0.00  0.00    +0.006 C 
BRANCH  22  23
ATOM     23  C   UNL     1       1.003   6.306   2.722  0.00  0.00    +0.139 A 
ATOM     24  N   UNL     1       0.419   5.944   3.839  0.00  0.00    -0.115 NA
ATOM     25  N   UNL     1       0.571   6.896   4.693  0.00  0.00    -0.023 NA
ATOM     26  N   UNL     1       1.229   7.859   4.148  0.00  0.00    -0.044 NA
ATOM     27  N   UNL     1       1.513   7.533   2.933  0.00  0.00    -0.226 N 
BRANCH  27  28
ATOM     28  C   UNL     1       2.252   8.346   1.964  0.00  0.00    +0.182 C 
BRANCH  28  29
ATOM     29  C   UNL     1       1.614   9.707   1.859  0.00  0.00    -0.026 A 
ATOM     30  C   UNL     1       0.586   9.920   0.959  0.00  0.00    +0.008 A 
ATOM     31  C   UNL     1      -0.004  11.166   0.865  0.00  0.00    +0.038 A 
ATOM     32  C   UNL     1       0.442  12.204   1.665  0.00  0.00    +0.123 A 
ATOM     33  C   UNL     1       1.475  11.991   2.562  0.00  0.00    +0.038 A 
ATOM     34  C   UNL     1       2.060  10.743   2.658  0.00  0.00    +0.008 A 
ATOM     35  F   UNL     1      -0.131  13.424   1.571  0.00  0.00    -0.205 F 
ENDBRANCH  28  29
ENDBRANCH  27  28
ENDBRANCH  22  23
BRANCH  22  36
ATOM     36  C   UNL     1      -0.280   5.526   0.748  0.00  0.00    -0.024 C 
ATOM     37  C   UNL     1      -1.344   4.950   1.685  0.00  0.00    +0.006 C 
ATOM     38  C   UNL     1      -0.645   6.967   0.386  0.00  0.00    +0.006 C 
ENDBRANCH  22  36
ENDBRANCH   1  22
TORSDOF 8
