REMARK  Name = ZINC24107635
REMARK  13 active torsions:
REMARK  status: ('A' for Active; 'I' for Inactive)
REMARK    1  A    between atoms: C_1  and  C_2
REMARK    2  A    between atoms: C_2  and  C_3
REMARK    3  A    between atoms: C_2  and  C_4
REMARK    4  A    between atoms: C_2  and  C_5
REMARK    5  A    between atoms: C_8  and  O_11
REMARK    6  A    between atoms: O_11  and  C_12
REMARK    7  A    between atoms: C_12  and  C_13
REMARK    8  A    between atoms: C_16  and  S_19
REMARK    9  A    between atoms: N_17  and  N_18
REMARK   10  A    between atoms: S_19  and  C_20
REMARK   11  A    between atoms: C_20  and  C_21
REMARK   12  A    between atoms: N_23  and  C_24
REMARK   13  A    between atoms: N_23  and  C_32
REMARK                            x       y       z     vdW  Elec       q    Type
REMARK                         _______ _______ _______ _____ _____    ______ ____
ROOT
ATOM      1  C   UNL     1       6.196  -1.861  -5.693  0.00  0.00    +0.189 A 
ATOM      2  N   UNL     1       6.593  -3.075  -5.951  0.00  0.00    -0.128 NA
ATOM      3  N   UNL     1       6.664  -3.255  -7.221  0.00  0.00    -0.121 NA
ATOM      4  C   UNL     1       6.312  -2.156  -7.848  0.00  0.00    +0.209 A 
ATOM      5  N   UNL     1       5.997  -1.234  -6.892  0.00  0.00    -0.225 N 
ENDROOT
BRANCH   5   6
ATOM      6  N   UNL     1       5.575   0.050  -7.092  0.00  0.00    -0.295 N 
ATOM      7  H   UNL     1       6.357   0.685  -7.138  0.00  0.00    +0.163 HD
ATOM      8  H   UNL     1       5.005   0.117  -7.921  0.00  0.00    +0.163 HD
ENDBRANCH   5   6
BRANCH   1   9
ATOM      9  C   UNL     1       5.986  -1.261  -4.326  0.00  0.00    +0.306 C 
BRANCH   9  10
ATOM     10  O   UNL     1       4.641  -1.495  -3.904  0.00  0.00    -0.484 OA
BRANCH  10  14
ATOM     11  C   UNL     1       3.561  -0.038  -0.199  0.00  0.00    -0.042 A 
ATOM     12  C   UNL     1       2.636  -0.717  -0.970  0.00  0.00    +0.008 A 
ATOM     13  C   UNL     1       2.995  -1.205  -2.211  0.00  0.00    +0.046 A 
ATOM     14  C   UNL     1       4.285  -1.014  -2.684  0.00  0.00    +0.121 A 
ATOM     15  C   UNL     1       5.212  -0.332  -1.908  0.00  0.00    +0.046 A 
ATOM     16  C   UNL     1       4.846   0.159  -0.670  0.00  0.00    +0.008 A 
BRANCH  11  18
ATOM     17  C   UNL     1       3.340   2.014   1.176  0.00  0.00    +0.015 C 
ATOM     18  C   UNL     1       3.167   0.494   1.155  0.00  0.00    -0.013 C 
ATOM     19  C   UNL     1       4.055  -0.136   2.229  0.00  0.00    +0.015 C 
ATOM     20  C   UNL     1       1.703   0.144   1.434  0.00  0.00    +0.015 C 
ENDBRANCH  11  18
ENDBRANCH  10  14
ENDBRANCH   9  10
ENDBRANCH   1   9
BRANCH   4  21
ATOM     21  S   UNL     1       6.252  -1.919  -9.593  0.00  0.00    -0.075 S 
BRANCH  21  22
ATOM     22  C   UNL     1       6.778  -3.518 -10.271  0.00  0.00    +0.173 C 
BRANCH  22  23
ATOM     23  C   UNL     1       6.770  -3.451 -11.777  0.00  0.00    +0.226 C 
ATOM     24  O   UNL     1       6.426  -2.432 -12.337  0.00  0.00    -0.275 OA
ATOM     25  N   UNL     1       7.147  -4.524 -12.501  0.00  0.00    -0.293 N 
BRANCH  25  26
ATOM     26  C   UNL     1       7.245  -4.426 -13.959  0.00  0.00    +0.099 C 
ATOM     27  C   UNL     1       5.864  -4.085 -14.543  0.00  0.00    +0.046 C 
ATOM     28  C   UNL     1       6.054  -3.681 -16.032  0.00  0.00    +0.168 C 
ATOM     29  S   UNL     1       7.588  -2.668 -15.914  0.00  0.00    -0.029 S 
ATOM     30  O   UNL     1       7.230  -1.304 -15.736  0.00  0.00    -0.174 OA
ATOM     31  O   UNL     1       8.463  -3.028 -16.974  0.00  0.00    -0.174 OA
ATOM     32  C   UNL     1       8.261  -3.319 -14.332  0.00  0.00    +0.188 C 
ENDBRANCH  25  26
BRANCH  25  33
ATOM     33  C   UNL     1       7.457  -5.788 -11.829  0.00  0.00    +0.077 C 
ATOM     34  C   UNL     1       8.187  -6.859 -12.642  0.00  0.00    +0.024 C 
ATOM     35  C   UNL     1       6.708  -7.038 -12.295  0.00  0.00    +0.024 C 
ENDBRANCH  25  33
ENDBRANCH  22  23
ENDBRANCH  21  22
ENDBRANCH   4  21
TORSDOF 10
