REMARK  Name = ZINC46278767
REMARK  8 active torsions:
REMARK  status: ('A' for Active; 'I' for Inactive)
REMARK    1  A    between atoms: C_1  and  C_2
REMARK    2  A    between atoms: C_2  and  C_3
REMARK    3  A    between atoms: C_2  and  C_4
REMARK    4  A    between atoms: C_4  and  C_6
REMARK    5  A    between atoms: C_4  and  N_20
REMARK    6  A    between atoms: N_8  and  C_9
REMARK    7  A    between atoms: C_9  and  C_10
REMARK    8  A    between atoms: N_23  and  C_24
REMARK                            x       y       z     vdW  Elec       q    Type
REMARK                         _______ _______ _______ _____ _____    ______ ____
ROOT
ATOM      1  C   UNL     1      -1.437  -0.535   0.012  0.00  0.00    +0.163 C 
ENDROOT
BRANCH   1   2
ATOM      2  N   UNL     1      -2.124  -0.064   1.216  0.00  0.00    -0.288 N 
ATOM      3  C   UNL     1      -2.703   1.153   1.229  0.00  0.00    +0.304 C 
ATOM      4  O   UNL     1      -2.654   1.860   0.241  0.00  0.00    -0.252 OA
ATOM      5  N   UNL     1      -3.335   1.588   2.337  0.00  0.00    -0.269 N 
ATOM      6  H   UNL     1      -2.163  -0.627   2.005  0.00  0.00    +0.151 HD
ATOM      7  H   UNL     1      -3.432   0.999   3.102  0.00  0.00    +0.156 HD
BRANCH   5   8
ATOM      8  C   UNL     1      -3.851   2.887   2.385  0.00  0.00    +0.035 A 
ATOM      9  C   UNL     1      -3.825   3.603   3.574  0.00  0.00    +0.023 A 
ATOM     10  C   UNL     1      -4.335   4.886   3.617  0.00  0.00    +0.002 A 
ATOM     11  C   UNL     1      -4.871   5.458   2.478  0.00  0.00    +0.000 A 
ATOM     12  C   UNL     1      -4.899   4.747   1.292  0.00  0.00    +0.002 A 
ATOM     13  C   UNL     1      -4.385   3.466   1.241  0.00  0.00    +0.023 A 
ENDBRANCH   5   8
ENDBRANCH   1   2
BRANCH   1  14
ATOM     14  C   UNL     1      -1.424  -2.042  -0.002  0.00  0.00    +0.234 C 
ATOM     15  O   UNL     1      -1.939  -2.661   0.905  0.00  0.00    -0.274 OA
ATOM     16  N   UNL     1      -0.841  -2.702  -1.022  0.00  0.00    -0.310 N 
ATOM     17  H   UNL     1      -0.430  -2.207  -1.748  0.00  0.00    +0.149 HD
BRANCH  16  18
ATOM     18  C   UNL     1      -0.830  -4.167  -1.036  0.00  0.00    +0.149 C 
BRANCH  18  19
ATOM     19  C   UNL     1      -0.112  -4.660  -2.294  0.00  0.00    +0.195 C 
ATOM     20  C   UNL     1      -0.136  -6.205  -2.369  0.00  0.00    +0.085 C 
ATOM     21  C   UNL     1       1.224  -6.511  -2.966  0.00  0.00    -0.002 A 
ATOM     22  C   UNL     1       1.744  -7.647  -3.547  0.00  0.00    +0.007 A 
ATOM     23  C   UNL     1       3.043  -7.646  -4.024  0.00  0.00    +0.000 A 
ATOM     24  C   UNL     1       3.813  -6.503  -3.916  0.00  0.00    +0.004 A 
ATOM     25  C   UNL     1       3.295  -5.366  -3.332  0.00  0.00    +0.046 A 
ATOM     26  C   UNL     1       1.990  -5.359  -2.846  0.00  0.00    +0.124 A 
ATOM     27  O   UNL     1       1.294  -4.363  -2.228  0.00  0.00    -0.487 OA
ENDBRANCH  18  19
ENDBRANCH  16  18
ENDBRANCH   1  14
BRANCH   1  29
ATOM     28  C   UNL     1      -0.011   1.516   0.022  0.00  0.00    +0.009 C 
ATOM     29  C   UNL     1       0.002  -0.014   0.008  0.00  0.00    +0.012 C 
ATOM     30  C   UNL     1       0.734  -0.529   1.248  0.00  0.00    +0.009 C 
ENDBRANCH   1  29
TORSDOF 6
