REMARK  Name = ZINC56736428
REMARK  5 active torsions:
REMARK  status: ('A' for Active; 'I' for Inactive)
REMARK    1  A    between atoms: C_1  and  C_2
REMARK    2  A    between atoms: C_2  and  C_3
REMARK    3  A    between atoms: C_2  and  C_4
REMARK    4  A    between atoms: C_2  and  C_5
REMARK    5  A    between atoms: C_17  and  C_20
REMARK                            x       y       z     vdW  Elec       q    Type
REMARK                         _______ _______ _______ _____ _____    ______ ____
ROOT
ATOM      1  C   UNL     1       0.710  -0.494  -1.235  0.00  0.00    +0.109 A 
ATOM      2  N   UNL     1       1.945  -0.281  -1.643  0.00  0.00    -0.144 NA
ATOM      3  N   UNL     1       2.329  -0.794  -2.732  0.00  0.00    -0.126 NA
ATOM      4  C   UNL     1       1.530  -1.537  -3.473  0.00  0.00    +0.189 A 
ATOM      5  S   UNL     1       0.110  -1.527  -2.564  0.00  0.00    -0.035 S 
ATOM      6  N   UNL     1       1.792  -2.169  -4.684  0.00  0.00    -0.247 N 
ATOM      7  C   UNL     1       3.010  -2.059  -5.252  0.00  0.00    +0.308 C 
ATOM      8  O   UNL     1       3.850  -1.335  -4.753  0.00  0.00    -0.252 OA
ATOM      9  N   UNL     1       3.296  -2.751  -6.372  0.00  0.00    -0.280 N 
ATOM     10  C   UNL     1       2.261  -3.539  -7.060  0.00  0.00    +0.137 C 
ATOM     11  C   UNL     1       2.272  -3.159  -8.545  0.00  0.00    +0.179 C 
ATOM     12  O   UNL     1       3.603  -3.279  -9.052  0.00  0.00    -0.369 OA
ATOM     13  C   UNL     1       4.546  -2.400  -8.434  0.00  0.00    +0.166 C 
ATOM     14  C   UNL     1       4.651  -2.737  -6.946  0.00  0.00    +0.145 C 
ATOM     15  H   UNL     1       1.099  -2.689  -5.119  0.00  0.00    +0.158 HD
ENDROOT
BRANCH  13  16
ATOM     16  C   UNL     1       5.894  -2.568  -9.086  0.00  0.00    -0.017 A 
ATOM     17  C   UNL     1       6.293  -3.812  -9.537  0.00  0.00    +0.007 A 
ATOM     18  C   UNL     1       7.529  -3.967 -10.136  0.00  0.00    +0.020 A 
ATOM     19  C   UNL     1       8.367  -2.876 -10.284  0.00  0.00    +0.041 A 
ATOM     20  C   UNL     1       7.967  -1.631  -9.832  0.00  0.00    +0.020 A 
ATOM     21  C   UNL     1       6.729  -1.477  -9.239  0.00  0.00    +0.007 A 
ATOM     22 CL   UNL     1       9.920  -3.070 -11.035  0.00  0.00    -0.084 Cl
ENDBRANCH  13  16
BRANCH   1  24
ATOM     23  C   UNL     1      -0.020   1.521   0.013  0.00  0.00    +0.018 C 
ATOM     24  C   UNL     1       0.006  -0.009   0.006  0.00  0.00    +0.013 C 
ATOM     25  C   UNL     1       0.750  -0.512   1.245  0.00  0.00    +0.018 C 
ATOM     26  C   UNL     1      -1.428  -0.543   0.020  0.00  0.00    +0.018 C 
ENDBRANCH   1  24
TORSDOF 2
