REMARK  Name = ZINC33004489
REMARK  8 active torsions:
REMARK  status: ('A' for Active; 'I' for Inactive)
REMARK    1  A    between atoms: C_1  and  C_2
REMARK    2  A    between atoms: C_2  and  C_3
REMARK    3  A    between atoms: C_3  and  C_4
REMARK    4  A    between atoms: C_4  and  C_5
REMARK    5  A    between atoms: C_6  and  C_29
REMARK    6  A    between atoms: C_9  and  C_10
REMARK    7  A    between atoms: C_13  and  C_16
REMARK    8  A    between atoms: C_16  and  C_17
REMARK                            x       y       z     vdW  Elec       q    Type
REMARK                         _______ _______ _______ _____ _____    ______ ____
ROOT
ATOM      1  C   UNL     1       7.529   0.682   7.005  0.00  0.00    -0.004 A 
ATOM      2  C   UNL     1       6.467  -0.188   6.736  0.00  0.00    +0.064 A 
ATOM      3  N   UNL     1       5.747   0.326   5.772  0.00  0.00    -0.169 NA
ATOM      4  N   UNL     1       6.325   1.544   5.394  0.00  0.00    -0.212 N 
ATOM      5  C   UNL     1       7.426   1.738   6.166  0.00  0.00    +0.047 A 
ATOM      6  C   UNL     1       8.362   2.918   6.101  0.00  0.00    +0.066 C 
ATOM      7  C   UNL     1       5.858   2.402   4.399  0.00  0.00    +0.194 A 
ATOM      8  N   UNL     1       4.803   2.270   3.620  0.00  0.00    -0.226 NA
ATOM      9  C   UNL     1       4.501   3.181   2.718  0.00  0.00    +0.060 A 
ATOM     10  C   UNL     1       5.298   4.273   2.610  0.00  0.00    +0.072 A 
ATOM     11  S   UNL     1       6.514   3.921   3.872  0.00  0.00    -0.056 S 
ATOM     12  C   UNL     1       6.199  -1.496   7.435  0.00  0.00    +0.068 C 
ENDROOT
BRANCH   1  13
ATOM     13  C   UNL     1       8.602   0.476   8.043  0.00  0.00    +0.039 C 
BRANCH  13  14
ATOM     14  C   UNL     1       9.776  -0.281   7.420  0.00  0.00    +0.004 C 
BRANCH  14  16
ATOM     15  C   UNL     1      12.039  -1.248   7.851  0.00  0.00    +0.004 C 
ATOM     16  C   UNL     1      10.865  -0.490   8.474  0.00  0.00    -0.003 C 
ENDBRANCH  14  16
ENDBRANCH  13  14
ENDBRANCH   1  13
BRANCH   9  17
ATOM     17  C   UNL     1       3.295   3.016   1.829  0.00  0.00    +0.152 C 
BRANCH  17  18
ATOM     18  C   UNL     1       3.379   1.695   1.108  0.00  0.00    +0.222 C 
ATOM     19  O   UNL     1       4.325   0.960   1.298  0.00  0.00    -0.275 OA
ATOM     20  N   UNL     1       2.403   1.331   0.253  0.00  0.00    -0.297 N 
ATOM     21  C   UNL     1       2.455   0.047  -0.467  0.00  0.00    +0.113 C 
ATOM     22  C   UNL     1       1.278  -0.804   0.006  0.00  0.00    +0.054 C 
ATOM     23  C   UNL     1       0.002  -0.004   0.002  0.00  0.00    -0.041 A 
ATOM     24  C   UNL     1      -1.198  -0.705  -0.006  0.00  0.00    +0.004 A 
ATOM     25  C   UNL     1      -2.403  -0.034   0.001  0.00  0.00    +0.000 A 
ATOM     26  C   UNL     1      -2.420   1.348   0.016  0.00  0.00    +0.000 A 
ATOM     27  C   UNL     1      -1.230   2.047   0.019  0.00  0.00    +0.005 A 
ATOM     28  C   UNL     1      -0.017   1.373   0.010  0.00  0.00    -0.027 A 
ATOM     29  C   UNL     1       1.246   2.197   0.002  0.00  0.00    +0.143 C 
ENDBRANCH  17  18
ENDBRANCH   9  17
TORSDOF 5
