REMARK  Name = ZINC63499138
REMARK  4 active torsions:
REMARK  status: ('A' for Active; 'I' for Inactive)
REMARK    1  A    between atoms: C_2  and  C_3
REMARK    2  A    between atoms: C_3  and  O_4
REMARK    3  A    between atoms: O_4  and  C_5
REMARK    4  A    between atoms: C_10  and  C_11
REMARK                            x       y       z     vdW  Elec       q    Type
REMARK                         _______ _______ _______ _____ _____    ______ ____
ROOT
ATOM      1  C   UNL     1      -1.107  -3.929  -2.839  0.00  0.00    +0.193 C 
ATOM      2  N   UNL     1      -1.097  -5.334  -3.262  0.00  0.00    -0.322 N 
ATOM      3  C   UNL     1      -0.720  -6.303  -2.337  0.00  0.00    +0.041 A 
ATOM      4  C   UNL     1      -1.218  -7.593  -2.385  0.00  0.00    +0.025 A 
ATOM      5  C   UNL     1      -0.814  -8.517  -1.440  0.00  0.00    +0.022 A 
ATOM      6  C   UNL     1       0.085  -8.162  -0.446  0.00  0.00    +0.042 A 
ATOM      7  C   UNL     1       0.592  -6.879  -0.386  0.00  0.00    +0.035 A 
ATOM      8  C   UNL     1       0.194  -5.939  -1.333  0.00  0.00    +0.059 A 
ATOM      9  C   UNL     1       0.710  -4.558  -1.321  0.00  0.00    +0.247 C 
ATOM     10  O   UNL     1       1.674  -4.269  -0.638  0.00  0.00    -0.270 OA
ATOM     11  N   UNL     1       0.101  -3.620  -2.074  0.00  0.00    -0.289 N 
ATOM     12 CL   UNL     1       0.577  -9.338   0.732  0.00  0.00    -0.084 Cl
ATOM     13  H   UNL     1      -1.347  -5.582  -4.166  0.00  0.00    +0.148 HD
ATOM     14  H   UNL     1       0.471  -2.724  -2.110  0.00  0.00    +0.151 HD
ENDROOT
BRANCH   1  20
ATOM     15  C   UNL     1      -2.318  -2.629  -1.069  0.00  0.00    +0.127 A 
ATOM     16  C   UNL     1      -3.437  -2.395  -0.283  0.00  0.00    +0.046 A 
ATOM     17  C   UNL     1      -4.548  -3.206  -0.407  0.00  0.00    +0.004 A 
ATOM     18  C   UNL     1      -4.546  -4.251  -1.313  0.00  0.00    +0.001 A 
ATOM     19  C   UNL     1      -3.431  -4.487  -2.096  0.00  0.00    +0.011 A 
ATOM     20  C   UNL     1      -2.319  -3.675  -1.980  0.00  0.00    +0.032 A 
BRANCH  15  21
ATOM     21  O   UNL     1      -1.224  -1.832  -0.949  0.00  0.00    -0.488 OA
BRANCH  21  22
ATOM     22  C   UNL     1      -1.293  -0.775   0.010  0.00  0.00    +0.256 C 
BRANCH  22  24
ATOM     23  C   UNL     1      -0.016   1.306   0.009  0.00  0.00    +0.007 C 
ATOM     24  C   UNL     1       0.002  -0.004   0.002  0.00  0.00    +0.006 C 
ENDBRANCH  22  24
ENDBRANCH  21  22
ENDBRANCH  15  21
ENDBRANCH   1  20
TORSDOF 4
