REMARK  Name = ZINC21527864
REMARK  10 active torsions:
REMARK  status: ('A' for Active; 'I' for Inactive)
REMARK    1  A    between atoms: C_1  and  N_2
REMARK    2  A    between atoms: N_2  and  C_3
REMARK    3  A    between atoms: N_2  and  C_30
REMARK    4  A    between atoms: C_3  and  C_4
REMARK    5  A    between atoms: C_4  and  C_5
REMARK    6  A    between atoms: C_5  and  N_6
REMARK    7  A    between atoms: C_7  and  C_9
REMARK    8  A    between atoms: C_12  and  C_15
REMARK    9  A    between atoms: C_15  and  N_16
REMARK   10  A    between atoms: C_30  and  C_31
REMARK                            x       y       z     vdW  Elec       q    Type
REMARK                         _______ _______ _______ _____ _____    ______ ____
ROOT
ATOM      1  C   UNL     1      -1.305   1.933   0.019  0.00  0.00    +0.037 A 
ATOM      2  C   UNL     1      -1.327   3.329   0.032  0.00  0.00    +0.013 A 
ATOM      3  C   UNL     1      -2.534   3.996   0.036  0.00  0.00    +0.006 A 
ATOM      4  C   UNL     1      -3.721   3.285   0.038  0.00  0.00    -0.028 A 
ATOM      5  C   UNL     1      -3.706   1.901   0.030  0.00  0.00    +0.006 A 
ATOM      6  C   UNL     1      -2.506   1.222   0.021  0.00  0.00    +0.013 A 
ENDROOT
BRANCH   1   8
ATOM      7  N   UNL     1       1.143   1.901   0.001  0.00  0.00    -0.311 N 
ATOM      8  C   UNL     1      -0.014   1.211   0.009  0.00  0.00    +0.244 C 
ATOM      9  O   UNL     1       0.002  -0.004   0.002  0.00  0.00    -0.270 OA
ATOM     10  H   UNL     1       1.129   3.001   0.007  0.00  0.00    +0.149 HD
BRANCH   7  11
ATOM     11  C   UNL     1       2.422   1.186  -0.015  0.00  0.00    +0.102 C 
BRANCH  11  12
ATOM     12  C   UNL     1       3.571   2.196  -0.020  0.00  0.00    +0.000 C 
BRANCH  12  13
ATOM     13  C   UNL     1       4.907   1.449  -0.037  0.00  0.00    -0.077 C 
BRANCH  13  15
ATOM     14  C   UNL     1       6.050   3.178   1.215  0.00  0.00    -0.096 C 
ATOM     15  N   UNL     1       6.010   2.419  -0.042  0.00  0.00    +0.381 N 
ATOM     16  H   UNL     1       5.830   3.131  -0.861  0.00  0.00    -0.082 HD
BRANCH  15  17
ATOM     17  C   UNL     1       7.295   1.753  -0.296  0.00  0.00    -0.043 C 
BRANCH  17  18
ATOM     18  C   UNL     1       8.359   2.792  -0.538  0.00  0.00    -0.064 A 
ATOM     19  C   UNL     1       8.608   3.241  -1.822  0.00  0.00    +0.002 A 
ATOM     20  C   UNL     1       9.581   4.197  -2.043  0.00  0.00    +0.000 A 
ATOM     21  C   UNL     1      10.313   4.697  -0.982  0.00  0.00    +0.000 A 
ATOM     22  C   UNL     1      10.068   4.243   0.301  0.00  0.00    +0.000 A 
ATOM     23  C   UNL     1       9.091   3.291   0.523  0.00  0.00    +0.002 A 
ENDBRANCH  17  18
ENDBRANCH  15  17
ENDBRANCH  13  15
ENDBRANCH  12  13
ENDBRANCH  11  12
ENDBRANCH   7  11
ENDBRANCH   1   8
BRANCH   4  24
ATOM     24  C   UNL     1      -5.037   4.021   0.049  0.00  0.00    +0.162 C 
BRANCH  24  25
ATOM     25  N   UNL     1      -5.456   4.252   1.433  0.00  0.00    -0.286 N 
ATOM     26  C   UNL     1      -6.247   3.308   2.080  0.00  0.00    +0.161 A 
ATOM     27  C   UNL     1      -6.650   3.510   3.401  0.00  0.00    +0.090 A 
ATOM     28  C   UNL     1      -7.436   2.552   4.028  0.00  0.00    +0.031 A 
ATOM     29  C   UNL     1      -7.802   1.425   3.307  0.00  0.00    +0.022 A 
ATOM     30  C   UNL     1      -7.363   1.286   2.004  0.00  0.00    +0.113 A 
ATOM     31  N   UNL     1      -6.614   2.210   1.435  0.00  0.00    -0.236 NA
ATOM     32  N   UNL     1      -6.274   4.668   4.089  0.00  0.00    -0.309 N 
ATOM     33  C   UNL     1      -6.528   5.104   5.348  0.00  0.00    +0.092 A 
ATOM     34  C   UNL     1      -5.926   6.305   5.527  0.00  0.00    +0.020 A 
ATOM     35  C   UNL     1      -5.269   6.638   4.338  0.00  0.00    +0.033 A 
ATOM     36  C   UNL     1      -5.494   5.609   3.451  0.00  0.00    +0.112 A 
ATOM     37  C   UNL     1      -5.075   5.378   2.067  0.00  0.00    +0.277 A 
ATOM     38  O   UNL     1      -4.386   6.200   1.491  0.00  0.00    -0.265 OA
ENDBRANCH  24  25
ENDBRANCH   4  24
TORSDOF 9
