REMARK  Name = ZINC02716596
REMARK  11 active torsions:
REMARK  status: ('A' for Active; 'I' for Inactive)
REMARK    1  A    between atoms: C_1  and  C_2
REMARK    2  A    between atoms: C_2  and  O_3
REMARK    3  A    between atoms: O_3  and  C_4
REMARK    4  A    between atoms: C_4  and  C_6
REMARK    5  A    between atoms: C_10  and  N_11
REMARK    6  A    between atoms: C_12  and  C_14
REMARK    7  A    between atoms: C_14  and  O_15
REMARK    8  A    between atoms: O_15  and  C_16
REMARK    9  A    between atoms: N_24  and  C_27
REMARK   10  A    between atoms: C_27  and  C_28
REMARK   11  A    between atoms: C_33  and  C_34
REMARK                            x       y       z     vdW  Elec       q    Type
REMARK                         _______ _______ _______ _____ _____    ______ ____
ROOT
ATOM      1  O   UNL     1       2.319   3.800   0.006  0.00  0.00    -0.482 OA
ENDROOT
BRANCH   1   2
ATOM      2  C   UNL     1       1.142   3.120   0.029  0.00  0.00    +0.125 A 
ATOM      3  C   UNL     1       1.141   1.731   0.034  0.00  0.00    +0.046 A 
ATOM      4  C   UNL     1      -0.053   1.033   0.058  0.00  0.00    +0.004 A 
ATOM      5  C   UNL     1      -1.255   1.713   0.065  0.00  0.00    +0.013 A 
ATOM      6  C   UNL     1      -1.262   3.106   0.059  0.00  0.00    +0.044 A 
ATOM      7  C   UNL     1      -0.057   3.810   0.047  0.00  0.00    +0.008 A 
ATOM      8  C   UNL     1      -0.077   5.315   0.076  0.00  0.00    +0.058 C 
ATOM      9  C   UNL     1      -1.296   5.838  -0.680  0.00  0.00    +0.113 C 
ATOM     10  N   UNL     1      -2.517   5.178  -0.225  0.00  0.00    -0.293 N 
ATOM     11  C   UNL     1      -2.533   3.860   0.050  0.00  0.00    +0.247 C 
ATOM     12  O   UNL     1      -3.583   3.295   0.289  0.00  0.00    -0.270 OA
BRANCH  10  13
ATOM     13  C   UNL     1      -3.744   5.963  -0.065  0.00  0.00    +0.143 C 
BRANCH  13  14
ATOM     14  C   UNL     1      -3.879   6.397   1.372  0.00  0.00    -0.027 A 
ATOM     15  C   UNL     1      -2.865   6.128   2.273  0.00  0.00    +0.005 A 
ATOM     16  C   UNL     1      -2.987   6.531   3.590  0.00  0.00    +0.000 A 
ATOM     17  C   UNL     1      -4.126   7.193   4.008  0.00  0.00    +0.000 A 
ATOM     18  C   UNL     1      -5.142   7.457   3.108  0.00  0.00    +0.003 A 
ATOM     19  C   UNL     1      -5.018   7.059   1.790  0.00  0.00    -0.046 A 
ATOM     20  C   UNL     1      -6.125   7.346   0.809  0.00  0.00    +0.044 C 
ENDBRANCH  13  14
ENDBRANCH  10  13
ENDBRANCH   1   2
BRANCH   1  21
ATOM     21  C   UNL     1       3.517   3.022  -0.011  0.00  0.00    +0.324 C 
BRANCH  21  23
ATOM     22  N   UNL     1       5.957   3.425  -0.054  0.00  0.00    -0.277 N 
ATOM     23  C   UNL     1       4.712   3.940  -0.035  0.00  0.00    +0.255 C 
ATOM     24  O   UNL     1       4.553   5.143  -0.037  0.00  0.00    -0.272 OA
ATOM     25  H   UNL     1       6.085   2.464  -0.052  0.00  0.00    +0.155 HD
BRANCH  22  30
ATOM     26  C   UNL     1       8.400   3.934  -0.091  0.00  0.00    +0.091 A 
ATOM     27  C   UNL     1       9.371   5.029  -0.117  0.00  0.00    -0.021 A 
ATOM     28  C   UNL     1       8.839   6.264  -0.114  0.00  0.00    -0.004 A 
ATOM     29  S   UNL     1       7.083   6.001  -0.082  0.00  0.00    -0.077 S 
ATOM     30  C   UNL     1       7.056   4.270  -0.076  0.00  0.00    +0.086 A 
ATOM     31  C   UNL     1       9.897   7.334  -0.139  0.00  0.00    +0.043 C 
ATOM     32  C   UNL     1      11.179   6.603  -0.596  0.00  0.00    +0.010 C 
ATOM     33  C   UNL     1      10.895   5.157  -0.142  0.00  0.00    +0.037 C 
BRANCH  26  34
ATOM     34  C   UNL     1       8.833   2.536  -0.087  0.00  0.00    +0.342 C 
ATOM     35  O   UNL     1       8.999   1.947  -1.138  0.00  0.00    -0.245 OA
BRANCH  34  36
ATOM     36  O   UNL     1       9.048   1.900   1.083  0.00  0.00    -0.461 OA
BRANCH  36  38
ATOM     37  C   UNL     1       9.668  -0.034   2.428  0.00  0.00    +0.048 C 
ATOM     38  C   UNL     1       9.476   0.514   1.012  0.00  0.00    +0.229 C 
ENDBRANCH  36  38
ENDBRANCH  34  36
ENDBRANCH  26  34
ENDBRANCH  22  30
ENDBRANCH  21  23
ENDBRANCH   1  21
TORSDOF 9
