REMARK  Name = ZINC09303351
REMARK  12 active torsions:
REMARK  status: ('A' for Active; 'I' for Inactive)
REMARK    1  A    between atoms: C_1  and  C_2
REMARK    2  A    between atoms: C_2  and  N_3
REMARK    3  A    between atoms: C_4  and  C_22
REMARK    4  A    between atoms: C_7  and  S_8
REMARK    5  A    between atoms: S_8  and  C_9
REMARK    6  A    between atoms: C_9  and  C_11
REMARK    7  A    between atoms: C_9  and  C_12
REMARK    8  A    between atoms: C_17  and  C_21
REMARK    9  A    between atoms: C_18  and  C_20
REMARK   10  A    between atoms: C_22  and  C_23
REMARK   11  A    between atoms: N_25  and  C_26
REMARK   12  A    between atoms: C_29  and  C_33
REMARK                            x       y       z     vdW  Elec       q    Type
REMARK                         _______ _______ _______ _____ _____    ______ ____
ROOT
ATOM      1  N   UNL     1      -3.706  -5.524   1.143  0.00  0.00    -0.306 N 
ATOM      2  C   UNL     1      -2.852  -6.581   0.992  0.00  0.00    +0.143 A 
ATOM      3  N   UNL     1      -1.699  -6.098   0.623  0.00  0.00    -0.133 NA
ATOM      4  N   UNL     1      -1.767  -4.818   0.526  0.00  0.00    -0.122 NA
ATOM      5  C   UNL     1      -2.978  -4.412   0.830  0.00  0.00    +0.192 A 
ENDROOT
BRANCH   1   7
ATOM      6  C   UNL     1      -5.998  -5.720   0.312  0.00  0.00    +0.027 C 
ATOM      7  C   UNL     1      -5.112  -5.574   1.551  0.00  0.00    +0.122 C 
ENDBRANCH   1   7
BRANCH   5   8
ATOM      8  S   UNL     1      -3.552  -2.746   0.840  0.00  0.00    -0.074 S 
BRANCH   8   9
ATOM      9  C   UNL     1      -2.040  -1.889   0.335  0.00  0.00    +0.137 C 
ATOM     10  C   UNL     1      -1.675  -2.296  -1.094  0.00  0.00    +0.029 C 
BRANCH   9  11
ATOM     11  C   UNL     1      -2.263  -0.400   0.392  0.00  0.00    +0.232 C 
ATOM     12  O   UNL     1      -3.392   0.045   0.378  0.00  0.00    -0.274 OA
ATOM     13  N   UNL     1      -1.210   0.438   0.458  0.00  0.00    -0.264 N 
ATOM     14  C   UNL     1      -1.416   1.812   0.509  0.00  0.00    +0.165 A 
ATOM     15  N   UNL     1      -2.553   2.479   0.499  0.00  0.00    -0.230 NA
ATOM     16  C   UNL     1      -2.572   3.797   0.560  0.00  0.00    +0.050 A 
ATOM     17  C   UNL     1      -1.391   4.458   0.622  0.00  0.00    +0.011 A 
ATOM     18  S   UNL     1      -0.243   3.089   0.597  0.00  0.00    -0.057 S 
ATOM     19  C   UNL     1      -1.120   5.939   0.692  0.00  0.00    +0.053 C 
ATOM     20  C   UNL     1      -3.877   4.550   0.554  0.00  0.00    +0.066 C 
ATOM     21  H   UNL     1      -0.307   0.082   0.469  0.00  0.00    +0.157 HD
ENDBRANCH   9  11
ENDBRANCH   8   9
ENDBRANCH   5   8
BRANCH   2  22
ATOM     22  C   UNL     1      -3.180  -8.034   1.217  0.00  0.00    +0.172 C 
BRANCH  22  23
ATOM     23  C   UNL     1      -2.906  -8.395   2.654  0.00  0.00    +0.225 C 
ATOM     24  O   UNL     1      -2.485  -7.554   3.420  0.00  0.00    -0.275 OA
ATOM     25  N   UNL     1      -3.129  -9.651   3.088  0.00  0.00    -0.285 N 
ATOM     26  H   UNL     1      -3.537 -10.303   2.497  0.00  0.00    +0.155 HD
BRANCH  25  27
ATOM     27  C   UNL     1      -2.771 -10.015   4.391  0.00  0.00    +0.035 A 
ATOM     28  C   UNL     1      -1.653  -9.448   4.990  0.00  0.00    +0.023 A 
ATOM     29  C   UNL     1      -1.306  -9.804   6.278  0.00  0.00    +0.006 A 
ATOM     30  C   UNL     1      -2.062 -10.734   6.968  0.00  0.00    -0.032 A 
ATOM     31  C   UNL     1      -3.172 -11.306   6.372  0.00  0.00    +0.046 A 
ATOM     32  C   UNL     1      -3.529 -10.948   5.085  0.00  0.00    +0.043 A 
ATOM     33 CL   UNL     1      -4.119 -12.472   7.242  0.00  0.00    -0.083 Cl
ATOM     34  C   UNL     1      -1.676 -11.125   8.371  0.00  0.00    +0.045 C 
ENDBRANCH  25  27
ENDBRANCH  22  23
ENDBRANCH   2  22
TORSDOF 7
