REMARK  Name = ZINC31114752
REMARK  10 active torsions:
REMARK  status: ('A' for Active; 'I' for Inactive)
REMARK    1  A    between atoms: C_1  and  C_2
REMARK    2  A    between atoms: C_6  and  C_34
REMARK    3  A    between atoms: C_7  and  N_8
REMARK    4  A    between atoms: C_9  and  C_11
REMARK    5  A    between atoms: C_11  and  N_12
REMARK    6  A    between atoms: N_12  and  C_13
REMARK    7  A    between atoms: N_12  and  C_14
REMARK    8  A    between atoms: C_14  and  C_16
REMARK    9  A    between atoms: C_14  and  C_17
REMARK   10  A    between atoms: C_29  and  C_33
REMARK                            x       y       z     vdW  Elec       q    Type
REMARK                         _______ _______ _______ _____ _____    ______ ____
ROOT
ATOM      1  C   UNL     1      -4.149  -4.004   3.129  0.00  0.00    -0.004 C 
ATOM      2  C   UNL     1      -5.409  -3.834   3.981  0.00  0.00    -0.005 C 
ENDROOT
BRANCH   1   3
ATOM      3  C   UNL     1      -3.004  -3.267   3.775  0.00  0.00    +0.097 A 
ATOM      4  N   UNL     1      -3.158  -1.950   4.054  0.00  0.00    -0.312 N 
ATOM      5  H   UNL     1      -4.103  -1.443   3.810  0.00  0.00    +0.170 HD
ATOM      6  C   UNL     1      -2.190  -1.199   4.632  0.00  0.00    +0.260 A 
ATOM      7  O   UNL     1      -2.347  -0.015   4.876  0.00  0.00    -0.267 OA
ATOM      8  C   UNL     1      -0.968  -1.887   4.939  0.00  0.00    +0.075 A 
ATOM      9  C   UNL     1       0.218  -1.321   5.556  0.00  0.00    -0.023 A 
ATOM     10  C   UNL     1       1.261  -2.161   5.751  0.00  0.00    -0.004 A 
ATOM     11  S   UNL     1       0.715  -3.732   5.128  0.00  0.00    -0.073 S 
ATOM     12  C   UNL     1      -0.904  -3.259   4.609  0.00  0.00    +0.116 A 
ATOM     13  N   UNL     1      -1.901  -3.931   4.040  0.00  0.00    -0.228 NA
ATOM     14  C   UNL     1       2.588  -1.833   6.361  0.00  0.00    +0.046 C 
ATOM     15  C   UNL     1       2.740  -0.306   6.404  0.00  0.00    -0.009 C 
ATOM     16  C   UNL     1       1.456   0.299   6.978  0.00  0.00    +0.008 C 
ATOM     17  C   UNL     1       0.314   0.144   5.973  0.00  0.00    +0.037 C 
ATOM     18  C   UNL     1       3.929   0.068   7.291  0.00  0.00    +0.008 C 
ENDBRANCH   1   3
BRANCH   1  19
ATOM     19  N   UNL     1      -3.817  -5.431   3.026  0.00  0.00    +0.390 N 
ATOM     20  C   UNL     1      -3.712  -6.045   4.356  0.00  0.00    -0.095 C 
ATOM     21  H   UNL     1      -2.835  -5.515   2.536  0.00  0.00    -0.081 HD
BRANCH  19  22
ATOM     22  C   UNL     1      -4.798  -6.141   2.194  0.00  0.00    +0.019 C 
BRANCH  22  24
ATOM     23  N   UNL     1      -5.040  -8.374   1.158  0.00  0.00    -0.287 N 
ATOM     24  C   UNL     1      -4.300  -7.534   1.908  0.00  0.00    +0.201 C 
ATOM     25  O   UNL     1      -3.232  -7.899   2.353  0.00  0.00    -0.278 OA
ATOM     26  H   UNL     1      -6.035  -8.064   0.804  0.00  0.00    +0.155 HD
BRANCH  23  33
ATOM     27  C   UNL     1      -2.460  -8.539  -0.030  0.00  0.00    +0.045 C 
ATOM     28  C   UNL     1      -3.289  -9.766   0.247  0.00  0.00    -0.029 A 
ATOM     29  C   UNL     1      -2.800 -11.017  -0.072  0.00  0.00    +0.005 A 
ATOM     30  C   UNL     1      -3.563 -12.144   0.177  0.00  0.00    +0.001 A 
ATOM     31  C   UNL     1      -4.815 -12.021   0.751  0.00  0.00    +0.005 A 
ATOM     32  C   UNL     1      -5.308 -10.773   1.077  0.00  0.00    -0.029 A 
ATOM     33  C   UNL     1      -4.544  -9.640   0.828  0.00  0.00    +0.039 A 
ATOM     34  C   UNL     1      -6.673 -10.640   1.702  0.00  0.00    +0.045 C 
ENDBRANCH  23  33
ENDBRANCH  22  24
ENDBRANCH  19  22
ENDBRANCH   1  19
TORSDOF 5
