REMARK  Name = ZINC38766623
REMARK  9 active torsions:
REMARK  status: ('A' for Active; 'I' for Inactive)
REMARK    1  A    between atoms: C_1  and  O_2
REMARK    2  A    between atoms: O_2  and  C_3
REMARK    3  A    between atoms: C_6  and  C_9
REMARK    4  A    between atoms: C_11  and  C_14
REMARK    5  A    between atoms: C_14  and  O_15
REMARK    6  A    between atoms: O_15  and  C_16
REMARK    7  A    between atoms: C_16  and  C_18
REMARK    8  A    between atoms: C_18  and  S_19
REMARK    9  A    between atoms: S_19  and  C_20
REMARK                            x       y       z     vdW  Elec       q    Type
REMARK                         _______ _______ _______ _____ _____    ______ ____
ROOT
ATOM      1  C   UNL     1      -4.958  -2.617   0.034  0.00  0.00    +0.168 A 
ATOM      2  C   UNL     1      -5.157  -3.964   0.039  0.00  0.00    +0.079 A 
ATOM      3  C   UNL     1      -6.539  -4.198   0.047  0.00  0.00    +0.121 A 
ATOM      4  N   UNL     1      -7.149  -3.046   0.047  0.00  0.00    -0.079 NA
ATOM      5  O   UNL     1      -6.168  -2.026   0.045  0.00  0.00    -0.354 OA
ENDROOT
BRANCH   1   9
ATOM      6  C   UNL     1      -1.200  -0.637   0.010  0.00  0.00    +0.120 A 
ATOM      7  C   UNL     1      -2.373   0.105   0.019  0.00  0.00    +0.046 A 
ATOM      8  C   UNL     1      -3.595  -0.533   0.027  0.00  0.00    +0.015 A 
ATOM      9  C   UNL     1      -3.651  -1.929   0.026  0.00  0.00    +0.020 A 
ATOM     10  C   UNL     1      -2.469  -2.671   0.016  0.00  0.00    +0.015 A 
ATOM     11  C   UNL     1      -1.251  -2.025   0.003  0.00  0.00    +0.046 A 
BRANCH   6  13
ATOM     12  C   UNL     1      -0.017   1.425   0.010  0.00  0.00    +0.277 C 
ATOM     13  O   UNL     1       0.002  -0.004   0.002  0.00  0.00    -0.495 OA
ENDBRANCH   6  13
ENDBRANCH   1   9
BRANCH   3  14
ATOM     14  C   UNL     1      -7.205  -5.550   0.055  0.00  0.00    +0.291 C 
BRANCH  14  15
ATOM     15  O   UNL     1      -6.207  -6.573   0.052  0.00  0.00    -0.458 OA
BRANCH  15  16
ATOM     16  C   UNL     1      -6.637  -7.844   0.059  0.00  0.00    +0.318 C 
ATOM     17  O   UNL     1      -7.822  -8.081   0.065  0.00  0.00    -0.250 OA
BRANCH  16  18
ATOM     18  C   UNL     1      -5.643  -8.976   0.057  0.00  0.00    +0.194 C 
BRANCH  18  19
ATOM     19  S   UNL     1      -6.529 -10.559   0.066  0.00  0.00    -0.114 S 
BRANCH  19  20
ATOM     20  C   UNL     1      -5.245 -11.766   0.063  0.00  0.00    +0.011 A 
ATOM     21  C   UNL     1      -3.903 -11.384   0.061  0.00  0.00    +0.034 A 
ATOM     22  C   UNL     1      -2.929 -12.360   0.059  0.00  0.00    +0.112 A 
ATOM     23  N   UNL     1      -3.252 -13.640   0.059  0.00  0.00    -0.263 NA
ATOM     24  C   UNL     1      -4.510 -14.042   0.061  0.00  0.00    +0.112 A 
ATOM     25  C   UNL     1      -5.544 -13.130   0.068  0.00  0.00    +0.034 A 
ENDBRANCH  19  20
ENDBRANCH  18  19
ENDBRANCH  16  18
ENDBRANCH  15  16
ENDBRANCH  14  15
ENDBRANCH   3  14
TORSDOF 8
