REMARK  Name = ZINC64175254
REMARK  7 active torsions:
REMARK  status: ('A' for Active; 'I' for Inactive)
REMARK    1  A    between atoms: C_7  and  C_10
REMARK    2  A    between atoms: C_13  and  S_16
REMARK    3  A    between atoms: S_16  and  C_17
REMARK    4  A    between atoms: C_17  and  C_18
REMARK    5  A    between atoms: C_18  and  C_19
REMARK    6  A    between atoms: N_21  and  C_22
REMARK    7  A    between atoms: C_25  and  N_28
REMARK                            x       y       z     vdW  Elec       q    Type
REMARK                         _______ _______ _______ _____ _____    ______ ____
ROOT
ATOM      1  C   UNL     1       0.002  -5.102   2.831  0.00  0.00    +0.083 C 
ENDROOT
BRANCH   1   2
ATOM      2  S   UNL     1      -0.161  -6.285   1.466  0.00  0.00    -0.096 S 
BRANCH   2   6
ATOM      3  C   UNL     1       0.746  -3.153  -0.022  0.00  0.00    +0.238 C 
ATOM      4  N   UNL     1      -0.553  -3.009  -0.021  0.00  0.00    -0.145 NA
ATOM      5  N   UNL     1      -1.178  -4.264  -0.021  0.00  0.00    -0.219 N 
ATOM      6  C   UNL     1      -0.083  -5.250  -0.022  0.00  0.00    +0.339 C 
ATOM      7  O   UNL     1       1.113  -4.458  -0.028  0.00  0.00    -0.443 OA
ATOM      8  H   UNL     1      -2.131  -4.446  -0.020  0.00  0.00    +0.173 HD
BRANCH   3  15
ATOM      9  C   UNL     1       0.136   1.342  -0.003  0.00  0.00    +0.001 A 
ATOM     10  C   UNL     1       1.329   2.068  -0.006  0.00  0.00    +0.002 A 
ATOM     11  C   UNL     1       2.538   1.455  -0.014  0.00  0.00    +0.026 A 
ATOM     12  C   UNL     1       2.612   0.038  -0.020  0.00  0.00    +0.043 A 
ATOM     13  N   UNL     1       3.644  -0.782  -0.028  0.00  0.00    -0.380 N 
ATOM     14  C   UNL     1       3.163  -2.166  -0.031  0.00  0.00    +0.154 C 
ATOM     15  C   UNL     1       1.653  -2.084  -0.023  0.00  0.00    +0.043 C 
ATOM     16  C   UNL     1       1.351  -0.722  -0.016  0.00  0.00    +0.008 A 
ATOM     17  C   UNL     1       0.129  -0.016  -0.008  0.00  0.00    +0.010 A 
ATOM     18  H   UNL     1       4.576  -0.511  -0.033  0.00  0.00    +0.160 HD
ENDBRANCH   3  15
ENDBRANCH   2   6
ENDBRANCH   1   2
BRANCH   1  19
ATOM     19  C   UNL     1      -0.048  -5.852   4.164  0.00  0.00    +0.107 C 
BRANCH  19  20
ATOM     20  C   UNL     1       0.088  -4.870   5.299  0.00  0.00    +0.218 C 
ATOM     21  O   UNL     1       0.212  -3.686   5.064  0.00  0.00    -0.275 OA
ATOM     22  N   UNL     1       0.071  -5.306   6.574  0.00  0.00    -0.285 N 
ATOM     23  H   UNL     1      -0.093  -6.243   6.763  0.00  0.00    +0.155 HD
BRANCH  22  24
ATOM     24  C   UNL     1       0.290  -4.407   7.625  0.00  0.00    +0.033 A 
ATOM     25  C   UNL     1       0.980  -4.817   8.758  0.00  0.00    +0.025 A 
ATOM     26  C   UNL     1       1.196  -3.931   9.794  0.00  0.00    +0.025 A 
ATOM     27  C   UNL     1       0.723  -2.628   9.703  0.00  0.00    +0.036 A 
ATOM     28  C   UNL     1       0.033  -2.218   8.570  0.00  0.00    +0.025 A 
ATOM     29  C   UNL     1      -0.178  -3.103   7.532  0.00  0.00    +0.025 A 
BRANCH  27  30
ATOM     30  N   UNL     1       0.942  -1.729  10.755  0.00  0.00    -0.271 N 
ATOM     31  C   UNL     1       0.382  -0.374  10.815  0.00  0.00    +0.114 C 
ATOM     32  C   UNL     1       0.513   0.061  12.291  0.00  0.00    +0.029 C 
ATOM     33  C   UNL     1       1.701  -0.806  12.771  0.00  0.00    +0.098 C 
ATOM     34  C   UNL     1       1.687  -1.998  11.840  0.00  0.00    +0.220 C 
ATOM     35  O   UNL     1       2.266  -3.045  12.043  0.00  0.00    -0.275 OA
ENDBRANCH  27  30
ENDBRANCH  22  24
ENDBRANCH  19  20
ENDBRANCH   1  19
TORSDOF 7
