REMARK  Name = ZINC35969380
REMARK  9 active torsions:
REMARK  status: ('A' for Active; 'I' for Inactive)
REMARK    1  A    between atoms: C_1  and  C_2
REMARK    2  A    between atoms: C_5  and  C_8
REMARK    3  A    between atoms: N_13  and  C_16
REMARK    4  A    between atoms: C_16  and  C_18
REMARK    5  A    between atoms: C_16  and  C_24
REMARK    6  A    between atoms: N_26  and  C_27
REMARK    7  A    between atoms: C_27  and  C_28
REMARK    8  A    between atoms: N_34  and  C_38
REMARK    9  A    between atoms: C_38  and  C_39
REMARK                            x       y       z     vdW  Elec       q    Type
REMARK                         _______ _______ _______ _____ _____    ______ ____
ROOT
ATOM      1  C   UNL     1      -0.695  -2.874   1.089  0.00  0.00    +0.142 C 
ATOM      2  C   UNL     1      -1.706  -3.875   0.565  0.00  0.00    +0.058 C 
ATOM      3  C   UNL     1      -1.280  -5.133   0.334  0.00  0.00    +0.043 C 
ATOM      4  C   UNL     1      -2.479  -5.902  -0.174  0.00  0.00    +0.160 C 
ATOM      5  N   UNL     1      -3.577  -4.924  -0.187  0.00  0.00    -0.277 N 
ATOM      6  C   UNL     1      -3.075  -3.756   0.253  0.00  0.00    +0.247 C 
ATOM      7  O   UNL     1      -3.720  -2.729   0.366  0.00  0.00    -0.270 OA
ATOM      8  N   UNL     1       0.017  -5.495   0.563  0.00  0.00    -0.253 N 
ATOM      9  C   UNL     1       0.951  -4.652   1.024  0.00  0.00    +0.307 C 
ATOM     10  O   UNL     1       2.081  -5.064   1.197  0.00  0.00    -0.252 OA
ATOM     11  N   UNL     1       0.677  -3.363   1.303  0.00  0.00    -0.288 N 
ATOM     12  H   UNL     1       1.369  -2.771   1.637  0.00  0.00    +0.151 HD
ENDROOT
BRANCH   1  17
ATOM     13  C   UNL     1      -2.666  -0.822   6.119  0.00  0.00    +0.044 C 
ATOM     14  C   UNL     1      -2.152  -1.357   4.807  0.00  0.00    -0.050 A 
ATOM     15  C   UNL     1      -2.373  -0.652   3.639  0.00  0.00    +0.004 A 
ATOM     16  C   UNL     1      -1.901  -1.143   2.435  0.00  0.00    +0.006 A 
ATOM     17  C   UNL     1      -1.208  -2.338   2.400  0.00  0.00    -0.023 A 
ATOM     18  C   UNL     1      -0.987  -3.043   3.569  0.00  0.00    +0.006 A 
ATOM     19  C   UNL     1      -1.454  -2.550   4.773  0.00  0.00    +0.004 A 
ENDBRANCH   1  17
BRANCH   5  20
ATOM     20  C   UNL     1      -4.959  -5.175  -0.602  0.00  0.00    +0.193 C 
BRANCH  20  21
ATOM     21  C   UNL     1      -4.970  -5.736  -2.001  0.00  0.00    -0.018 A 
ATOM     22  C   UNL     1      -4.263  -6.888  -2.289  0.00  0.00    +0.006 A 
ATOM     23  C   UNL     1      -4.272  -7.403  -3.572  0.00  0.00    +0.000 A 
ATOM     24  C   UNL     1      -4.989  -6.765  -4.567  0.00  0.00    +0.000 A 
ATOM     25  C   UNL     1      -5.697  -5.613  -4.279  0.00  0.00    +0.000 A 
ATOM     26  C   UNL     1      -5.691  -5.101  -2.995  0.00  0.00    +0.006 A 
ENDBRANCH  20  21
BRANCH  20  27
ATOM     27  C   UNL     1      -5.595  -6.164   0.340  0.00  0.00    +0.238 C 
ATOM     28  O   UNL     1      -4.957  -6.614   1.268  0.00  0.00    -0.273 OA
ATOM     29  N   UNL     1      -6.873  -6.547   0.153  0.00  0.00    -0.311 N 
ATOM     30  H   UNL     1      -7.384  -6.187  -0.589  0.00  0.00    +0.149 HD
BRANCH  29  31
ATOM     31  C   UNL     1      -7.492  -7.509   1.069  0.00  0.00    +0.135 C 
BRANCH  31  32
ATOM     32  C   UNL     1      -8.935  -7.771   0.636  0.00  0.00    +0.135 C 
ATOM     33  C   UNL     1      -9.632  -8.688   1.663  0.00  0.00    +0.035 C 
ATOM     34  C   UNL     1     -10.483  -9.616   0.753  0.00  0.00    +0.031 C 
ATOM     35  C   UNL     1      -9.560  -9.738  -0.486  0.00  0.00    +0.160 C 
ATOM     36  O   UNL     1      -8.948  -8.445  -0.628  0.00  0.00    -0.375 OA
ENDBRANCH  31  32
ENDBRANCH  29  31
ENDBRANCH  20  27
ENDBRANCH   5  20
BRANCH   8  37
ATOM     37  C   UNL     1       0.408  -6.880   0.290  0.00  0.00    +0.141 C 
BRANCH  37  38
ATOM     38  C   UNL     1       0.878  -6.997  -1.137  0.00  0.00    -0.015 C 
ATOM     39  C   UNL     1       2.063  -7.490  -1.399  0.00  0.00    +0.005 C 
ENDBRANCH  37  38
ENDBRANCH   8  37
TORSDOF 8
