REMARK  Name = ZINC08809771
REMARK  8 active torsions:
REMARK  status: ('A' for Active; 'I' for Inactive)
REMARK    1  A    between atoms: C_1  and  C_2
REMARK    2  A    between atoms: C_6  and  N_9
REMARK    3  A    between atoms: C_7  and  C_8
REMARK    4  A    between atoms: C_19  and  C_22
REMARK    5  A    between atoms: N_23  and  N_24
REMARK    6  A    between atoms: C_25  and  C_26
REMARK    7  A    between atoms: C_28  and  N_35
REMARK    8  A    between atoms: C_30  and  N_32
REMARK                            x       y       z     vdW  Elec       q    Type
REMARK                         _______ _______ _______ _____ _____    ______ ____
ROOT
ATOM      1  N   UNL     1       8.423   3.523  -0.283  0.00  0.00    -0.283 N 
ATOM      2  C   UNL     1       8.494   2.202   0.114  0.00  0.00    +0.225 A 
ATOM      3  N   UNL     1       7.471   1.644   0.754  0.00  0.00    -0.179 NA
ATOM      4  C   UNL     1       7.542   0.374   1.141  0.00  0.00    +0.241 A 
ATOM      5  N   UNL     1       8.632  -0.341   0.878  0.00  0.00    -0.180 NA
ATOM      6  C   UNL     1       9.653   0.215   0.233  0.00  0.00    +0.224 A 
ATOM      7  N   UNL     1       9.584   1.487  -0.148  0.00  0.00    -0.181 NA
ATOM      8  N   UNL     1      10.784  -0.527  -0.039  0.00  0.00    -0.299 N 
ATOM      9  C   UNL     1      11.983   0.124   0.503  0.00  0.00    +0.108 C 
ATOM     10  C   UNL     1      13.229  -0.646   0.059  0.00  0.00    +0.022 C 
ATOM     11  C   UNL     1      13.137  -2.089   0.563  0.00  0.00    -0.011 C 
ATOM     12  C   UNL     1      11.854  -2.729   0.023  0.00  0.00    +0.022 C 
ATOM     13  C   UNL     1      10.649  -1.898   0.469  0.00  0.00    +0.108 C 
ATOM     14  C   UNL     1      14.350  -2.881   0.071  0.00  0.00    +0.007 C 
ATOM     15  N   UNL     1       6.482  -0.204   1.810  0.00  0.00    -0.205 N 
ATOM     16  H   UNL     1       9.200   3.957  -0.668  0.00  0.00    +0.155 HD
ATOM     17  H   UNL     1       5.717   0.335   2.066  0.00  0.00    +0.177 HD
ENDROOT
BRANCH   1  23
ATOM     18  C   UNL     1       6.024   7.814  -0.306  0.00  0.00    +0.044 C 
ATOM     19  C   UNL     1       6.038   6.317  -0.134  0.00  0.00    -0.046 A 
ATOM     20  C   UNL     1       4.869   5.647   0.178  0.00  0.00    +0.004 A 
ATOM     21  C   UNL     1       4.877   4.274   0.337  0.00  0.00    +0.002 A 
ATOM     22  C   UNL     1       6.054   3.566   0.185  0.00  0.00    +0.023 A 
ATOM     23  C   UNL     1       7.229   4.236  -0.129  0.00  0.00    +0.037 A 
ATOM     24  C   UNL     1       7.219   5.617  -0.283  0.00  0.00    -0.026 A 
ATOM     25  C   UNL     1       8.493   6.348  -0.617  0.00  0.00    +0.046 C 
ENDBRANCH   1  23
BRANCH  15  26
ATOM     26  N   UNL     1       6.510  -1.570   2.121  0.00  0.00    -0.187 NA
ATOM     27  C   UNL     1       5.475  -2.134   2.663  0.00  0.00    +0.142 C 
BRANCH  27  28
ATOM     28  C   UNL     1       5.542  -3.543   3.090  0.00  0.00    +0.046 A 
ATOM     29  C   UNL     1       4.466  -4.125   3.765  0.00  0.00    +0.046 A 
ATOM     30  C   UNL     1       4.536  -5.444   4.162  0.00  0.00    +0.129 A 
ATOM     31  C   UNL     1       5.668  -6.194   3.895  0.00  0.00    +0.069 A 
ATOM     32  C   UNL     1       6.740  -5.630   3.228  0.00  0.00    +0.175 A 
ATOM     33  C   UNL     1       6.686  -4.307   2.822  0.00  0.00    +0.218 A 
ATOM     34  O   UNL     1       7.739  -3.752   2.168  0.00  0.00    -0.285 OA
BRANCH  32  35
ATOM     35  N   UNL     1       7.946  -6.441   2.947  0.00  0.00    +0.060 N 
ATOM     36  O   UNL     1       7.960  -7.627   3.225  0.00  0.00    -0.126 OA
ATOM     37  O   UNL     1       8.923  -5.923   2.439  0.00  0.00    -0.126 OA
ENDBRANCH  32  35
BRANCH  30  38
ATOM     38  N   UNL     1       3.396  -6.059   4.877  0.00  0.00    +0.057 N 
ATOM     39  O   UNL     1       3.454  -7.224   5.229  0.00  0.00    -0.126 OA
ATOM     40  O   UNL     1       2.398  -5.401   5.114  0.00  0.00    -0.126 OA
ENDBRANCH  30  38
ENDBRANCH  27  28
ENDBRANCH  15  26
TORSDOF 5
