REMARK  Name = ZINC57415226
REMARK  11 active torsions:
REMARK  status: ('A' for Active; 'I' for Inactive)
REMARK    1  A    between atoms: C_1  and  C_2
REMARK    2  A    between atoms: C_2  and  C_3
REMARK    3  A    between atoms: C_6  and  C_9
REMARK    4  A    between atoms: C_11  and  C_32
REMARK    5  A    between atoms: C_12  and  C_17
REMARK    6  A    between atoms: C_17  and  N_18
REMARK    7  A    between atoms: N_21  and  C_24
REMARK    8  A    between atoms: C_29  and  O_30
REMARK    9  A    between atoms: O_30  and  C_31
REMARK   10  A    between atoms: C_32  and  O_34
REMARK   11  A    between atoms: O_34  and  C_35
REMARK                            x       y       z     vdW  Elec       q    Type
REMARK                         _______ _______ _______ _____ _____    ______ ____
ROOT
ATOM      1  C   UNL     1       2.814  -1.954   4.694  0.00  0.00    +0.144 C 
ATOM      2  C   UNL     1       3.032  -0.700   5.516  0.00  0.00    +0.079 C 
ATOM      3  C   UNL     1       2.547  -0.684   6.777  0.00  0.00    +0.038 C 
ATOM      4  N   UNL     1       1.884  -1.761   7.291  0.00  0.00    -0.271 N 
ATOM      5  C   UNL     1       1.664  -2.893   6.609  0.00  0.00    +0.304 C 
ATOM      6  O   UNL     1       1.063  -3.799   7.152  0.00  0.00    -0.252 OA
ATOM      7  N   UNL     1       2.087  -3.059   5.341  0.00  0.00    -0.288 N 
ATOM      8  H   UNL     1       1.554  -1.704   8.201  0.00  0.00    +0.156 HD
ATOM      9  H   UNL     1       1.916  -3.887   4.866  0.00  0.00    +0.151 HD
ENDROOT
BRANCH   1  13
ATOM     10  C   UNL     1       0.673  -0.860   1.163  0.00  0.00    -0.048 A 
ATOM     11  C   UNL     1       2.050  -0.971   1.129  0.00  0.00    +0.004 A 
ATOM     12  C   UNL     1       2.743  -1.324   2.272  0.00  0.00    +0.006 A 
ATOM     13  C   UNL     1       2.059  -1.567   3.448  0.00  0.00    -0.022 A 
ATOM     14  C   UNL     1       0.681  -1.456   3.482  0.00  0.00    +0.006 A 
ATOM     15  C   UNL     1      -0.011  -1.098   2.341  0.00  0.00    +0.004 A 
BRANCH  10  17
ATOM     16  C   UNL     1      -0.212   1.048  -0.149  0.00  0.00    +0.009 C 
ATOM     17  C   UNL     1      -0.083  -0.475  -0.083  0.00  0.00    +0.032 C 
ENDBRANCH  10  17
ENDBRANCH   1  13
BRANCH   2  18
ATOM     18  C   UNL     1       3.719   0.415   4.983  0.00  0.00    +0.339 C 
ATOM     19  O   UNL     1       3.139   1.193   4.249  0.00  0.00    -0.245 OA
BRANCH  18  20
ATOM     20  O   UNL     1       5.018   0.616   5.287  0.00  0.00    -0.465 OA
ATOM     21  C   UNL     1       5.650   1.762   4.713  0.00  0.00    +0.280 C 
ENDBRANCH  18  20
ENDBRANCH   2  18
BRANCH   3  22
ATOM     22  C   UNL     1       2.741   0.543   7.630  0.00  0.00    +0.136 C 
BRANCH  22  23
ATOM     23  N   UNL     1       1.434   1.138   7.938  0.00  0.00    -0.294 NA
ATOM     24  C   UNL     1       0.788   1.648   6.721  0.00  0.00    +0.103 C 
ATOM     25  C   UNL     1      -0.640   2.093   7.053  0.00  0.00    +0.120 C 
ATOM     26  N   UNL     1      -0.585   3.044   8.173  0.00  0.00    -0.325 N 
ATOM     27  C   UNL     1       0.164   2.657   9.379  0.00  0.00    +0.120 C 
ATOM     28  C   UNL     1       1.560   2.190   8.955  0.00  0.00    +0.103 C 
BRANCH  26  29
ATOM     29  C   UNL     1      -1.228   4.285   8.095  0.00  0.00    +0.072 A 
ATOM     30  C   UNL     1      -2.541   4.416   8.523  0.00  0.00    +0.027 A 
ATOM     31  C   UNL     1      -3.174   5.642   8.445  0.00  0.00    +0.002 A 
ATOM     32  C   UNL     1      -2.501   6.740   7.941  0.00  0.00    +0.004 A 
ATOM     33  C   UNL     1      -1.193   6.617   7.511  0.00  0.00    +0.047 A 
ATOM     34  C   UNL     1      -0.550   5.393   7.591  0.00  0.00    +0.141 A 
BRANCH  34  35
ATOM     35  O   UNL     1       0.739   5.271   7.174  0.00  0.00    -0.493 OA
ATOM     36  C   UNL     1       1.372   6.449   6.670  0.00  0.00    +0.277 C 
ENDBRANCH  34  35
ENDBRANCH  26  29
ENDBRANCH  22  23
ENDBRANCH   3  22
TORSDOF 8
