REMARK  Name = ZINC47149775
REMARK  6 active torsions:
REMARK  status: ('A' for Active; 'I' for Inactive)
REMARK    1  A    between atoms: C_1  and  C_2
REMARK    2  A    between atoms: C_5  and  C_28
REMARK    3  A    between atoms: N_8  and  C_10
REMARK    4  A    between atoms: C_10  and  C_11
REMARK    5  A    between atoms: C_11  and  N_12
REMARK    6  A    between atoms: C_13  and  C_15
REMARK                            x       y       z     vdW  Elec       q    Type
REMARK                         _______ _______ _______ _____ _____    ______ ____
ROOT
ATOM      1  N   UNL     1       2.927  -0.202   4.830  0.00  0.00    -0.313 N 
ATOM      2  C   UNL     1       4.167   0.278   5.047  0.00  0.00    +0.244 C 
ATOM      3  O   UNL     1       4.662   1.061   4.260  0.00  0.00    -0.270 OA
ATOM      4  H   UNL     1       2.532  -0.827   5.457  0.00  0.00    +0.149 HD
ENDROOT
BRANCH   2   5
ATOM      5  C   UNL     1       4.928  -0.150   6.244  0.00  0.00    +0.039 A 
ATOM      6  C   UNL     1       4.353  -1.059   7.145  0.00  0.00    +0.014 A 
ATOM      7  C   UNL     1       5.031  -1.468   8.252  0.00  0.00    +0.016 A 
ATOM      8  C   UNL     1       6.321  -0.978   8.501  0.00  0.00    +0.065 A 
ATOM      9  C   UNL     1       6.916  -0.058   7.598  0.00  0.00    +0.080 A 
ATOM     10  C   UNL     1       6.203   0.347   6.460  0.00  0.00    +0.041 A 
ATOM     11  N   UNL     1       8.150   0.401   7.851  0.00  0.00    -0.223 NA
ATOM     12  C   UNL     1       8.812   0.005   8.927  0.00  0.00    +0.180 A 
ATOM     13  N   UNL     1       8.295  -0.864   9.811  0.00  0.00    -0.301 N 
ATOM     14  H   UNL     1       8.817  -1.126  10.585  0.00  0.00    +0.171 HD
ATOM     15  C   UNL     1       7.058  -1.377   9.637  0.00  0.00    +0.260 A 
ATOM     16  O   UNL     1       6.541  -2.246  10.523  0.00  0.00    -0.267 OA
ATOM     17  S   UNL     1      10.386   0.622   9.201  0.00  0.00    -0.011 S 
ENDBRANCH   2   5
BRANCH   1  18
ATOM     18  C   UNL     1       2.174   0.221   3.646  0.00  0.00    +0.086 C 
BRANCH  18  19
ATOM     19  C   UNL     1       0.807  -0.464   3.639  0.00  0.00    -0.060 C 
BRANCH  19  25
ATOM     20  C   UNL     1      -0.019   1.526   0.010  0.00  0.00    +0.005 C 
ATOM     21  C   UNL     1       0.002  -0.004   0.002  0.00  0.00    -0.031 C 
ATOM     22  C   UNL     1      -1.434  -0.535   0.015  0.00  0.00    +0.003 C 
ATOM     23  C   UNL     1      -2.117  -0.099   1.315  0.00  0.00    -0.031 C 
ATOM     24  C   UNL     1      -1.302  -0.604   2.507  0.00  0.00    -0.076 C 
ATOM     25  N   UNL     1       0.052  -0.040   2.452  0.00  0.00    +0.381 N 
ATOM     26  C   UNL     1       0.740  -0.512   1.242  0.00  0.00    -0.076 C 
ATOM     27  C   UNL     1      -3.528  -0.689   1.373  0.00  0.00    +0.005 C 
ATOM     28  H   UNL     1      -0.004   0.967   2.434  0.00  0.00    -0.082 HD
ENDBRANCH  19  25
ENDBRANCH  18  19
ENDBRANCH   1  18
TORSDOF 4
