REMARK  Name = ZINC60299066
REMARK  9 active torsions:
REMARK  status: ('A' for Active; 'I' for Inactive)
REMARK    1  A    between atoms: C_1  and  C_2
REMARK    2  A    between atoms: C_2  and  O_3
REMARK    3  A    between atoms: O_3  and  C_4
REMARK    4  A    between atoms: C_4  and  C_6
REMARK    5  A    between atoms: C_6  and  C_8
REMARK    6  A    between atoms: C_6  and  S_9
REMARK    7  A    between atoms: S_9  and  C_10
REMARK    8  A    between atoms: C_13  and  C_21
REMARK    9  A    between atoms: C_14  and  C_16
REMARK                            x       y       z     vdW  Elec       q    Type
REMARK                         _______ _______ _______ _____ _____    ______ ____
ROOT
ATOM      1  C   UNL     1      -4.496  -4.638  -0.648  0.00  0.00    +0.168 A 
ATOM      2  N   UNL     1      -4.939  -5.867  -1.039  0.00  0.00    -0.332 N 
ATOM      3  H   UNL     1      -4.389  -6.613  -1.325  0.00  0.00    +0.168 HD
ATOM      4  C   UNL     1      -6.321  -5.850  -0.951  0.00  0.00    +0.082 A 
ATOM      5  C   UNL     1      -6.665  -4.585  -0.500  0.00  0.00    +0.105 A 
ATOM      6  N   UNL     1      -5.523  -3.888  -0.327  0.00  0.00    -0.221 NA
ENDROOT
BRANCH   5   7
ATOM      7  C   UNL     1      -8.033  -4.091  -0.252  0.00  0.00    +0.040 A 
ATOM      8  C   UNL     1      -8.475  -3.221   0.712  0.00  0.00    +0.018 A 
ATOM      9  C   UNL     1      -9.816  -2.903   0.749  0.00  0.00    +0.008 A 
ATOM     10  C   UNL     1     -10.653  -3.457  -0.164  0.00  0.00    +0.046 A 
ATOM     11  S   UNL     1      -9.541  -4.464  -1.131  0.00  0.00    -0.095 S 
ENDBRANCH   5   7
BRANCH   4  12
ATOM     12  C   UNL     1      -7.238  -6.951  -1.271  0.00  0.00    +0.038 A 
ATOM     13  C   UNL     1      -7.152  -8.288  -0.923  0.00  0.00    +0.017 A 
ATOM     14  C   UNL     1      -8.148  -9.139  -1.346  0.00  0.00    +0.008 A 
ATOM     15  C   UNL     1      -9.175  -8.646  -2.084  0.00  0.00    +0.046 A 
ATOM     16  S   UNL     1      -8.760  -6.914  -2.204  0.00  0.00    -0.095 S 
ENDBRANCH   4  12
BRANCH   1  17
ATOM     17  S   UNL     1      -2.808  -4.139  -0.578  0.00  0.00    -0.073 S 
BRANCH  17  18
ATOM     18  C   UNL     1      -2.881  -2.427   0.017  0.00  0.00    +0.160 C 
ATOM     19  C   UNL     1      -3.435  -2.405   1.443  0.00  0.00    +0.031 C 
BRANCH  18  20
ATOM     20  C   UNL     1      -1.496  -1.832   0.006  0.00  0.00    +0.320 C 
ATOM     21  O   UNL     1      -0.528  -2.555  -0.007  0.00  0.00    -0.250 OA
BRANCH  20  22
ATOM     22  O   UNL     1      -1.339  -0.499   0.012  0.00  0.00    -0.464 OA
BRANCH  22  24
ATOM     23  C   UNL     1      -0.019   1.526   0.010  0.00  0.00    +0.048 C 
ATOM     24  C   UNL     1       0.002  -0.004   0.002  0.00  0.00    +0.229 C 
ENDBRANCH  22  24
ENDBRANCH  20  22
ENDBRANCH  18  20
ENDBRANCH  17  18
ENDBRANCH   1  17
TORSDOF 7
