REMARK  Name = ZINC49542927
REMARK  8 active torsions:
REMARK  status: ('A' for Active; 'I' for Inactive)
REMARK    1  A    between atoms: C_1  and  C_2
REMARK    2  A    between atoms: C_2  and  C_3
REMARK    3  A    between atoms: C_3  and  C_5
REMARK    4  A    between atoms: C_3  and  N_13
REMARK    5  A    between atoms: N_13  and  C_14
REMARK    6  A    between atoms: C_19  and  C_20
REMARK    7  A    between atoms: C_20  and  C_22
REMARK    8  A    between atoms: C_20  and  O_23
REMARK                            x       y       z     vdW  Elec       q    Type
REMARK                         _______ _______ _______ _____ _____    ______ ____
ROOT
ATOM      1  N   UNL     1      -0.055  -0.114  -2.441  0.00  0.00    -0.337 N 
ATOM      2  H   UNL     1      -0.683  -0.740  -2.833  0.00  0.00    +0.147 HD
ENDROOT
BRANCH   1   3
ATOM      3  C   UNL     1       0.113   1.153  -3.004  0.00  0.00    +0.033 A 
ATOM      4  C   UNL     1       1.017   2.049  -2.446  0.00  0.00    +0.023 A 
ATOM      5  C   UNL     1       1.181   3.300  -3.006  0.00  0.00    +0.002 A 
ATOM      6  C   UNL     1       0.446   3.663  -4.120  0.00  0.00    +0.000 A 
ATOM      7  C   UNL     1      -0.455   2.774  -4.677  0.00  0.00    +0.008 A 
ATOM      8  C   UNL     1      -0.619   1.518  -4.126  0.00  0.00    +0.001 A 
BRANCH   8   9
ATOM      9  C   UNL     1      -1.596   0.548  -4.738  0.00  0.00    +0.143 C 
ATOM     10  C   UNL     1      -0.857  -0.380  -5.704  0.00  0.00    +0.043 C 
BRANCH   9  11
ATOM     11  O   UNL     1      -2.603   1.271  -5.449  0.00  0.00    -0.387 OA
ATOM     12  H   UNL     1      -2.260   1.821  -6.167  0.00  0.00    +0.210 HD
ENDBRANCH   9  11
ENDBRANCH   8   9
ENDBRANCH   1   3
BRANCH   1  13
ATOM     13  C   UNL     1       0.718  -0.497  -1.257  0.00  0.00    +0.100 C 
BRANCH  13  14
ATOM     14  C   UNL     1       0.847  -1.998  -1.206  0.00  0.00    -0.026 A 
ATOM     15  C   UNL     1      -0.227  -2.796  -1.552  0.00  0.00    +0.007 A 
ATOM     16  C   UNL     1      -0.110  -4.173  -1.505  0.00  0.00    +0.022 A 
ATOM     17  C   UNL     1       1.083  -4.752  -1.112  0.00  0.00    +0.059 A 
ATOM     18  C   UNL     1       2.159  -3.953  -0.765  0.00  0.00    +0.060 A 
ATOM     19  C   UNL     1       2.041  -2.576  -0.818  0.00  0.00    +0.027 A 
ATOM     20 CL   UNL     1       3.656  -4.679  -0.271  0.00  0.00    -0.082 Cl
ATOM     21 CL   UNL     1       1.230  -6.481  -1.052  0.00  0.00    -0.082 Cl
ENDBRANCH  13  14
BRANCH  13  23
ATOM     22  C   UNL     1      -0.019   1.526   0.010  0.00  0.00    +0.006 C 
ATOM     23  C   UNL     1       0.002  -0.004   0.002  0.00  0.00    +0.023 C 
ENDBRANCH  13  23
ENDBRANCH   1  13
TORSDOF 6
