REMARK  Name = ZINC09079597
REMARK  12 active torsions:
REMARK  status: ('A' for Active; 'I' for Inactive)
REMARK    1  A    between atoms: C_1  and  N_2
REMARK    2  A    between atoms: N_2  and  C_3
REMARK    3  A    between atoms: N_2  and  C_4
REMARK    4  A    between atoms: C_7  and  C_10
REMARK    5  A    between atoms: C_10  and  C_12
REMARK    6  A    between atoms: C_10  and  S_30
REMARK    7  A    between atoms: C_12  and  N_13
REMARK    8  A    between atoms: C_14  and  C_16
REMARK    9  A    between atoms: C_16  and  C_17
REMARK   10  A    between atoms: C_17  and  C_18
REMARK   11  A    between atoms: C_18  and  N_19
REMARK   12  A    between atoms: S_30  and  C_33
REMARK                            x       y       z     vdW  Elec       q    Type
REMARK                         _______ _______ _______ _____ _____    ______ ____
ROOT
ATOM      1  C   UNL     1       4.413   5.877  -0.009  0.00  0.00    +0.135 C 
ENDROOT
BRANCH   1   2
ATOM      2  N   UNL     1       3.039   5.370   0.002  0.00  0.00    -0.313 N 
ATOM      3  C   UNL     1       2.811   4.042  -0.003  0.00  0.00    +0.213 C 
ATOM      4  O   UNL     1       3.743   3.266  -0.016  0.00  0.00    -0.276 OA
ATOM      5  H   UNL     1       2.293   5.990   0.012  0.00  0.00    +0.149 HD
BRANCH   3   6
ATOM      6  C   UNL     1       1.397   3.520   0.008  0.00  0.00    +0.097 C 
BRANCH   6   7
ATOM      7  C   UNL     1       1.418   1.990  -0.001  0.00  0.00    +0.029 C 
BRANCH   7   8
ATOM      8  C   UNL     1      -0.018   1.461   0.010  0.00  0.00    +0.117 C 
BRANCH   8   9
ATOM      9  N   UNL     1       0.002  -0.004   0.002  0.00  0.00    -0.234 N 
ATOM     10  C   UNL     1      -0.004  -0.759  -1.111  0.00  0.00    +0.254 C 
ATOM     11  O   UNL     1      -0.026  -0.341  -2.251  0.00  0.00    -0.270 OA
ATOM     12  C   UNL     1       0.024  -2.183  -0.715  0.00  0.00    +0.049 A 
ATOM     13  C   UNL     1       0.032  -3.381  -1.410  0.00  0.00    +0.014 A 
ATOM     14  C   UNL     1       0.055  -4.580  -0.714  0.00  0.00    +0.001 A 
ATOM     15  C   UNL     1       0.069  -4.587   0.668  0.00  0.00    +0.001 A 
ATOM     16  C   UNL     1       0.060  -3.396   1.377  0.00  0.00    +0.014 A 
ATOM     17  C   UNL     1       0.037  -2.191   0.695  0.00  0.00    +0.049 A 
ATOM     18  C   UNL     1       0.023  -0.771   1.107  0.00  0.00    +0.254 C 
ATOM     19  O   UNL     1       0.029  -0.365   2.252  0.00  0.00    -0.270 OA
ENDBRANCH   8   9
ENDBRANCH   7   8
ENDBRANCH   6   7
ENDBRANCH   3   6
ENDBRANCH   1   2
BRANCH   1  20
ATOM     20  C   UNL     1       4.393   7.407  -0.000  0.00  0.00    +0.183 C 
BRANCH  20  24
ATOM     21  C   UNL     1       8.402   8.886  -0.030  0.00  0.00    +0.029 A 
ATOM     22  C   UNL     1       7.531   9.215  -1.062  0.00  0.00    +0.023 A 
ATOM     23  C   UNL     1       6.236   8.735  -1.049  0.00  0.00    +0.007 A 
ATOM     24  C   UNL     1       5.806   7.929  -0.011  0.00  0.00    -0.021 A 
ATOM     25  C   UNL     1       6.669   7.604   1.020  0.00  0.00    +0.007 A 
ATOM     26  C   UNL     1       7.967   8.076   1.010  0.00  0.00    +0.023 A 
BRANCH  21  28
ATOM     27  C   UNL     1      10.169  10.225  -1.139  0.00  0.00    +0.129 C 
ATOM     28  N   UNL     1       9.713   9.370  -0.040  0.00  0.00    -0.336 N 
ATOM     29  C   UNL     1      10.630   9.023   1.048  0.00  0.00    +0.129 C 
ENDBRANCH  21  28
ENDBRANCH  20  24
BRANCH  20  30
ATOM     30  S   UNL     1       3.543   7.992   1.492  0.00  0.00    +0.011 S 
ATOM     31  O   UNL     1       3.671   9.403   1.607  0.00  0.00    -0.168 OA
ATOM     32  O   UNL     1       2.272   7.367   1.609  0.00  0.00    -0.168 OA
BRANCH  30  33
ATOM     33  C   UNL     1       4.487   7.346   2.833  0.00  0.00    +0.126 A 
ATOM     34  C   UNL     1       5.540   7.900   3.481  0.00  0.00    +0.035 A 
ATOM     35  C   UNL     1       6.132   7.203   4.517  0.00  0.00    +0.009 A 
ATOM     36  C   UNL     1       5.642   5.985   4.855  0.00  0.00    +0.047 A 
ATOM     37  S   UNL     1       4.299   5.793   3.695  0.00  0.00    -0.078 S 
ENDBRANCH  30  33
ENDBRANCH  20  30
ENDBRANCH   1  20
TORSDOF 10
