REMARK  Name = ZINC62183629
REMARK  8 active torsions:
REMARK  status: ('A' for Active; 'I' for Inactive)
REMARK    1  A    between atoms: C_1  and  C_2
REMARK    2  A    between atoms: N_8  and  C_9
REMARK    3  A    between atoms: C_9  and  C_10
REMARK    4  A    between atoms: C_11  and  C_19
REMARK    5  A    between atoms: N_14  and  C_15
REMARK    6  A    between atoms: C_15  and  C_16
REMARK    7  A    between atoms: C_15  and  C_17
REMARK    8  A    between atoms: C_15  and  C_18
REMARK                            x       y       z     vdW  Elec       q    Type
REMARK                         _______ _______ _______ _____ _____    ______ ____
ROOT
ATOM      1  C   UNL     1       2.553  -0.464   2.901  0.00  0.00    +0.037 A 
ATOM      2  C   UNL     1       3.370  -1.489   3.341  0.00  0.00    +0.102 A 
ATOM      3  C   UNL     1       3.820  -1.135   4.635  0.00  0.00    +0.149 A 
ATOM      4  N   UNL     1       3.302   0.023   4.939  0.00  0.00    -0.178 NA
ATOM      5  N   UNL     1       2.513   0.463   3.870  0.00  0.00    -0.264 N 
ENDROOT
BRANCH   5   6
ATOM      6  C   UNL     1       1.767   1.722   3.819  0.00  0.00    +0.055 C 
ATOM      7  C   UNL     1       0.305   1.435   3.471  0.00  0.00    +0.036 C 
ATOM      8  C   UNL     1       1.841   2.414   5.182  0.00  0.00    +0.036 C 
ATOM      9  C   UNL     1       2.376   2.633   2.752  0.00  0.00    +0.036 C 
ENDBRANCH   5   6
BRANCH   2  10
ATOM     10  C   UNL     1       3.708  -2.715   2.604  0.00  0.00    +0.390 C 
ATOM     11  O   UNL     1       4.447  -3.549   3.110  0.00  0.00    -0.240 OA
ATOM     12  O   UNL     1       3.249  -2.902   1.486  0.00  0.00    -0.240 OA
ENDBRANCH   2  10
BRANCH   1  13
ATOM     13  C   UNL     1       1.842  -0.397   1.574  0.00  0.00    -0.022 C 
BRANCH  13  20
ATOM     14  C   UNL     1      -0.308   0.604   0.070  0.00  0.00    -0.013 C 
ATOM     15  C   UNL     1      -0.207  -0.880   0.428  0.00  0.00    -0.071 C 
ATOM     16  C   UNL     1      -1.613  -1.466   0.573  0.00  0.00    -0.016 C 
ATOM     17  C   UNL     1      -1.507  -2.951   0.930  0.00  0.00    -0.003 C 
ATOM     18  C   UNL     1      -0.681  -3.100   2.211  0.00  0.00    -0.019 C 
ATOM     19  C   UNL     1       0.690  -2.454   2.005  0.00  0.00    -0.078 C 
ATOM     20  N   UNL     1       0.522  -1.030   1.693  0.00  0.00    +0.385 N 
ATOM     21  H   UNL     1       0.003  -0.583   2.434  0.00  0.00    -0.081 HD
ENDBRANCH  13  20
ENDBRANCH   1  13
TORSDOF 4
