REMARK  Name = ZINC01109871
REMARK  9 active torsions:
REMARK  status: ('A' for Active; 'I' for Inactive)
REMARK    1  A    between atoms: C_1  and  C_2
REMARK    2  A    between atoms: C_3  and  C_13
REMARK    3  A    between atoms: C_5  and  C_7
REMARK    4  A    between atoms: C_13  and  C_15
REMARK    5  A    between atoms: C_16  and  O_34
REMARK    6  A    between atoms: N_19  and  C_27
REMARK    7  A    between atoms: C_20  and  C_22
REMARK    8  A    between atoms: C_27  and  C_28
REMARK    9  A    between atoms: C_28  and  N_59
REMARK                            x       y       z     vdW  Elec       q    Type
REMARK                         _______ _______ _______ _____ _____    ______ ____
ROOT
ATOM      1  C   UNL     1       6.058   6.353  -0.093  0.00  0.00    +0.072 C 
ATOM      2  C   UNL     1       6.710   7.536  -0.166  0.00  0.00    +0.188 C 
ATOM      3  C   UNL     1       5.724   8.635  -0.165  0.00  0.00    +0.282 C 
ATOM      4  O   UNL     1       5.998   9.818  -0.221  0.00  0.00    -0.267 OA
ATOM      5  N   UNL     1       4.477   8.134  -0.092  0.00  0.00    -0.285 N 
ATOM      6  C   UNL     1       4.582   6.671  -0.047  0.00  0.00    +0.151 C 
ENDROOT
BRANCH   6   7
ATOM      7  C   UNL     1       3.883   6.062  -1.236  0.00  0.00    +0.015 A 
ATOM      8  C   UNL     1       3.043   4.999  -1.280  0.00  0.00    +0.013 A 
ATOM      9  C   UNL     1       2.513   4.613  -2.497  0.00  0.00    +0.008 A 
ATOM     10  C   UNL     1       2.850   5.309  -3.610  0.00  0.00    +0.045 A 
ATOM     11  S   UNL     1       3.942   6.557  -2.950  0.00  0.00    -0.099 S 
ENDBRANCH   6   7
BRANCH   1  12
ATOM     12  C   UNL     1       6.667   5.018  -0.069  0.00  0.00    +0.203 C 
ATOM     13  O   UNL     1       7.284   4.612  -1.039  0.00  0.00    -0.286 OA
BRANCH  12  16
ATOM     14  C   UNL     1       7.611   2.067   0.232  0.00  0.00    +0.067 C 
ATOM     15  C   UNL     1       6.932   2.854   1.324  0.00  0.00    +0.057 A 
ATOM     16  C   UNL     1       6.534   4.173   1.120  0.00  0.00    +0.082 A 
ATOM     17  S   UNL     1       5.811   4.546   2.711  0.00  0.00    -0.064 S 
ATOM     18  C   UNL     1       6.098   3.006   3.458  0.00  0.00    +0.109 A 
ATOM     19  N   UNL     1       6.696   2.322   2.491  0.00  0.00    -0.244 NA
BRANCH  18  20
ATOM     20  C   UNL     1       5.756   2.564   4.826  0.00  0.00    +0.007 A 
ATOM     21  C   UNL     1       5.121   3.440   5.708  0.00  0.00    +0.010 A 
ATOM     22  C   UNL     1       4.806   3.022   6.984  0.00  0.00    +0.001 A 
ATOM     23  C   UNL     1       5.117   1.736   7.391  0.00  0.00    +0.000 A 
ATOM     24  C   UNL     1       5.747   0.863   6.522  0.00  0.00    +0.001 A 
ATOM     25  C   UNL     1       6.068   1.268   5.243  0.00  0.00    +0.010 A 
ENDBRANCH  18  20
ENDBRANCH  12  16
ENDBRANCH   1  12
BRANCH   2  26
ATOM     26  O   UNL     1       8.054   7.688  -0.230  0.00  0.00    -0.502 OA
ATOM     27  H   UNL     1       8.277   8.662  -0.276  0.00  0.00    +0.292 HD
ENDBRANCH   2  26
BRANCH   5  28
ATOM     28  C   UNL     1       3.236   8.911  -0.068  0.00  0.00    +0.090 C 
BRANCH  28  29
ATOM     29  C   UNL     1       2.742   9.128  -1.500  0.00  0.00    -0.059 C 
BRANCH  29  35
ATOM     30  C   UNL     1       0.408   9.142  -0.850  0.00  0.00    -0.050 C 
ATOM     31  C   UNL     1      -0.851  10.011  -0.792  0.00  0.00    +0.141 C 
ATOM     32  O   UNL     1      -1.185  10.446  -2.112  0.00  0.00    -0.383 OA
ATOM     33  C   UNL     1      -0.148  11.195  -2.752  0.00  0.00    +0.141 C 
ATOM     34  C   UNL     1       1.119  10.338  -2.830  0.00  0.00    -0.050 C 
ATOM     35  N   UNL     1       1.500   9.930  -1.461  0.00  0.00    +0.384 N 
ATOM     36  H   UNL     1       1.663  10.770  -0.895  0.00  0.00    -0.082 HD
ENDBRANCH  29  35
ENDBRANCH  28  29
ENDBRANCH   5  28
TORSDOF 8
