REMARK  Name = ZINC39686651
REMARK  11 active torsions:
REMARK  status: ('A' for Active; 'I' for Inactive)
REMARK    1  A    between atoms: C_1  and  C_2
REMARK    2  A    between atoms: C_2  and  C_4
REMARK    3  A    between atoms: C_2  and  N_13
REMARK    4  A    between atoms: C_4  and  C_5
REMARK    5  A    between atoms: C_10  and  O_11
REMARK    6  A    between atoms: O_11  and  C_12
REMARK    7  A    between atoms: C_14  and  C_16
REMARK    8  A    between atoms: C_27  and  C_29
REMARK    9  A    between atoms: C_29  and  C_30
REMARK   10  A    between atoms: C_30  and  C_31
REMARK   11  A    between atoms: C_31  and  C_32
REMARK                            x       y       z     vdW  Elec       q    Type
REMARK                         _______ _______ _______ _____ _____    ______ ____
ROOT
ATOM      1  C   UNL     1       2.783  -1.099   2.395  0.00  0.00    +0.100 C 
ATOM      2  C   UNL     1       2.678  -0.070   3.542  0.00  0.00    +0.121 C 
ATOM      3  N   UNL     1       3.999  -0.120   4.212  0.00  0.00    -0.300 N 
ATOM      4  C   UNL     1       4.971  -0.257   3.101  0.00  0.00    +0.115 C 
ATOM      5  C   UNL     1       4.289  -1.219   2.107  0.00  0.00    -0.004 C 
ATOM      6  C   UNL     1       4.589  -0.794   0.673  0.00  0.00    -0.010 C 
ATOM      7  C   UNL     1       6.083  -0.977   0.393  0.00  0.00    -0.082 C 
ATOM      8  N   UNL     1       6.452  -2.383   0.596  0.00  0.00    +0.379 N 
ATOM      9  C   UNL     1       6.248  -2.757   2.001  0.00  0.00    -0.082 C 
ATOM     10  C   UNL     1       4.761  -2.649   2.349  0.00  0.00    -0.010 C 
ATOM     11  C   UNL     1       4.258  -0.057   5.533  0.00  0.00    +0.216 C 
ATOM     12  O   UNL     1       5.402  -0.111   5.930  0.00  0.00    -0.276 OA
ATOM     13  H   UNL     1       5.879  -2.968   0.007  0.00  0.00    -0.086 HD
ATOM     14  H   UNL     1       7.423  -2.513   0.352  0.00  0.00    -0.086 HD
ENDROOT
BRANCH   1  16
ATOM     15  N   UNL     1       1.238  -1.427   0.491  0.00  0.00    -0.312 N 
ATOM     16  C   UNL     1       2.054  -0.600   1.174  0.00  0.00    +0.218 C 
ATOM     17  O   UNL     1       2.202   0.546   0.806  0.00  0.00    -0.275 OA
ATOM     18  H   UNL     1       1.119  -2.344   0.785  0.00  0.00    +0.149 HD
BRANCH  15  20
ATOM     19  C   UNL     1      -0.768  -0.252  -0.269  0.00  0.00    +0.028 C 
ATOM     20  C   UNL     1       0.529  -0.942  -0.696  0.00  0.00    +0.074 C 
BRANCH  20  21
ATOM     21  C   UNL     1       0.202  -2.122  -1.613  0.00  0.00    +0.060 C 
BRANCH  21  22
ATOM     22  C   UNL     1       1.481  -2.725  -2.131  0.00  0.00    -0.004 A 
ATOM     23  C   UNL     1       1.984  -2.333  -3.357  0.00  0.00    +0.007 A 
ATOM     24  C   UNL     1       3.158  -2.886  -3.833  0.00  0.00    +0.000 A 
ATOM     25  C   UNL     1       3.832  -3.834  -3.085  0.00  0.00    +0.004 A 
ATOM     26  C   UNL     1       3.334  -4.230  -1.859  0.00  0.00    +0.046 A 
ATOM     27  C   UNL     1       2.159  -3.672  -1.376  0.00  0.00    +0.123 A 
BRANCH  27  28
ATOM     28  O   UNL     1       1.669  -4.056  -0.168  0.00  0.00    -0.495 OA
ATOM     29  C   UNL     1       2.419  -5.034   0.555  0.00  0.00    +0.277 C 
ENDBRANCH  27  28
ENDBRANCH  21  22
ENDBRANCH  20  21
ENDBRANCH  15  20
ENDBRANCH   1  16
BRANCH  11  30
ATOM     30  C   UNL     1       3.125   0.083   6.517  0.00  0.00    +0.096 C 
BRANCH  30  31
ATOM     31  C   UNL     1       3.688   0.131   7.939  0.00  0.00    +0.014 C 
BRANCH  31  32
ATOM     32  C   UNL     1       2.538   0.273   8.938  0.00  0.00    +0.035 C 
BRANCH  32  33
ATOM     33  C   UNL     1       3.092   0.321  10.339  0.00  0.00    -0.047 A 
ATOM     34  C   UNL     1       3.269  -0.850  11.053  0.00  0.00    +0.003 A 
ATOM     35  C   UNL     1       3.778  -0.805  12.337  0.00  0.00    +0.000 A 
ATOM     36  C   UNL     1       4.110   0.409  12.908  0.00  0.00    +0.000 A 
ATOM     37  C   UNL     1       3.933   1.579  12.194  0.00  0.00    +0.000 A 
ATOM     38  C   UNL     1       3.429   1.535  10.908  0.00  0.00    +0.003 A 
ENDBRANCH  32  33
ENDBRANCH  31  32
ENDBRANCH  30  31
ENDBRANCH  11  30
TORSDOF 9
