REMARK  Name = ZINC10321197
REMARK  9 active torsions:
REMARK  status: ('A' for Active; 'I' for Inactive)
REMARK    1  A    between atoms: C_1  and  C_2
REMARK    2  A    between atoms: C_3  and  C_27
REMARK    3  A    between atoms: C_8  and  C_10
REMARK    4  A    between atoms: C_10  and  O_11
REMARK    5  A    between atoms: O_11  and  C_12
REMARK    6  A    between atoms: C_12  and  C_14
REMARK    7  A    between atoms: C_17  and  S_25
REMARK    8  A    between atoms: N_18  and  C_19
REMARK    9  A    between atoms: S_25  and  C_26
REMARK                            x       y       z     vdW  Elec       q    Type
REMARK                         _______ _______ _______ _____ _____    ______ ____
ROOT
ATOM      1  C   UNL     1       2.322  -2.504   2.206  0.00  0.00    +0.358 C 
ATOM      2  O   UNL     1       2.721  -3.340   2.996  0.00  0.00    -0.243 OA
ENDROOT
BRANCH   1   3
ATOM      3  C   UNL     1       1.737  -2.909   0.981  0.00  0.00    +0.152 A 
ATOM      4  C   UNL     1       1.546  -4.203   0.542  0.00  0.00    +0.147 A 
ATOM      5  N   UNL     1       0.972  -4.151  -0.657  0.00  0.00    -0.229 NA
ATOM      6  C   UNL     1       0.779  -2.895  -1.010  0.00  0.00    +0.174 A 
ATOM      7  N   UNL     1       1.237  -2.081  -0.021  0.00  0.00    -0.282 N 
BRANCH   7   8
ATOM      8  C   UNL     1       1.215  -0.680  -0.013  0.00  0.00    +0.049 A 
ATOM      9  C   UNL     1       0.002  -0.004   0.002  0.00  0.00    +0.026 A 
ATOM     10  C   UNL     1      -0.017   1.377   0.010  0.00  0.00    +0.002 A 
ATOM     11  C   UNL     1       1.171   2.086   0.002  0.00  0.00    +0.000 A 
ATOM     12  C   UNL     1       2.380   1.415  -0.013  0.00  0.00    +0.002 A 
ATOM     13  C   UNL     1       2.405   0.034  -0.021  0.00  0.00    +0.026 A 
ENDBRANCH   7   8
BRANCH   6  14
ATOM     14  S   UNL     1       0.048  -2.357  -2.520  0.00  0.00    -0.091 S 
ATOM     15  C   UNL     1      -0.291  -3.959  -3.292  0.00  0.00    +0.093 C 
ENDBRANCH   6  14
ENDBRANCH   1   3
BRANCH   1  16
ATOM     16  O   UNL     1       2.438  -1.191   2.497  0.00  0.00    -0.451 OA
BRANCH  16  17
ATOM     17  C   UNL     1       3.038  -0.855   3.750  0.00  0.00    +0.328 C 
BRANCH  17  25
ATOM     18  C   UNL     1       2.857   5.841   3.639  0.00  0.00    +0.066 C 
ATOM     19  C   UNL     1       3.343   4.788   4.601  0.00  0.00    +0.050 A 
ATOM     20  C   UNL     1       3.908   5.136   5.783  0.00  0.00    +0.011 A 
ATOM     21  S   UNL     1       4.269   3.525   6.466  0.00  0.00    -0.057 S 
ATOM     22  C   UNL     1       3.650   2.577   5.149  0.00  0.00    +0.165 A 
ATOM     23  N   UNL     1       3.233   3.506   4.311  0.00  0.00    -0.230 NA
ATOM     24  N   UNL     1       3.609   1.195   5.011  0.00  0.00    -0.262 N 
ATOM     25  C   UNL     1       3.082   0.644   3.899  0.00  0.00    +0.256 C 
ATOM     26  O   UNL     1       2.643   1.354   3.020  0.00  0.00    -0.272 OA
ATOM     27  C   UNL     1       4.162   6.504   6.361  0.00  0.00    +0.053 C 
ATOM     28  H   UNL     1       3.961   0.627   5.714  0.00  0.00    +0.157 HD
ENDBRANCH  17  25
ENDBRANCH  16  17
ENDBRANCH   1  16
TORSDOF 6
