REMARK  Name = ZINC08275970
REMARK  9 active torsions:
REMARK  status: ('A' for Active; 'I' for Inactive)
REMARK    1  A    between atoms: C_1  and  C_2
REMARK    2  A    between atoms: C_2  and  N_3
REMARK    3  A    between atoms: C_4  and  C_26
REMARK    4  A    between atoms: C_7  and  S_8
REMARK    5  A    between atoms: S_8  and  C_9
REMARK    6  A    between atoms: C_9  and  C_10
REMARK    7  A    between atoms: N_12  and  C_13
REMARK    8  A    between atoms: C_15  and  C_19
REMARK    9  A    between atoms: N_17  and  C_18
REMARK                            x       y       z     vdW  Elec       q    Type
REMARK                         _______ _______ _______ _____ _____    ______ ____
ROOT
ATOM      1  C   UNL     1       3.636   4.858   3.806  0.00  0.00    +0.229 C 
ATOM      2  O   UNL     1       4.064   3.747   4.036  0.00  0.00    -0.275 OA
ATOM      3  N   UNL     1       4.324   5.943   4.214  0.00  0.00    -0.270 N 
ATOM      4  H   UNL     1       3.981   6.832   4.030  0.00  0.00    +0.156 HD
ENDROOT
BRANCH   3   5
ATOM      5  C   UNL     1       5.528   5.788   4.901  0.00  0.00    +0.123 A 
ATOM      6  C   UNL     1       6.117   4.608   5.229  0.00  0.00    +0.073 A 
ATOM      7  C   UNL     1       7.313   4.900   5.911  0.00  0.00    +0.095 A 
ATOM      8  N   UNL     1       7.429   6.208   5.994  0.00  0.00    -0.170 NA
ATOM      9  N   UNL     1       6.319   6.789   5.367  0.00  0.00    -0.253 N 
ATOM     10  C   UNL     1       6.058   8.225   5.237  0.00  0.00    +0.174 C 
BRANCH   7  11
ATOM     11  C   UNL     1       8.274   3.905   6.449  0.00  0.00    +0.002 A 
ATOM     12  C   UNL     1       8.027   2.542   6.297  0.00  0.00    +0.011 A 
ATOM     13  C   UNL     1       8.926   1.621   6.794  0.00  0.00    +0.020 A 
ATOM     14  C   UNL     1      10.066   2.049   7.453  0.00  0.00    +0.041 A 
ATOM     15  C   UNL     1      10.313   3.401   7.611  0.00  0.00    +0.020 A 
ATOM     16  C   UNL     1       9.423   4.331   7.112  0.00  0.00    +0.011 A 
ATOM     17 CL   UNL     1      11.190   0.885   8.083  0.00  0.00    -0.084 Cl
ENDBRANCH   7  11
ENDBRANCH   3   5
BRANCH   1  18
ATOM     18  C   UNL     1       2.335   5.026   3.065  0.00  0.00    +0.173 C 
BRANCH  18  19
ATOM     19  S   UNL     1       1.659   3.397   2.656  0.00  0.00    -0.077 S 
BRANCH  19  24
ATOM     20  N   UNL     1      -0.749   3.044   1.275  0.00  0.00    -0.306 N 
ATOM     21  C   UNL     1      -1.709   3.860   0.743  0.00  0.00    +0.137 A 
ATOM     22  N   UNL     1      -1.341   5.090   0.968  0.00  0.00    -0.133 NA
ATOM     23  N   UNL     1      -0.223   5.107   1.601  0.00  0.00    -0.122 NA
ATOM     24  C   UNL     1       0.185   3.878   1.820  0.00  0.00    +0.192 A 
BRANCH  21  25
ATOM     25  C   UNL     1      -2.961   3.418   0.030  0.00  0.00    +0.057 C 
ATOM     26  C   UNL     1      -3.796   4.496  -0.664  0.00  0.00    +0.012 C 
ATOM     27  C   UNL     1      -4.303   3.848   0.627  0.00  0.00    +0.012 C 
ENDBRANCH  21  25
BRANCH  20  29
ATOM     28  C   UNL     1      -0.013   1.086   0.008  0.00  0.00    +0.027 C 
ATOM     29  C   UNL     1      -0.729   1.579   1.267  0.00  0.00    +0.122 C 
ENDBRANCH  20  29
ENDBRANCH  19  24
ENDBRANCH  18  19
ENDBRANCH   1  18
TORSDOF 7
