REMARK  Name = ZINC00931130
REMARK  8 active torsions:
REMARK  status: ('A' for Active; 'I' for Inactive)
REMARK    1  A    between atoms: C_1  and  C_2
REMARK    2  A    between atoms: C_4  and  N_13
REMARK    3  A    between atoms: C_7  and  N_8
REMARK    4  A    between atoms: N_13  and  C_14
REMARK    5  A    between atoms: C_14  and  C_16
REMARK    6  A    between atoms: C_14  and  C_21
REMARK    7  A    between atoms: N_23  and  C_24
REMARK    8  A    between atoms: C_30  and  C_32
REMARK                            x       y       z     vdW  Elec       q    Type
REMARK                         _______ _______ _______ _____ _____    ______ ____
ROOT
ATOM      1  N   UNL     1      -0.182  -2.772  -2.408  0.00  0.00    -0.249 N 
ATOM      2  C   UNL     1      -0.190  -2.135  -3.596  0.00  0.00    +0.265 C 
ATOM      3  O   UNL     1      -0.058  -0.930  -3.638  0.00  0.00    -0.271 OA
ENDROOT
BRANCH   2   4
ATOM      4  C   UNL     1      -0.362  -2.919  -4.871  0.00  0.00    +0.296 C 
ATOM      5  C   UNL     1      -1.802  -3.444  -4.965  0.00  0.00    +0.283 C 
ATOM      6  O   UNL     1      -1.934  -4.171  -6.191  0.00  0.00    -0.484 OA
ATOM      7  C   UNL     1      -1.429  -3.581  -7.309  0.00  0.00    +0.162 A 
ATOM      8  C   UNL     1      -1.829  -4.034  -8.558  0.00  0.00    +0.049 A 
ATOM      9  C   UNL     1      -1.322  -3.448  -9.702  0.00  0.00    +0.004 A 
ATOM     10  C   UNL     1      -0.414  -2.409  -9.605  0.00  0.00    +0.004 A 
ATOM     11  C   UNL     1      -0.013  -1.953  -8.364  0.00  0.00    +0.049 A 
ATOM     12  C   UNL     1      -0.519  -2.536  -7.212  0.00  0.00    +0.163 A 
ATOM     13  O   UNL     1      -0.119  -2.070  -5.997  0.00  0.00    -0.472 OA
ENDBRANCH   2   4
BRANCH   1  17
ATOM     14  C   UNL     1      -0.423   1.573  -0.121  0.00  0.00    +0.046 C 
ATOM     15  C   UNL     1      -0.277   0.074  -0.082  0.00  0.00    -0.023 A 
ATOM     16  C   UNL     1      -0.297  -0.653  -1.255  0.00  0.00    +0.029 A 
ATOM     17  C   UNL     1      -0.162  -2.035  -1.218  0.00  0.00    +0.038 A 
ATOM     18  C   UNL     1      -0.007  -2.685  -0.001  0.00  0.00    +0.025 A 
ATOM     19  C   UNL     1       0.012  -1.958   1.172  0.00  0.00    +0.030 A 
ATOM     20  C   UNL     1      -0.117  -0.576   1.135  0.00  0.00    +0.072 A 
BRANCH  20  21
ATOM     21  N   UNL     1      -0.090   0.164   2.327  0.00  0.00    -0.200 N 
ATOM     22  C   UNL     1      -0.672  -0.156   3.503  0.00  0.00    +0.250 A 
ATOM     23  N   UNL     1      -0.399   0.806   4.345  0.00  0.00    -0.116 NA
ATOM     24  N   UNL     1       0.316   1.712   3.781  0.00  0.00    -0.023 NA
ATOM     25  N   UNL     1       0.552   1.393   2.555  0.00  0.00    -0.039 NA
ENDBRANCH  20  21
ENDBRANCH   1  17
BRANCH   1  26
ATOM     26  C   UNL     1      -0.196  -4.236  -2.362  0.00  0.00    +0.233 C 
BRANCH  26  27
ATOM     27  C   UNL     1       1.116  -4.734  -1.812  0.00  0.00    +0.135 A 
ATOM     28  C   UNL     1       1.802  -5.801  -2.259  0.00  0.00    +0.047 A 
ATOM     29  C   UNL     1       2.966  -5.902  -1.462  0.00  0.00    +0.041 A 
ATOM     30  C   UNL     1       2.922  -4.891  -0.577  0.00  0.00    +0.195 A 
ATOM     31  O   UNL     1       1.802  -4.183  -0.798  0.00  0.00    -0.465 OA
ENDBRANCH  26  27
BRANCH  26  32
ATOM     32  C   UNL     1      -1.321  -4.701  -1.474  0.00  0.00    +0.242 C 
ATOM     33  O   UNL     1      -2.041  -3.889  -0.933  0.00  0.00    -0.273 OA
ATOM     34  N   UNL     1      -1.527  -6.019  -1.282  0.00  0.00    -0.311 N 
ATOM     35  H   UNL     1      -0.951  -6.668  -1.715  0.00  0.00    +0.149 HD
BRANCH  34  36
ATOM     36  C   UNL     1      -2.621  -6.470  -0.418  0.00  0.00    +0.073 C 
ATOM     37  C   UNL     1      -2.151  -6.481   1.038  0.00  0.00    +0.022 C 
ATOM     38  C   UNL     1      -3.293  -6.952   1.940  0.00  0.00    +0.002 C 
ATOM     39  C   UNL     1      -3.716  -8.365   1.530  0.00  0.00    +0.000 C 
ATOM     40  C   UNL     1      -4.186  -8.354   0.074  0.00  0.00    +0.002 C 
ATOM     41  C   UNL     1      -3.044  -7.883  -0.827  0.00  0.00    +0.022 C 
ENDBRANCH  34  36
ENDBRANCH  26  32
ENDBRANCH   1  26
TORSDOF 7
