REMARK  Name = ZINC38546467
REMARK  11 active torsions:
REMARK  status: ('A' for Active; 'I' for Inactive)
REMARK    1  A    between atoms: C_1  and  C_2
REMARK    2  A    between atoms: C_2  and  C_3
REMARK    3  A    between atoms: C_5  and  C_16
REMARK    4  A    between atoms: C_6  and  N_8
REMARK    5  A    between atoms: C_9  and  C_11
REMARK    6  A    between atoms: C_16  and  C_18
REMARK    7  A    between atoms: C_16  and  N_27
REMARK    8  A    between atoms: C_21  and  C_24
REMARK    9  A    between atoms: C_24  and  C_25
REMARK   10  A    between atoms: C_24  and  C_26
REMARK   11  A    between atoms: N_30  and  C_33
REMARK                            x       y       z     vdW  Elec       q    Type
REMARK                         _______ _______ _______ _____ _____    ______ ____
ROOT
ATOM      1  C   UNL     1      -4.422  -1.629  -1.927  0.00  0.00    +0.119 C 
ENDROOT
BRANCH   1   2
ATOM      2  N   UNL     1      -3.965  -0.952  -3.147  0.00  0.00    -0.295 NA
ATOM      3  C   UNL     1      -3.868   0.500  -2.939  0.00  0.00    +0.067 C 
ATOM      4  C   UNL     1      -3.333   1.160  -4.212  0.00  0.00    -0.064 C 
ATOM      5  N   UNL     1      -4.237   0.868  -5.332  0.00  0.00    +0.379 N 
ATOM      6  C   UNL     1      -4.304  -0.584  -5.544  0.00  0.00    -0.064 C 
ATOM      7  C   UNL     1      -4.847  -1.259  -4.282  0.00  0.00    +0.067 C 
ATOM      8  C   UNL     1      -3.733   1.517  -6.550  0.00  0.00    -0.096 C 
ATOM      9  H   UNL     1      -5.159   1.220  -5.121  0.00  0.00    -0.082 HD
ENDBRANCH   1   2
BRANCH   1  10
ATOM     10  C   UNL     1      -4.422  -3.120  -2.149  0.00  0.00    -0.026 A 
ATOM     11  C   UNL     1      -3.390  -3.714  -2.852  0.00  0.00    +0.006 A 
ATOM     12  C   UNL     1      -3.390  -5.081  -3.056  0.00  0.00    +0.004 A 
ATOM     13  C   UNL     1      -4.422  -5.854  -2.557  0.00  0.00    -0.045 A 
ATOM     14  C   UNL     1      -5.454  -5.260  -1.855  0.00  0.00    +0.004 A 
ATOM     15  C   UNL     1      -5.452  -3.894  -1.647  0.00  0.00    +0.006 A 
BRANCH  13  16
ATOM     16  C   UNL     1      -4.423  -7.345  -2.781  0.00  0.00    +0.013 C 
ATOM     17  C   UNL     1      -4.410  -8.063  -1.430  0.00  0.00    +0.012 C 
ATOM     18  C   UNL     1      -5.678  -7.743  -3.559  0.00  0.00    +0.012 C 
ENDBRANCH  13  16
ENDBRANCH   1  10
BRANCH   1  21
ATOM     19  C   UNL     1      -1.412  -0.526   0.013  0.00  0.00    -0.008 A 
ATOM     20  C   UNL     1      -2.219  -0.820  -1.034  0.00  0.00    +0.018 A 
ATOM     21  C   UNL     1      -3.495  -1.292  -0.787  0.00  0.00    +0.003 A 
ATOM     22  C   UNL     1      -3.900  -1.445   0.505  0.00  0.00    +0.077 A 
ATOM     23  S   UNL     1      -2.451  -0.922   1.409  0.00  0.00    -0.078 S 
BRANCH  22  24
ATOM     24  N   UNL     1      -5.126  -1.899   0.995  0.00  0.00    -0.273 N 
ATOM     25  C   UNL     1      -5.332  -1.980   2.324  0.00  0.00    +0.284 C 
ATOM     26  O   UNL     1      -4.450  -1.657   3.098  0.00  0.00    -0.266 OA
ATOM     27  H   UNL     1      -5.829  -2.156   0.378  0.00  0.00    +0.156 HD
BRANCH  25  28
ATOM     28  C   UNL     1      -6.620  -2.456   2.839  0.00  0.00    +0.189 A 
ATOM     29  C   UNL     1      -6.962  -2.581   4.155  0.00  0.00    +0.054 A 
ATOM     30  C   UNL     1      -8.278  -3.068   4.186  0.00  0.00    +0.042 A 
ATOM     31  C   UNL     1      -8.677  -3.218   2.903  0.00  0.00    +0.196 A 
ATOM     32  O   UNL     1      -7.677  -2.843   2.095  0.00  0.00    -0.458 OA
ENDBRANCH  25  28
ENDBRANCH  22  24
BRANCH  19  34
ATOM     33  C   UNL     1      -0.019   1.526   0.010  0.00  0.00    +0.009 C 
ATOM     34  C   UNL     1       0.002  -0.004   0.002  0.00  0.00    +0.039 C 
ENDBRANCH  19  34
ENDBRANCH   1  21
TORSDOF 7
