REMARK  Name = ZINC19659997
REMARK  9 active torsions:
REMARK  status: ('A' for Active; 'I' for Inactive)
REMARK    1  A    between atoms: C_1  and  C_2
REMARK    2  A    between atoms: C_7  and  C_8
REMARK    3  A    between atoms: C_10  and  C_13
REMARK    4  A    between atoms: C_13  and  C_14
REMARK    5  A    between atoms: C_14  and  N_15
REMARK    6  A    between atoms: C_16  and  C_18
REMARK    7  A    between atoms: C_21  and  N_24
REMARK    8  A    between atoms: C_25  and  C_30
REMARK    9  A    between atoms: C_27  and  C_29
REMARK                            x       y       z     vdW  Elec       q    Type
REMARK                         _______ _______ _______ _____ _____    ______ ____
ROOT
ATOM      1  N   UNL     1       3.881  -5.554   1.117  0.00  0.00    -0.311 N 
ATOM      2  C   UNL     1       3.644  -6.477   2.070  0.00  0.00    +0.244 C 
ATOM      3  O   UNL     1       2.826  -6.254   2.941  0.00  0.00    -0.270 OA
ATOM      4  H   UNL     1       4.622  -5.755   0.328  0.00  0.00    +0.149 HD
ENDROOT
BRANCH   2   5
ATOM      5  C   UNL     1       4.378  -7.758   2.056  0.00  0.00    +0.037 A 
ATOM      6  C   UNL     1       5.314  -8.018   1.053  0.00  0.00    +0.015 A 
ATOM      7  C   UNL     1       6.001  -9.212   1.046  0.00  0.00    +0.028 A 
ATOM      8  C   UNL     1       5.755 -10.162   2.031  0.00  0.00    +0.066 A 
ATOM      9  C   UNL     1       4.819  -9.909   3.028  0.00  0.00    +0.028 A 
ATOM     10  C   UNL     1       4.133  -8.716   3.044  0.00  0.00    +0.015 A 
BRANCH   8  11
ATOM     11  N   UNL     1       6.450 -11.376   2.018  0.00  0.00    -0.237 N 
ATOM     12  C   UNL     1       6.833 -12.067   0.914  0.00  0.00    +0.042 A 
ATOM     13  C   UNL     1       7.480 -13.180   1.331  0.00  0.00    +0.047 A 
ATOM     14  C   UNL     1       7.486 -13.176   2.731  0.00  0.00    +0.061 A 
ATOM     15  N   UNL     1       6.870 -12.098   3.143  0.00  0.00    -0.171 NA
ATOM     16  C   UNL     1       8.097 -14.234   3.612  0.00  0.00    +0.067 C 
ATOM     17  C   UNL     1       6.585 -11.666  -0.518  0.00  0.00    +0.066 C 
ENDBRANCH   8  11
ENDBRANCH   2   5
BRANCH   1  18
ATOM     18  C   UNL     1       3.153  -4.283   1.130  0.00  0.00    +0.112 C 
BRANCH  18  19
ATOM     19  C   UNL     1       3.607  -3.423  -0.051  0.00  0.00    +0.093 C 
BRANCH  19  29
ATOM     20  C   UNL     1       1.123   3.592   0.011  0.00  0.00    +0.044 C 
ATOM     21  C   UNL     1       1.167   2.086   0.002  0.00  0.00    -0.045 A 
ATOM     22  C   UNL     1       2.383   1.437  -0.013  0.00  0.00    +0.031 A 
ATOM     23  C   UNL     1       2.422   0.049  -0.021  0.00  0.00    +0.066 A 
ATOM     24  C   UNL     1       1.223  -0.684  -0.013  0.00  0.00    +0.089 A 
ATOM     25  C   UNL     1       0.002  -0.004   0.002  0.00  0.00    +0.033 A 
ATOM     26  C   UNL     1      -0.017   1.362   0.009  0.00  0.00    -0.045 A 
ATOM     27  C   UNL     1      -1.336   2.090   0.020  0.00  0.00    +0.044 C 
ATOM     28  N   UNL     1       1.562  -1.998  -0.024  0.00  0.00    -0.232 NA
ATOM     29  C   UNL     1       2.858  -2.115  -0.037  0.00  0.00    +0.110 A 
ATOM     30  N   UNL     1       3.439  -0.885  -0.036  0.00  0.00    -0.342 N 
ATOM     31  H   UNL     1       4.488  -0.555  -0.044  0.00  0.00    +0.167 HD
ENDBRANCH  19  29
ENDBRANCH  18  19
ENDBRANCH   1  18
TORSDOF 5
