REMARK  Name = ZINC39687560
REMARK  8 active torsions:
REMARK  status: ('A' for Active; 'I' for Inactive)
REMARK    1  A    between atoms: C_1  and  C_2
REMARK    2  A    between atoms: C_2  and  C_3
REMARK    3  A    between atoms: C_3  and  C_4
REMARK    4  A    between atoms: C_4  and  C_6
REMARK    5  A    between atoms: C_4  and  C_7
REMARK    6  A    between atoms: C_11  and  C_20
REMARK    7  A    between atoms: N_22  and  C_23
REMARK    8  A    between atoms: C_30  and  C_35
REMARK                            x       y       z     vdW  Elec       q    Type
REMARK                         _______ _______ _______ _____ _____    ______ ____
ROOT
ATOM      1  C   UNL     1       1.622  -2.553  -2.318  0.00  0.00    +0.218 C 
ATOM      2  O   UNL     1       2.295  -1.821  -3.012  0.00  0.00    -0.275 OA
ATOM      3  N   UNL     1       1.581  -3.876  -2.574  0.00  0.00    -0.300 N 
ATOM      4  C   UNL     1       0.738  -4.903  -1.918  0.00  0.00    +0.121 C 
ATOM      5  C   UNL     1       0.304  -5.843  -3.066  0.00  0.00    +0.100 C 
ATOM      6  C   UNL     1       1.381  -5.662  -4.149  0.00  0.00    -0.004 C 
ATOM      7  C   UNL     1       2.367  -4.631  -3.579  0.00  0.00    +0.115 C 
ATOM      8  C   UNL     1       0.754  -5.129  -5.434  0.00  0.00    -0.010 C 
ATOM      9  C   UNL     1       1.834  -5.012  -6.513  0.00  0.00    -0.082 C 
ATOM     10  N   UNL     1       2.438  -6.329  -6.748  0.00  0.00    +0.379 N 
ATOM     11  C   UNL     1       3.119  -6.793  -5.534  0.00  0.00    -0.082 C 
ATOM     12  C   UNL     1       2.093  -6.985  -4.413  0.00  0.00    -0.010 C 
ATOM     13  H   UNL     1       1.716  -6.988  -7.000  0.00  0.00    -0.086 HD
ATOM     14  H   UNL     1       3.105  -6.262  -7.502  0.00  0.00    -0.086 HD
ENDROOT
BRANCH   5  15
ATOM     15  C   UNL     1      -1.048  -5.437  -3.594  0.00  0.00    +0.218 C 
ATOM     16  O   UNL     1      -1.423  -4.290  -3.481  0.00  0.00    -0.275 OA
ATOM     17  N   UNL     1      -1.839  -6.350  -4.191  0.00  0.00    -0.312 N 
ATOM     18  H   UNL     1      -1.539  -7.268  -4.280  0.00  0.00    +0.149 HD
BRANCH  17  19
ATOM     19  C   UNL     1      -3.154  -5.956  -4.704  0.00  0.00    +0.076 C 
ATOM     20  C   UNL     1      -4.182  -6.018  -3.572  0.00  0.00    +0.041 C 
ATOM     21  C   UNL     1      -5.548  -5.572  -4.104  0.00  0.00    +0.108 C 
ATOM     22  N   UNL     1      -5.889  -6.391  -5.275  0.00  0.00    -0.316 N 
ATOM     23  C   UNL     1      -4.928  -6.474  -6.383  0.00  0.00    +0.108 C 
ATOM     24  C   UNL     1      -3.570  -6.910  -5.826  0.00  0.00    +0.041 C 
ATOM     25  C   UNL     1      -7.099  -7.074  -5.334  0.00  0.00    +0.102 A 
ATOM     26  C   UNL     1      -8.187  -6.495  -5.978  0.00  0.00    -0.012 A 
ATOM     27  C   UNL     1      -9.384  -7.185  -6.029  0.00  0.00    +0.008 A 
ATOM     28  C   UNL     1      -9.453  -8.437  -5.431  0.00  0.00    +0.018 A 
ATOM     29  C   UNL     1      -8.334  -8.951  -4.808  0.00  0.00    +0.084 A 
ATOM     30  N   UNL     1      -7.203  -8.272  -4.780  0.00  0.00    -0.349 N 
ATOM     31  C   UNL     1      -8.064  -5.133  -6.612  0.00  0.00    +0.047 C 
ATOM     32  H   UNL     1      -6.430  -8.658  -4.339  0.00  0.00    +0.167 HD
ENDBRANCH  17  19
ENDBRANCH   5  15
BRANCH   1  33
ATOM     33  C   UNL     1       0.830  -1.984  -1.169  0.00  0.00    +0.072 C 
ATOM     34  C   UNL     1       0.326  -0.588  -1.539  0.00  0.00    +0.017 C 
BRANCH  33  35
ATOM     35  C   UNL     1       1.724  -1.892   0.070  0.00  0.00    +0.012 C 
BRANCH  35  37
ATOM     36  C   UNL     1       1.783  -1.339   2.506  0.00  0.00    +0.004 C 
ATOM     37  C   UNL     1       0.890  -1.431   1.267  0.00  0.00    -0.003 C 
ENDBRANCH  35  37
ENDBRANCH  33  35
ENDBRANCH   1  33
TORSDOF 5
