REMARK  Name = ZINC05642770
REMARK  7 active torsions:
REMARK  status: ('A' for Active; 'I' for Inactive)
REMARK    1  A    between atoms: C_1  and  C_2
REMARK    2  A    between atoms: C_2  and  C_3
REMARK    3  A    between atoms: C_2  and  C_4
REMARK    4  A    between atoms: C_2  and  C_5
REMARK    5  A    between atoms: C_12  and  C_16
REMARK    6  A    between atoms: N_18  and  N_19
REMARK    7  A    between atoms: C_20  and  C_21
REMARK                            x       y       z     vdW  Elec       q    Type
REMARK                         _______ _______ _______ _____ _____    ______ ____
ROOT
ATOM      1  C   UNL     1      -0.034   1.544   0.255  0.00  0.00    -0.038 A 
ATOM      2  C   UNL     1      -0.038   0.163   0.321  0.00  0.00    +0.008 A 
ATOM      3  C   UNL     1       1.154  -0.535   0.319  0.00  0.00    +0.050 A 
ATOM      4  C   UNL     1       2.360   0.148   0.250  0.00  0.00    +0.162 A 
ATOM      5  C   UNL     1       2.364   1.536   0.182  0.00  0.00    +0.163 A 
ATOM      6  C   UNL     1       1.163   2.231   0.186  0.00  0.00    +0.053 A 
ATOM      7  O   UNL     1       3.535   2.226   0.109  0.00  0.00    -0.472 OA
ATOM      8  C   UNL     1       4.722   1.520   0.485  0.00  0.00    +0.297 C 
ATOM      9  C   UNL     1       4.696   0.143  -0.191  0.00  0.00    +0.283 C 
ATOM     10  O   UNL     1       3.526  -0.553   0.253  0.00  0.00    -0.484 OA
ENDROOT
BRANCH   1  12
ATOM     11  C   UNL     1      -2.502   1.312   0.329  0.00  0.00    +0.015 C 
ATOM     12  C   UNL     1      -1.337   2.301   0.252  0.00  0.00    -0.013 C 
ATOM     13  C   UNL     1      -1.384   3.240   1.459  0.00  0.00    +0.015 C 
ATOM     14  C   UNL     1      -1.447   3.121  -1.036  0.00  0.00    +0.015 C 
ENDBRANCH   1  12
BRANCH   8  15
ATOM     15  C   UNL     1       5.937   2.287   0.029  0.00  0.00    +0.276 C 
ATOM     16  O   UNL     1       5.804   3.303  -0.621  0.00  0.00    -0.270 OA
ATOM     17  N   UNL     1       7.170   1.845   0.344  0.00  0.00    -0.204 N 
ATOM     18  H   UNL     1       7.277   1.033   0.864  0.00  0.00    +0.177 HD
BRANCH  17  19
ATOM     19  N   UNL     1       8.300   2.558  -0.079  0.00  0.00    -0.185 NA
ATOM     20  C   UNL     1       9.487   2.176   0.292  0.00  0.00    +0.176 C 
BRANCH  20  21
ATOM     21  C   UNL     1       9.658   0.913   1.014  0.00  0.00    +0.149 A 
ATOM     22  C   UNL     1      10.822   0.452   1.559  0.00  0.00    +0.052 A 
ATOM     23  C   UNL     1      10.528  -0.790   2.151  0.00  0.00    +0.057 A 
ATOM     24  C   UNL     1       9.215  -1.028   1.942  0.00  0.00    +0.171 A 
ATOM     25  O   UNL     1       8.693   0.004   1.261  0.00  0.00    -0.447 OA
ATOM     26 BR   UNL     1       8.268  -2.559   2.521  0.00  0.00    -0.008 Br
ENDBRANCH  20  21
ENDBRANCH  17  19
ENDBRANCH   8  15
TORSDOF 4
