REMARK  Name = ZINC36597375
REMARK  9 active torsions:
REMARK  status: ('A' for Active; 'I' for Inactive)
REMARK    1  A    between atoms: C_1  and  C_2
REMARK    2  A    between atoms: C_5  and  C_7
REMARK    3  A    between atoms: C_7  and  N_8
REMARK    4  A    between atoms: N_8  and  C_9
REMARK    5  A    between atoms: C_9  and  C_11
REMARK    6  A    between atoms: C_9  and  C_18
REMARK    7  A    between atoms: N_20  and  C_21
REMARK    8  A    between atoms: C_27  and  C_29
REMARK    9  A    between atoms: C_32  and  O_35
REMARK                            x       y       z     vdW  Elec       q    Type
REMARK                         _______ _______ _______ _____ _____    ______ ____
ROOT
ATOM      1  N   UNL     1       2.889  -2.803  -1.256  0.00  0.00    -0.275 N 
ATOM      2  C   UNL     1       1.676  -2.352  -0.878  0.00  0.00    +0.248 C 
ATOM      3  O   UNL     1       1.368  -2.347   0.298  0.00  0.00    -0.270 OA
ENDROOT
BRANCH   2   4
ATOM      4  C   UNL     1       0.721  -1.866  -1.893  0.00  0.00    +0.037 A 
ATOM      5  C   UNL     1       0.898  -2.199  -3.239  0.00  0.00    +0.016 A 
ATOM      6  C   UNL     1       0.005  -1.744  -4.183  0.00  0.00    +0.046 A 
ATOM      7  C   UNL     1      -1.072  -0.954  -3.798  0.00  0.00    +0.117 A 
ATOM      8  C   UNL     1      -1.252  -0.620  -2.461  0.00  0.00    +0.046 A 
ATOM      9  C   UNL     1      -0.367  -1.076  -1.510  0.00  0.00    +0.016 A 
BRANCH   7  10
ATOM     10  O   UNL     1      -1.950  -0.506  -4.732  0.00  0.00    -0.507 OA
ATOM     11  H   UNL     1      -2.696  -1.102  -4.888  0.00  0.00    +0.292 HD
ENDBRANCH   7  10
ENDBRANCH   2   4
BRANCH   1  12
ATOM     12  C   UNL     1       3.767  -3.449  -0.277  0.00  0.00    +0.183 C 
BRANCH  12  17
ATOM     13  C   UNL     1       2.229  -8.247  -0.037  0.00  0.00    +0.086 C 
ATOM     14  C   UNL     1       3.053  -7.029  -0.367  0.00  0.00    +0.102 A 
ATOM     15  C   UNL     1       4.198  -7.022  -1.074  0.00  0.00    +0.045 A 
ATOM     16  C   UNL     1       4.629  -5.677  -1.141  0.00  0.00    +0.046 A 
ATOM     17  C   UNL     1       3.722  -4.943  -0.472  0.00  0.00    +0.122 A 
ATOM     18  O   UNL     1       2.767  -5.767  -0.010  0.00  0.00    -0.463 OA
ENDBRANCH  12  17
ENDBRANCH   1  12
BRANCH   1  19
ATOM     19  C   UNL     1       3.329  -2.646  -2.644  0.00  0.00    +0.193 C 
BRANCH  19  20
ATOM     20  C   UNL     1       2.885  -1.303  -3.163  0.00  0.00    -0.018 A 
ATOM     21  C   UNL     1       2.449  -0.331  -2.282  0.00  0.00    +0.007 A 
ATOM     22  C   UNL     1       2.042   0.901  -2.758  0.00  0.00    +0.020 A 
ATOM     23  C   UNL     1       2.071   1.162  -4.116  0.00  0.00    +0.041 A 
ATOM     24  C   UNL     1       2.508   0.189  -4.997  0.00  0.00    +0.020 A 
ATOM     25  C   UNL     1       2.920  -1.041  -4.520  0.00  0.00    +0.007 A 
ATOM     26 CL   UNL     1       1.559   2.709  -4.714  0.00  0.00    -0.084 Cl
ENDBRANCH  19  20
BRANCH  19  27
ATOM     27  C   UNL     1       4.832  -2.738  -2.708  0.00  0.00    +0.238 C 
ATOM     28  O   UNL     1       5.440  -3.340  -1.848  0.00  0.00    -0.273 OA
ATOM     29  N   UNL     1       5.500  -2.151  -3.720  0.00  0.00    -0.311 N 
ATOM     30  H   UNL     1       5.014  -1.670  -4.408  0.00  0.00    +0.149 HD
BRANCH  29  31
ATOM     31  C   UNL     1       6.961  -2.240  -3.783  0.00  0.00    +0.073 C 
ATOM     32  C   UNL     1       7.577  -1.130  -2.928  0.00  0.00    +0.022 C 
ATOM     33  C   UNL     1       9.103  -1.223  -2.992  0.00  0.00    +0.002 C 
ATOM     34  C   UNL     1       9.562  -1.064  -4.443  0.00  0.00    +0.000 C 
ATOM     35  C   UNL     1       8.947  -2.174  -5.298  0.00  0.00    +0.002 C 
ATOM     36  C   UNL     1       7.421  -2.080  -5.233  0.00  0.00    +0.022 C 
ENDBRANCH  29  31
ENDBRANCH  19  27
ENDBRANCH   1  19
TORSDOF 8
