REMARK  Name = ZINC09120594
REMARK  8 active torsions:
REMARK  status: ('A' for Active; 'I' for Inactive)
REMARK    1  A    between atoms: C_4  and  C_7
REMARK    2  A    between atoms: C_7  and  C_9
REMARK    3  A    between atoms: C_12  and  N_18
REMARK    4  A    between atoms: C_13  and  N_15
REMARK    5  A    between atoms: N_18  and  N_19
REMARK    6  A    between atoms: C_20  and  C_22
REMARK    7  A    between atoms: C_26  and  S_28
REMARK    8  A    between atoms: S_28  and  N_31
REMARK                            x       y       z     vdW  Elec       q    Type
REMARK                         _______ _______ _______ _____ _____    ______ ____
ROOT
ATOM      1  N   UNL     1      -7.230   0.817  -0.337  0.00  0.00    -0.262 N 
ATOM      2  H   UNL     1      -8.098   1.250  -0.325  0.00  0.00    +0.170 HD
ENDROOT
BRANCH   1   6
ATOM      3  C   UNL     1      -3.771   3.091  -0.025  0.00  0.00    +0.025 A 
ATOM      4  C   UNL     1      -3.693   1.694  -0.040  0.00  0.00    +0.014 A 
ATOM      5  C   UNL     1      -4.833   0.949  -0.137  0.00  0.00    +0.027 A 
ATOM      6  C   UNL     1      -6.072   1.579  -0.233  0.00  0.00    +0.075 A 
ATOM      7  C   UNL     1      -6.153   2.969  -0.224  0.00  0.00    +0.149 A 
ATOM      8  C   UNL     1      -5.017   3.720  -0.121  0.00  0.00    +0.046 A 
BRANCH   7   9
ATOM      9  N   UNL     1      -7.472   3.633  -0.326  0.00  0.00    +0.058 N 
ATOM     10  O   UNL     1      -7.537   4.845  -0.428  0.00  0.00    -0.126 OA
ATOM     11  O   UNL     1      -8.492   2.968  -0.306  0.00  0.00    -0.126 OA
ENDBRANCH   7   9
BRANCH   3  12
ATOM     12  C   UNL     1      -2.542   3.898   0.086  0.00  0.00    +0.193 C 
ATOM     13  O   UNL     1      -2.470   4.975  -0.475  0.00  0.00    -0.287 OA
BRANCH  12  17
ATOM     14  C   UNL     1       0.743   2.465   2.364  0.00  0.00    +0.000 A 
ATOM     15  C   UNL     1      -0.460   1.780   2.383  0.00  0.00    +0.001 A 
ATOM     16  C   UNL     1      -1.529   2.238   1.642  0.00  0.00    +0.012 A 
ATOM     17  C   UNL     1      -1.399   3.400   0.879  0.00  0.00    +0.022 A 
ATOM     18  C   UNL     1      -0.183   4.085   0.863  0.00  0.00    +0.012 A 
ATOM     19  C   UNL     1       0.880   3.614   1.605  0.00  0.00    +0.001 A 
ENDBRANCH  12  17
ENDBRANCH   3  12
ENDBRANCH   1   6
BRANCH   1  20
ATOM     20  N   UNL     1      -7.144  -0.575  -0.462  0.00  0.00    -0.232 N 
ATOM     21  C   UNL     1      -8.267  -1.313  -0.563  0.00  0.00    +0.260 C 
ATOM     22  O   UNL     1      -9.355  -0.771  -0.547  0.00  0.00    -0.269 OA
ATOM     23  H   UNL     1      -6.277  -1.008  -0.474  0.00  0.00    +0.173 HD
BRANCH  21  24
ATOM     24  C   UNL     1      -8.177  -2.783  -0.694  0.00  0.00    +0.040 A 
ATOM     25  C   UNL     1      -6.929  -3.409  -0.719  0.00  0.00    +0.013 A 
ATOM     26  C   UNL     1      -6.851  -4.781  -0.837  0.00  0.00    +0.003 A 
ATOM     27  C   UNL     1      -8.007  -5.536  -0.941  0.00  0.00    +0.028 A 
ATOM     28  C   UNL     1      -9.246  -4.922  -0.922  0.00  0.00    +0.106 A 
ATOM     29  C   UNL     1      -9.338  -3.551  -0.799  0.00  0.00    +0.041 A 
BRANCH  28  30
ATOM     30  S   UNL     1     -10.710  -5.893  -1.055  0.00  0.00    +0.061 S 
ATOM     31  O   UNL     1     -10.373  -7.199  -0.611  0.00  0.00    -0.153 OA
ATOM     32  O   UNL     1     -11.756  -5.133  -0.464  0.00  0.00    -0.153 OA
BRANCH  30  33
ATOM     33  N   UNL     1     -11.069  -6.018  -2.667  0.00  0.00    -0.177 NA
ATOM     34  C   UNL     1     -11.924  -5.096  -3.429  0.00  0.00    +0.109 C 
ATOM     35  C   UNL     1     -11.989  -5.623  -4.878  0.00  0.00    +0.018 C 
ATOM     36  C   UNL     1     -11.637  -7.125  -4.715  0.00  0.00    +0.018 C 
ATOM     37  C   UNL     1     -10.591  -7.077  -3.574  0.00  0.00    +0.109 C 
ENDBRANCH  30  33
ENDBRANCH  28  30
ENDBRANCH  21  24
ENDBRANCH   1  20
TORSDOF 8
