REMARK  Name = ZINC28285546
REMARK  8 active torsions:
REMARK  status: ('A' for Active; 'I' for Inactive)
REMARK    1  A    between atoms: C_1  and  C_2
REMARK    2  A    between atoms: C_2  and  C_4
REMARK    3  A    between atoms: C_2  and  N_15
REMARK    4  A    between atoms: C_16  and  C_18
REMARK    5  A    between atoms: C_18  and  N_19
REMARK    6  A    between atoms: N_22  and  C_25
REMARK    7  A    between atoms: C_25  and  C_26
REMARK    8  A    between atoms: C_25  and  C_32
REMARK                            x       y       z     vdW  Elec       q    Type
REMARK                         _______ _______ _______ _____ _____    ______ ____
ROOT
ATOM      1  N   UNL     1       7.862  -2.067   2.053  0.00  0.00    +0.387 N 
ATOM      2  C   UNL     1       8.346  -2.363   0.698  0.00  0.00    -0.063 C 
ATOM      3  C   UNL     1       9.766  -2.928   0.778  0.00  0.00    +0.067 C 
ATOM      4  N   UNL     1       9.762  -4.140   1.609  0.00  0.00    -0.295 NA
ATOM      5  C   UNL     1       9.278  -3.843   2.965  0.00  0.00    +0.067 C 
ATOM      6  C   UNL     1       7.858  -3.278   2.885  0.00  0.00    -0.063 C 
ATOM      7  H   UNL     1       8.553  -1.343   2.510  0.00  0.00    -0.081 HD
ENDROOT
BRANCH   1   8
ATOM      8  C   UNL     1       6.529  -1.451   2.014  0.00  0.00    +0.019 C 
BRANCH   8  10
ATOM      9  N   UNL     1       5.513   0.660   1.219  0.00  0.00    -0.311 N 
ATOM     10  C   UNL     1       6.621  -0.094   1.365  0.00  0.00    +0.197 C 
ATOM     11  O   UNL     1       7.692   0.320   0.974  0.00  0.00    -0.278 OA
ATOM     12  H   UNL     1       4.542   0.285   1.574  0.00  0.00    +0.149 HD
BRANCH   9  14
ATOM     13  C   UNL     1       5.520   1.824  -0.931  0.00  0.00    +0.032 C 
ATOM     14  C   UNL     1       5.603   1.979   0.588  0.00  0.00    +0.114 C 
BRANCH  14  15
ATOM     15  C   UNL     1       4.448   2.857   1.075  0.00  0.00    +0.231 C 
ATOM     16  C   UNL     1       4.607   4.277   0.516  0.00  0.00    +0.275 C 
ATOM     17  O   UNL     1       3.505   5.066   0.979  0.00  0.00    -0.485 OA
ATOM     18  C   UNL     1       2.268   4.508   0.877  0.00  0.00    +0.162 A 
ATOM     19  C   UNL     1       1.146   5.320   0.959  0.00  0.00    +0.049 A 
ATOM     20  C   UNL     1      -0.117   4.768   0.861  0.00  0.00    +0.004 A 
ATOM     21  C   UNL     1      -0.266   3.406   0.676  0.00  0.00    +0.004 A 
ATOM     22  C   UNL     1       0.848   2.591   0.599  0.00  0.00    +0.049 A 
ATOM     23  C   UNL     1       2.118   3.139   0.695  0.00  0.00    +0.163 A 
ATOM     24  O   UNL     1       3.205   2.325   0.604  0.00  0.00    -0.480 OA
ENDBRANCH  14  15
ENDBRANCH   9  14
ENDBRANCH   8  10
ENDBRANCH   1   8
BRANCH   4  25
ATOM     25  C   UNL     1      11.095  -4.755   1.649  0.00  0.00    +0.117 C 
BRANCH  25  26
ATOM     26  C   UNL     1      11.046  -6.007   2.487  0.00  0.00    -0.026 A 
ATOM     27  C   UNL     1       9.997  -6.895   2.342  0.00  0.00    +0.005 A 
ATOM     28  C   UNL     1       9.955  -8.046   3.107  0.00  0.00    +0.000 A 
ATOM     29  C   UNL     1      10.956  -8.302   4.024  0.00  0.00    +0.000 A 
ATOM     30  C   UNL     1      12.002  -7.411   4.173  0.00  0.00    +0.000 A 
ATOM     31  C   UNL     1      12.047  -6.264   3.405  0.00  0.00    +0.005 A 
ENDBRANCH  25  26
BRANCH  25  32
ATOM     32  C   UNL     1      11.529  -5.105   0.248  0.00  0.00    -0.026 A 
ATOM     33  C   UNL     1      10.640  -5.713  -0.619  0.00  0.00    +0.005 A 
ATOM     34  C   UNL     1      11.036  -6.029  -1.905  0.00  0.00    +0.000 A 
ATOM     35  C   UNL     1      12.324  -5.747  -2.320  0.00  0.00    +0.000 A 
ATOM     36  C   UNL     1      13.215  -5.145  -1.451  0.00  0.00    +0.000 A 
ATOM     37  C   UNL     1      12.817  -4.824  -0.167  0.00  0.00    +0.005 A 
ENDBRANCH  25  32
ENDBRANCH   4  25
TORSDOF 7
