REMARK  Name = ZINC50307034
REMARK  10 active torsions:
REMARK  status: ('A' for Active; 'I' for Inactive)
REMARK    1  A    between atoms: C_1  and  C_2
REMARK    2  A    between atoms: C_2  and  C_3
REMARK    3  A    between atoms: C_4  and  N_19
REMARK    4  A    between atoms: C_5  and  C_9
REMARK    5  A    between atoms: N_11  and  C_12
REMARK    6  A    between atoms: N_11  and  C_13
REMARK    7  A    between atoms: C_13  and  C_14
REMARK    8  A    between atoms: C_14  and  C_16
REMARK    9  A    between atoms: C_14  and  C_17
REMARK   10  A    between atoms: C_17  and  C_18
REMARK                            x       y       z     vdW  Elec       q    Type
REMARK                         _______ _______ _______ _____ _____    ______ ____
ROOT
ATOM      1  C   UNL     1       0.846   0.404  -1.672  0.00  0.00    +0.057 A 
ATOM      2  C   UNL     1       2.154   0.042  -1.730  0.00  0.00    +0.078 A 
ATOM      3  C   UNL     1       2.297  -0.663  -2.953  0.00  0.00    +0.168 A 
ATOM      4  N   UNL     1       1.111  -0.679  -3.531  0.00  0.00    -0.167 NA
ATOM      5  N   UNL     1       0.251  -0.067  -2.799  0.00  0.00    -0.279 N 
ATOM      6  H   UNL     1      -0.687   0.044  -3.020  0.00  0.00    +0.189 HD
ENDROOT
BRANCH   3   7
ATOM      7  C   UNL     1       3.537  -1.263  -3.479  0.00  0.00    +0.268 C 
ATOM      8  O   UNL     1       4.589  -1.098  -2.892  0.00  0.00    -0.268 OA
ATOM      9  N   UNL     1       3.504  -1.995  -4.610  0.00  0.00    -0.299 N 
ATOM     10  C   UNL     1       2.248  -2.146  -5.349  0.00  0.00    +0.132 C 
BRANCH   9  11
ATOM     11  C   UNL     1       4.725  -2.640  -5.101  0.00  0.00    +0.111 C 
BRANCH  11  12
ATOM     12  C   UNL     1       4.837  -4.043  -4.500  0.00  0.00    +0.003 C 
ATOM     13  C   UNL     1       3.686  -4.911  -5.013  0.00  0.00    +0.009 C 
BRANCH  12  14
ATOM     14  C   UNL     1       6.171  -4.669  -4.913  0.00  0.00    +0.001 C 
ATOM     15  C   UNL     1       6.339  -6.019  -4.213  0.00  0.00    +0.004 C 
ENDBRANCH  12  14
ENDBRANCH  11  12
ENDBRANCH   9  11
ENDBRANCH   3   7
BRANCH   2  16
ATOM     16  N   UNL     1       3.152   0.307  -0.781  0.00  0.00    -0.355 N 
ATOM     17  H   UNL     1       2.936   0.802   0.025  0.00  0.00    +0.142 HD
ATOM     18  H   UNL     1       4.059  -0.004  -0.930  0.00  0.00    +0.142 HD
ENDBRANCH   2  16
BRANCH   1  20
ATOM     19  C   UNL     1       0.367   2.677  -0.803  0.00  0.00    +0.010 C 
ATOM     20  C   UNL     1       0.178   1.178  -0.564  0.00  0.00    +0.053 C 
ENDBRANCH   1  20
TORSDOF 6
