REMARK  Name = ZINC34782287
REMARK  11 active torsions:
REMARK  status: ('A' for Active; 'I' for Inactive)
REMARK    1  A    between atoms: C_1  and  C_2
REMARK    2  A    between atoms: C_3  and  C_29
REMARK    3  A    between atoms: C_7  and  N_8
REMARK    4  A    between atoms: N_8  and  C_9
REMARK    5  A    between atoms: C_9  and  N_11
REMARK    6  A    between atoms: N_11  and  C_12
REMARK    7  A    between atoms: N_11  and  C_22
REMARK    8  A    between atoms: C_12  and  C_13
REMARK    9  A    between atoms: N_25  and  C_28
REMARK   10  A    between atoms: C_29  and  C_30
REMARK   11  A    between atoms: C_29  and  C_31
REMARK                            x       y       z     vdW  Elec       q    Type
REMARK                         _______ _______ _______ _____ _____    ______ ____
ROOT
ATOM      1  N   UNL     1       0.613   0.091   4.729  0.00  0.00    -0.305 N 
ENDROOT
BRANCH   1   2
ATOM      2  C   UNL     1       0.449   1.547   4.747  0.00  0.00    +0.072 C 
ATOM      3  C   UNL     1      -1.010   1.901   4.444  0.00  0.00    +0.004 C 
ATOM      4  C   UNL     1      -1.158   3.423   4.387  0.00  0.00    -0.077 C 
ATOM      5  N   UNL     1      -0.292   3.963   3.332  0.00  0.00    +0.378 N 
ATOM      6  C   UNL     1       1.114   3.689   3.652  0.00  0.00    -0.077 C 
ATOM      7  C   UNL     1       1.349   2.178   3.682  0.00  0.00    +0.004 C 
ATOM      8  C   UNL     1      -0.495   5.414   3.228  0.00  0.00    -0.096 C 
ATOM      9  H   UNL     1      -0.525   3.529   2.451  0.00  0.00    -0.082 HD
ENDBRANCH   1   2
BRANCH   1  10
ATOM     10  C   UNL     1       0.363  -0.601   3.599  0.00  0.00    +0.138 C 
ATOM     11  S   UNL     1       0.686  -2.281   3.536  0.00  0.00    -0.018 S 
BRANCH  10  12
ATOM     12  N   UNL     1      -0.141   0.030   2.520  0.00  0.00    -0.297 N 
ATOM     13  H   UNL     1      -0.557   0.901   2.618  0.00  0.00    +0.154 HD
BRANCH  12  20
ATOM     14  C   UNL     1      -0.062   1.716   0.230  0.00  0.00    +0.046 C 
ATOM     15  C   UNL     1      -0.023   0.214   0.115  0.00  0.00    -0.026 A 
ATOM     16  C   UNL     1       0.058  -0.383  -1.128  0.00  0.00    -0.040 A 
ATOM     17  C   UNL     1       0.094  -1.761  -1.234  0.00  0.00    +0.004 A 
ATOM     18  C   UNL     1       0.047  -2.546  -0.096  0.00  0.00    +0.002 A 
ATOM     19  C   UNL     1      -0.035  -1.956   1.149  0.00  0.00    +0.023 A 
ATOM     20  C   UNL     1      -0.064  -0.571   1.260  0.00  0.00    +0.036 A 
BRANCH  16  21
ATOM     21  C   UNL     1       0.109   0.469  -2.370  0.00  0.00    +0.013 C 
ATOM     22  C   UNL     1       1.329   0.080  -3.206  0.00  0.00    +0.012 C 
ATOM     23  C   UNL     1      -1.163   0.249  -3.191  0.00  0.00    +0.012 C 
ENDBRANCH  16  21
ENDBRANCH  12  20
ENDBRANCH  10  12
ENDBRANCH   1  10
BRANCH   1  24
ATOM     24  C   UNL     1       1.049  -0.612   5.938  0.00  0.00    +0.142 C 
BRANCH  24  25
ATOM     25  C   UNL     1       2.553  -0.696   5.956  0.00  0.00    -0.026 A 
ATOM     26  C   UNL     1       3.192  -1.773   5.370  0.00  0.00    +0.009 A 
ATOM     27  C   UNL     1       4.572  -1.854   5.384  0.00  0.00    +0.050 A 
ATOM     28  C   UNL     1       5.319  -0.854   5.985  0.00  0.00    +0.166 A 
ATOM     29  C   UNL     1       4.676   0.232   6.575  0.00  0.00    +0.167 A 
ATOM     30  C   UNL     1       3.292   0.309   6.552  0.00  0.00    +0.054 A 
ATOM     31  O   UNL     1       5.620   1.070   7.093  0.00  0.00    -0.453 OA
ATOM     32  C   UNL     1       6.826   0.287   7.174  0.00  0.00    +0.466 C 
ATOM     33  O   UNL     1       6.666  -0.696   6.133  0.00  0.00    -0.453 OA
ENDBRANCH  24  25
ENDBRANCH   1  24
TORSDOF 7
