REMARK  Name = ZINC39667143
REMARK  9 active torsions:
REMARK  status: ('A' for Active; 'I' for Inactive)
REMARK    1  A    between atoms: C_1  and  C_2
REMARK    2  A    between atoms: C_5  and  C_9
REMARK    3  A    between atoms: C_6  and  C_8
REMARK    4  A    between atoms: C_9  and  C_10
REMARK    5  A    between atoms: C_10  and  N_11
REMARK    6  A    between atoms: C_12  and  C_14
REMARK    7  A    between atoms: C_25  and  C_27
REMARK    8  A    between atoms: C_30  and  O_33
REMARK    9  A    between atoms: O_33  and  C_34
REMARK                            x       y       z     vdW  Elec       q    Type
REMARK                         _______ _______ _______ _____ _____    ______ ____
ROOT
ATOM      1  C   UNL     1      -1.881  -9.316   0.302  0.00  0.00    +0.100 C 
ATOM      2  C   UNL     1      -1.109  -9.546   1.621  0.00  0.00    +0.121 C 
ATOM      3  N   UNL     1      -2.164  -9.697   2.650  0.00  0.00    -0.296 N 
ATOM      4  C   UNL     1      -3.223 -10.490   1.980  0.00  0.00    +0.115 C 
ATOM      5  C   UNL     1      -3.266  -9.940   0.541  0.00  0.00    -0.004 C 
ATOM      6  C   UNL     1      -3.513 -11.073  -0.450  0.00  0.00    -0.010 C 
ATOM      7  C   UNL     1      -4.919 -11.639  -0.232  0.00  0.00    -0.082 C 
ATOM      8  N   UNL     1      -5.912 -10.574  -0.418  0.00  0.00    +0.379 N 
ATOM      9  C   UNL     1      -5.725  -9.532   0.599  0.00  0.00    -0.082 C 
ATOM     10  C   UNL     1      -4.353  -8.877   0.415  0.00  0.00    -0.010 C 
ATOM     11  C   UNL     1      -2.162  -9.221   3.911  0.00  0.00    +0.248 C 
ATOM     12  O   UNL     1      -1.275  -8.474   4.277  0.00  0.00    -0.270 OA
ATOM     13  H   UNL     1      -5.802 -10.170  -1.336  0.00  0.00    -0.086 HD
ATOM     14  H   UNL     1      -6.839 -10.962  -0.333  0.00  0.00    -0.086 HD
ENDROOT
BRANCH  11  15
ATOM     15  C   UNL     1      -3.236  -9.606   4.848  0.00  0.00    +0.055 A 
ATOM     16  C   UNL     1      -4.014 -10.748   4.607  0.00  0.00    +0.020 A 
ATOM     17  C   UNL     1      -5.006 -11.068   5.511  0.00  0.00    +0.068 A 
ATOM     18  C   UNL     1      -5.201 -10.253   6.623  0.00  0.00    +0.220 A 
ATOM     19  N   UNL     1      -4.449  -9.181   6.822  0.00  0.00    -0.220 NA
ATOM     20  C   UNL     1      -3.488  -8.843   5.988  0.00  0.00    +0.127 A 
BRANCH  18  21
ATOM     21  O   UNL     1      -6.173 -10.562   7.514  0.00  0.00    -0.438 OA
BRANCH  21  22
ATOM     22  C   UNL     1      -6.274  -9.803   8.637  0.00  0.00    +0.130 A 
ATOM     23  C   UNL     1      -6.886  -8.559   8.582  0.00  0.00    +0.046 A 
ATOM     24  C   UNL     1      -6.987  -7.789   9.725  0.00  0.00    +0.004 A 
ATOM     25  C   UNL     1      -6.479  -8.258  10.922  0.00  0.00    +0.000 A 
ATOM     26  C   UNL     1      -5.869  -9.497  10.980  0.00  0.00    +0.004 A 
ATOM     27  C   UNL     1      -5.771 -10.273   9.841  0.00  0.00    +0.046 A 
ENDBRANCH  21  22
ENDBRANCH  18  21
ENDBRANCH  11  15
BRANCH   1  29
ATOM     28  N   UNL     1      -2.132  -7.405  -1.249  0.00  0.00    -0.315 N 
ATOM     29  C   UNL     1      -2.011  -7.841   0.021  0.00  0.00    +0.218 C 
ATOM     30  O   UNL     1      -2.008  -7.046   0.937  0.00  0.00    -0.275 OA
ATOM     31  H   UNL     1      -2.135  -8.041  -1.982  0.00  0.00    +0.149 HD
BRANCH  28  32
ATOM     32  C   UNL     1      -2.259  -5.971  -1.522  0.00  0.00    +0.109 C 
BRANCH  32  33
ATOM     33  C   UNL     1      -2.380  -5.748  -3.031  0.00  0.00    +0.054 C 
BRANCH  33  38
ATOM     34  C   UNL     1      -2.881  -0.093  -4.105  0.00  0.00    +0.044 C 
ATOM     35  C   UNL     1      -2.750  -1.568  -3.825  0.00  0.00    -0.050 A 
ATOM     36  C   UNL     1      -3.882  -2.354  -3.718  0.00  0.00    +0.003 A 
ATOM     37  C   UNL     1      -3.763  -3.707  -3.461  0.00  0.00    +0.004 A 
ATOM     38  C   UNL     1      -2.511  -4.274  -3.312  0.00  0.00    -0.043 A 
ATOM     39  C   UNL     1      -1.379  -3.488  -3.420  0.00  0.00    -0.047 A 
ATOM     40  C   UNL     1      -1.498  -2.136  -3.681  0.00  0.00    +0.007 A 
ATOM     41  C   UNL     1      -0.014  -4.106  -3.257  0.00  0.00    +0.044 C 
ENDBRANCH  33  38
ENDBRANCH  32  33
ENDBRANCH  28  32
ENDBRANCH   1  29
TORSDOF 7
