REMARK  Name = ZINC26051901
REMARK  7 active torsions:
REMARK  status: ('A' for Active; 'I' for Inactive)
REMARK    1  A    between atoms: C_1  and  C_2
REMARK    2  A    between atoms: C_3  and  C_22
REMARK    3  A    between atoms: C_7  and  N_8
REMARK    4  A    between atoms: C_9  and  C_11
REMARK    5  A    between atoms: C_14  and  N_20
REMARK    6  A    between atoms: C_15  and  N_17
REMARK    7  A    between atoms: N_20  and  C_21
REMARK                            x       y       z     vdW  Elec       q    Type
REMARK                         _______ _______ _______ _____ _____    ______ ____
ROOT
ATOM      1  C   UNL     1      -2.520  -1.724  -2.665  0.00  0.00    +0.046 C 
ATOM      2  C   UNL     1      -2.549  -0.217  -2.671  0.00  0.00    -0.017 A 
ATOM      3  C   UNL     1      -1.666   0.502  -1.865  0.00  0.00    +0.042 A 
ATOM      4  C   UNL     1      -1.702   1.898  -1.872  0.00  0.00    +0.013 A 
ATOM      5  C   UNL     1      -2.602   2.561  -2.682  0.00  0.00    +0.003 A 
ATOM      6  C   UNL     1      -3.477   1.848  -3.480  0.00  0.00    +0.023 A 
ATOM      7  C   UNL     1      -3.453   0.458  -3.476  0.00  0.00    +0.037 A 
ENDROOT
BRANCH   3   8
ATOM      8  C   UNL     1      -0.699  -0.211  -1.003  0.00  0.00    +0.247 C 
ATOM      9  O   UNL     1      -1.090  -1.053  -0.220  0.00  0.00    -0.270 OA
ATOM     10  N   UNL     1       0.616   0.074  -1.087  0.00  0.00    -0.293 N 
ATOM     11  C   UNL     1       1.572  -0.542  -0.155  0.00  0.00    +0.113 C 
ATOM     12  C   UNL     1       2.516  -1.448  -0.961  0.00  0.00    +0.061 C 
ATOM     13  C   UNL     1       2.917  -0.731  -2.210  0.00  0.00    -0.004 A 
ATOM     14  C   UNL     1       2.331   0.361  -2.772  0.00  0.00    -0.020 A 
ATOM     15  C   UNL     1       2.899   0.838  -3.952  0.00  0.00    +0.013 A 
ATOM     16  C   UNL     1       3.982   0.222  -4.479  0.00  0.00    +0.046 A 
ATOM     17  S   UNL     1       4.260  -1.098  -3.307  0.00  0.00    -0.101 S 
ATOM     18  C   UNL     1       1.113   1.003  -2.110  0.00  0.00    +0.144 C 
ENDBRANCH   3   8
BRANCH   7  19
ATOM     19  N   UNL     1      -4.340  -0.259  -4.286  0.00  0.00    -0.281 N 
ATOM     20  C   UNL     1      -4.848   0.310  -5.396  0.00  0.00    +0.248 C 
ATOM     21  O   UNL     1      -4.456   1.405  -5.753  0.00  0.00    -0.270 OA
ATOM     22  H   UNL     1      -4.622  -1.287  -4.016  0.00  0.00    +0.155 HD
BRANCH  20  23
ATOM     23  C   UNL     1      -5.881  -0.394  -6.179  0.00  0.00    +0.039 A 
ATOM     24  C   UNL     1      -6.329  -1.655  -5.774  0.00  0.00    +0.015 A 
ATOM     25  C   UNL     1      -7.296  -2.307  -6.503  0.00  0.00    +0.026 A 
ATOM     26  C   UNL     1      -7.821  -1.718  -7.651  0.00  0.00    +0.058 A 
ATOM     27  C   UNL     1      -7.373  -0.465  -8.060  0.00  0.00    +0.148 A 
ATOM     28  C   UNL     1      -6.410   0.195  -7.332  0.00  0.00    +0.047 A 
BRANCH  27  29
ATOM     29  N   UNL     1      -7.934   0.158  -9.280  0.00  0.00    +0.058 N 
ATOM     30  O   UNL     1      -7.473   1.206  -9.695  0.00  0.00    -0.126 OA
ATOM     31  O   UNL     1      -8.856  -0.377  -9.868  0.00  0.00    -0.126 OA
ENDBRANCH  27  29
BRANCH  26  32
ATOM     32  N   UNL     1      -8.794  -2.383  -8.389  0.00  0.00    -0.345 N 
ATOM     33  C   UNL     1      -9.352  -3.644  -7.897  0.00  0.00    +0.125 C 
ATOM     34  H   UNL     1      -9.144  -1.961  -9.343  0.00  0.00    +0.146 HD
ENDBRANCH  26  32
ENDBRANCH  20  23
ENDBRANCH   7  19
TORSDOF 5
