REMARK  Name = ZINC66214468
REMARK  9 active torsions:
REMARK  status: ('A' for Active; 'I' for Inactive)
REMARK    1  A    between atoms: C_3  and  N_17
REMARK    2  A    between atoms: C_6  and  C_7
REMARK    3  A    between atoms: N_9  and  C_10
REMARK    4  A    between atoms: C_10  and  C_11
REMARK    5  A    between atoms: C_18  and  C_20
REMARK    6  A    between atoms: C_20  and  N_21
REMARK    7  A    between atoms: N_21  and  C_22
REMARK    8  A    between atoms: C_22  and  C_23
REMARK    9  A    between atoms: C_23  and  C_24
REMARK                            x       y       z     vdW  Elec       q    Type
REMARK                         _______ _______ _______ _____ _____    ______ ____
ROOT
ATOM      1  C   UNL     1       1.137  -0.537  -0.644  0.00  0.00    +0.015 A 
ATOM      2  C   UNL     1       2.317   0.172  -0.642  0.00  0.00    +0.024 A 
ATOM      3  C   UNL     1       2.381   1.417  -0.022  0.00  0.00    +0.033 A 
ATOM      4  C   UNL     1       1.254   1.948   0.597  0.00  0.00    +0.024 A 
ATOM      5  C   UNL     1       0.071   1.244   0.599  0.00  0.00    +0.015 A 
ATOM      6  C   UNL     1       0.003  -0.006  -0.023  0.00  0.00    +0.037 A 
ENDROOT
BRANCH   6   7
ATOM      7  C   UNL     1      -1.264  -0.763  -0.024  0.00  0.00    +0.244 C 
ATOM      8  O   UNL     1      -1.321  -1.851  -0.565  0.00  0.00    -0.270 OA
ATOM      9  N   UNL     1      -2.356  -0.250   0.575  0.00  0.00    -0.309 N 
ATOM     10  H   UNL     1      -2.310   0.617   1.007  0.00  0.00    +0.149 HD
BRANCH   9  11
ATOM     11  C   UNL     1      -3.614  -1.002   0.575  0.00  0.00    +0.136 C 
BRANCH  11  12
ATOM     12  C   UNL     1      -4.687  -0.202   1.315  0.00  0.00    +0.135 C 
ATOM     13  C   UNL     1      -5.980  -1.037   1.425  0.00  0.00    +0.035 C 
ATOM     14  C   UNL     1      -7.083   0.031   1.192  0.00  0.00    +0.031 C 
ATOM     15  C   UNL     1      -6.378   0.965   0.176  0.00  0.00    +0.160 C 
ATOM     16  O   UNL     1      -4.998   0.988   0.582  0.00  0.00    -0.375 OA
ENDBRANCH  11  12
ENDBRANCH   9  11
ENDBRANCH   6   7
BRANCH   3  17
ATOM     17  N   UNL     1       3.578   2.132  -0.022  0.00  0.00    -0.287 N 
ATOM     18  C   UNL     1       4.754   1.479   0.065  0.00  0.00    +0.200 C 
ATOM     19  O   UNL     1       4.776   0.266   0.058  0.00  0.00    -0.278 OA
ATOM     20  H   UNL     1       3.564   3.100  -0.083  0.00  0.00    +0.155 HD
BRANCH  18  21
ATOM     21  C   UNL     1       6.041   2.255   0.170  0.00  0.00    +0.015 C 
BRANCH  21  22
ATOM     22  N   UNL     1       7.171   1.321   0.251  0.00  0.00    +0.385 N 
ATOM     23  H   UNL     1       7.065   0.734   1.065  0.00  0.00    -0.085 HD
ATOM     24  H   UNL     1       7.192   0.745  -0.578  0.00  0.00    -0.085 HD
BRANCH  22  25
ATOM     25  C   UNL     1       8.426   2.078   0.353  0.00  0.00    -0.078 C 
BRANCH  25  26
ATOM     26  C   UNL     1       9.604   1.104   0.438  0.00  0.00    +0.011 C 
BRANCH  26  27
ATOM     27  C   UNL     1      10.891   1.880   0.543  0.00  0.00    -0.075 C 
ATOM     28  C   UNL     1      11.376   2.095   1.724  0.00  0.00    -0.028 C 
ATOM     29  C   UNL     1      12.640   2.860   1.987  0.00  0.00    +0.027 C 
ATOM     30  C   UNL     1      13.469   2.966   0.705  0.00  0.00    +0.004 C 
ATOM     31  C   UNL     1      12.553   3.454  -0.425  0.00  0.00    +0.005 C 
ATOM     32  C   UNL     1      11.534   2.351  -0.729  0.00  0.00    +0.030 C 
ENDBRANCH  26  27
ENDBRANCH  25  26
ENDBRANCH  22  25
ENDBRANCH  21  22
ENDBRANCH  18  21
ENDBRANCH   3  17
TORSDOF 9
