REMARK  Name = ZINC09594910
REMARK  9 active torsions:
REMARK  status: ('A' for Active; 'I' for Inactive)
REMARK    1  A    between atoms: C_1  and  C_2
REMARK    2  A    between atoms: C_5  and  N_9
REMARK    3  A    between atoms: C_7  and  C_8
REMARK    4  A    between atoms: C_10  and  C_29
REMARK    5  A    between atoms: C_13  and  S_14
REMARK    6  A    between atoms: S_14  and  C_15
REMARK    7  A    between atoms: C_15  and  C_16
REMARK    8  A    between atoms: N_18  and  C_19
REMARK    9  A    between atoms: C_20  and  C_27
REMARK                            x       y       z     vdW  Elec       q    Type
REMARK                         _______ _______ _______ _____ _____    ______ ____
ROOT
ATOM      1  N   UNL     1       2.315   4.346  -0.278  0.00  0.00    -0.270 N 
ATOM      2  C   UNL     1       1.229   3.547   0.009  0.00  0.00    +0.169 A 
ATOM      3  N   UNL     1       0.228   4.347   0.297  0.00  0.00    -0.128 NA
ATOM      4  N   UNL     1       0.604   5.572   0.206  0.00  0.00    -0.122 NA
ATOM      5  C   UNL     1       1.870   5.632  -0.146  0.00  0.00    +0.197 A 
ENDROOT
BRANCH   1  10
ATOM      6  C   UNL     1       7.536   2.653  -1.722  0.00  0.00    +0.044 C 
ATOM      7  C   UNL     1       6.149   3.102  -1.338  0.00  0.00    -0.047 A 
ATOM      8  C   UNL     1       5.082   2.836  -2.175  0.00  0.00    +0.005 A 
ATOM      9  C   UNL     1       3.810   3.246  -1.827  0.00  0.00    +0.026 A 
ATOM     10  C   UNL     1       3.604   3.928  -0.634  0.00  0.00    +0.051 A 
ATOM     11  C   UNL     1       4.679   4.198   0.201  0.00  0.00    +0.030 A 
ATOM     12  C   UNL     1       5.948   3.780  -0.150  0.00  0.00    -0.046 A 
ATOM     13  C   UNL     1       7.114   4.069   0.759  0.00  0.00    +0.044 C 
ENDBRANCH   1  10
BRANCH   2  14
ATOM     14  C   UNL     1       1.199   2.070   0.002  0.00  0.00    +0.022 A 
ATOM     15  C   UNL     1      -0.017   1.375   0.010  0.00  0.00    +0.031 A 
ATOM     16  C   UNL     1       0.002  -0.004   0.002  0.00  0.00    +0.111 A 
ATOM     17  N   UNL     1       1.143  -0.666  -0.012  0.00  0.00    -0.263 NA
ATOM     18  C   UNL     1       2.311  -0.051  -0.020  0.00  0.00    +0.111 A 
ATOM     19  C   UNL     1       2.385   1.326  -0.013  0.00  0.00    +0.031 A 
ENDBRANCH   2  14
BRANCH   5  20
ATOM     20  S   UNL     1       2.818   7.096  -0.393  0.00  0.00    -0.076 S 
BRANCH  20  21
ATOM     21  C   UNL     1       1.563   8.349  -0.031  0.00  0.00    +0.173 C 
BRANCH  21  22
ATOM     22  C   UNL     1       2.164   9.722  -0.183  0.00  0.00    +0.228 C 
ATOM     23  O   UNL     1       3.328   9.842  -0.505  0.00  0.00    -0.275 OA
ATOM     24  N   UNL     1       1.410  10.817   0.039  0.00  0.00    -0.278 N 
ATOM     25  H   UNL     1       0.480  10.720   0.296  0.00  0.00    +0.155 HD
BRANCH  24  26
ATOM     26  C   UNL     1       1.964  12.082  -0.102  0.00  0.00    +0.090 A 
ATOM     27  C   UNL     1       1.355  13.311   0.075  0.00  0.00    +0.084 A 
ATOM     28  C   UNL     1       2.170  14.507  -0.133  0.00  0.00    -0.018 A 
ATOM     29  C   UNL     1       3.446  14.273  -0.490  0.00  0.00    -0.004 A 
ATOM     30  S   UNL     1       3.582  12.503  -0.547  0.00  0.00    -0.077 S 
ATOM     31  C   UNL     1       4.219  15.549  -0.688  0.00  0.00    +0.043 C 
ATOM     32  C   UNL     1       3.370  16.631   0.015  0.00  0.00    +0.010 C 
ATOM     33  C   UNL     1       1.957  16.020  -0.059  0.00  0.00    +0.037 C 
BRANCH  27  34
ATOM     34  C   UNL     1      -0.023  13.409   0.452  0.00  0.00    +0.102 C 
ATOM     35  N   UNL     1      -1.116  13.487   0.751  0.00  0.00    -0.191 NA
ENDBRANCH  27  34
ENDBRANCH  24  26
ENDBRANCH  21  22
ENDBRANCH  20  21
ENDBRANCH   5  20
TORSDOF 7
