REMARK  Name = ZINC01035662
REMARK  4 active torsions:
REMARK  status: ('A' for Active; 'I' for Inactive)
REMARK    1  A    between atoms: C_4  and  C_7
REMARK    2  A    between atoms: C_7  and  C_9
REMARK    3  A    between atoms: C_10  and  N_31
REMARK    4  A    between atoms: C_12  and  C_26
REMARK                            x       y       z     vdW  Elec       q    Type
REMARK                         _______ _______ _______ _____ _____    ______ ____
ROOT
ATOM      1  C   UNL     1       2.637   3.654  -0.017  0.00  0.00    +0.199 A 
ATOM      2  C   UNL     1       3.353   2.467  -0.041  0.00  0.00    +0.084 A 
ATOM      3  C   UNL     1       2.352   1.403  -0.072  0.00  0.00    +0.072 A 
ATOM      4  C   UNL     1       2.416  -0.007  -0.111  0.00  0.00    +0.037 A 
ATOM      5  C   UNL     1       1.213  -0.712  -0.135  0.00  0.00    -0.010 A 
ATOM      6  C   UNL     1       0.010  -0.008  -0.101  0.00  0.00    +0.079 A 
ATOM      7  N   UNL     1      -0.010   1.318  -0.074  0.00  0.00    -0.212 NA
ATOM      8  C   UNL     1       1.099   2.042  -0.060  0.00  0.00    +0.231 A 
ATOM      9  O   UNL     1       1.314   3.373  -0.032  0.00  0.00    -0.432 OA
ATOM     10  C   UNL     1      -1.259  -0.777  -0.112  0.00  0.00    +0.004 A 
ATOM     11  C   UNL     1      -2.462  -0.154  -0.434  0.00  0.00    +0.010 A 
ATOM     12  C   UNL     1      -3.629  -0.890  -0.456  0.00  0.00    +0.001 A 
ATOM     13  C   UNL     1      -3.603  -2.241  -0.158  0.00  0.00    +0.000 A 
ATOM     14  C   UNL     1      -2.411  -2.862   0.171  0.00  0.00    +0.004 A 
ATOM     15  C   UNL     1      -1.238  -2.134   0.202  0.00  0.00    -0.038 A 
ATOM     16  C   UNL     1       0.058  -2.802   0.576  0.00  0.00    +0.040 C 
ATOM     17  C   UNL     1       1.215  -2.213  -0.226  0.00  0.00    +0.042 C 
ENDROOT
BRANCH   4  18
ATOM     18  C   UNL     1       3.711  -0.711  -0.125  0.00  0.00    +0.136 A 
ATOM     19  C   UNL     1       4.641  -0.656  -1.119  0.00  0.00    +0.050 A 
ATOM     20  C   UNL     1       5.713  -1.473  -0.716  0.00  0.00    +0.042 A 
ATOM     21  C   UNL     1       5.391  -1.982   0.491  0.00  0.00    +0.196 A 
ATOM     22  O   UNL     1       4.184  -1.516   0.847  0.00  0.00    -0.463 OA
ENDBRANCH   4  18
BRANCH   2  23
ATOM     23  N   UNL     1       4.730   2.321  -0.035  0.00  0.00    -0.354 N 
ATOM     24  H   UNL     1       5.123   1.435  -0.052  0.00  0.00    +0.142 HD
ATOM     25  H   UNL     1       5.301   3.105  -0.012  0.00  0.00    +0.142 HD
ENDBRANCH   2  23
BRANCH   1  26
ATOM     26  C   UNL     1       3.198   4.948   0.018  0.00  0.00    +0.230 C 
ATOM     27  O   UNL     1       4.404   5.087   0.128  0.00  0.00    -0.283 OA
BRANCH  26  31
ATOM     28  C   UNL     1       0.684   8.362  -0.264  0.00  0.00    +0.000 A 
ATOM     29  C   UNL     1       2.059   8.517  -0.267  0.00  0.00    +0.001 A 
ATOM     30  C   UNL     1       2.881   7.413  -0.176  0.00  0.00    +0.012 A 
ATOM     31  C   UNL     1       2.323   6.137  -0.081  0.00  0.00    +0.025 A 
ATOM     32  C   UNL     1       0.935   5.987  -0.084  0.00  0.00    +0.012 A 
ATOM     33  C   UNL     1       0.125   7.100  -0.171  0.00  0.00    +0.001 A 
ENDBRANCH  26  31
ENDBRANCH   1  26
TORSDOF 4
