REMARK  Name = ZINC14077904
REMARK  8 active torsions:
REMARK  status: ('A' for Active; 'I' for Inactive)
REMARK    1  A    between atoms: C_1  and  O_2
REMARK    2  A    between atoms: O_2  and  C_3
REMARK    3  A    between atoms: C_6  and  S_25
REMARK    4  A    between atoms: C_8  and  N_9
REMARK    5  A    between atoms: C_10  and  C_12
REMARK    6  A    between atoms: C_12  and  N_13
REMARK    7  A    between atoms: C_14  and  C_16
REMARK    8  A    between atoms: S_25  and  N_28
REMARK                            x       y       z     vdW  Elec       q    Type
REMARK                         _______ _______ _______ _____ _____    ______ ____
ROOT
ATOM      1  C   UNL     1      -5.156  -5.769  -0.201  0.00  0.00    +0.141 A 
ATOM      2  C   UNL     1      -4.833  -7.112  -0.301  0.00  0.00    +0.049 A 
ATOM      3  C   UNL     1      -3.508  -7.506  -0.301  0.00  0.00    +0.032 A 
ATOM      4  C   UNL     1      -2.502  -6.563  -0.201  0.00  0.00    +0.107 A 
ATOM      5  C   UNL     1      -2.816  -5.221  -0.106  0.00  0.00    +0.055 A 
ATOM      6  C   UNL     1      -4.144  -4.818  -0.100  0.00  0.00    +0.077 A 
ENDROOT
BRANCH   6   7
ATOM      7  N   UNL     1      -4.465  -3.458   0.003  0.00  0.00    -0.281 N 
ATOM      8  C   UNL     1      -3.597  -2.602   0.579  0.00  0.00    +0.234 C 
ATOM      9  O   UNL     1      -2.585  -3.022   1.098  0.00  0.00    -0.274 OA
ATOM     10  H   UNL     1      -5.311  -3.132  -0.341  0.00  0.00    +0.155 HD
BRANCH   8  11
ATOM     11  C   UNL     1      -3.885  -1.123   0.578  0.00  0.00    +0.200 C 
BRANCH  11  12
ATOM     12  N   UNL     1      -2.800  -0.414   1.260  0.00  0.00    -0.303 N 
ATOM     13  C   UNL     1      -2.843   0.928   1.381  0.00  0.00    +0.245 C 
ATOM     14  O   UNL     1      -3.782   1.550   0.924  0.00  0.00    -0.270 OA
ATOM     15  H   UNL     1      -2.050  -0.910   1.624  0.00  0.00    +0.150 HD
BRANCH  13  16
ATOM     16  C   UNL     1      -1.749   1.643   2.068  0.00  0.00    +0.040 A 
ATOM     17  C   UNL     1      -0.669   0.930   2.594  0.00  0.00    +0.017 A 
ATOM     18  C   UNL     1       0.354   1.599   3.229  0.00  0.00    +0.050 A 
ATOM     19  C   UNL     1       0.313   2.981   3.356  0.00  0.00    +0.166 A 
ATOM     20  C   UNL     1      -0.766   3.698   2.837  0.00  0.00    +0.167 A 
ATOM     21  C   UNL     1      -1.794   3.033   2.198  0.00  0.00    +0.062 A 
ATOM     22  O   UNL     1      -0.568   5.026   3.090  0.00  0.00    -0.453 OA
ATOM     23  C   UNL     1       0.832   5.152   3.402  0.00  0.00    +0.466 C 
ATOM     24  O   UNL     1       1.183   3.860   3.931  0.00  0.00    -0.453 OA
ENDBRANCH  13  16
ENDBRANCH  11  12
ENDBRANCH   8  11
ENDBRANCH   6   7
BRANCH   4  25
ATOM     25  S   UNL     1      -0.816  -7.073  -0.203  0.00  0.00    +0.061 S 
ATOM     26  O   UNL     1      -0.080  -6.047   0.450  0.00  0.00    -0.153 OA
ATOM     27  O   UNL     1      -0.799  -8.423   0.241  0.00  0.00    -0.153 OA
BRANCH  25  28
ATOM     28  N   UNL     1      -0.310  -7.087  -1.780  0.00  0.00    -0.177 NA
ATOM     29  C   UNL     1      -0.459  -8.305  -2.545  0.00  0.00    +0.109 C 
ATOM     30  C   UNL     1       0.797  -9.187  -2.378  0.00  0.00    +0.017 C 
ATOM     31  C   UNL     1       1.937  -8.590  -3.091  0.00  0.00    +0.001 C 
ATOM     32  C   UNL     1       2.361  -7.222  -2.563  0.00  0.00    +0.001 C 
ATOM     33  C   UNL     1       1.518  -6.153  -3.212  0.00  0.00    +0.017 C 
ATOM     34  C   UNL     1       0.280  -5.857  -2.344  0.00  0.00    +0.109 C 
ENDBRANCH  25  28
ENDBRANCH   4  25
BRANCH   1  36
ATOM     35  C   UNL     1      -7.444  -6.410  -0.306  0.00  0.00    +0.277 C 
ATOM     36  O   UNL     1      -6.459  -5.380  -0.200  0.00  0.00    -0.493 OA
ENDBRANCH   1  36
TORSDOF 7
