REMARK  Name = ZINC29455608
REMARK  4 active torsions:
REMARK  status: ('A' for Active; 'I' for Inactive)
REMARK    1  A    between atoms: C_1  and  C_2
REMARK    2  A    between atoms: N_11  and  C_12
REMARK    3  A    between atoms: C_12  and  C_13
REMARK    4  A    between atoms: C_15  and  C_18
REMARK                            x       y       z     vdW  Elec       q    Type
REMARK                         _______ _______ _______ _____ _____    ______ ____
ROOT
ATOM      1  C   UNL     1       1.260  -1.923  -0.983  0.00  0.00    +0.029 C 
ATOM      2  C   UNL     1       1.339  -0.739  -0.018  0.00  0.00    +0.085 C 
ATOM      3  C   UNL     1       0.002  -0.004   0.002  0.00  0.00    -0.020 A 
ATOM      4  C   UNL     1      -1.235  -0.643   0.013  0.00  0.00    +0.013 A 
ATOM      5  C   UNL     1      -2.375   0.088   0.029  0.00  0.00    +0.046 A 
ATOM      6  S   UNL     1      -1.741   1.759   0.036  0.00  0.00    -0.101 S 
ATOM      7  C   UNL     1      -0.016   1.358   0.009  0.00  0.00    -0.004 A 
ATOM      8  C   UNL     1       1.170   2.267   0.003  0.00  0.00    +0.058 C 
ATOM      9  C   UNL     1       2.409   1.421   0.341  0.00  0.00    +0.090 C 
ATOM     10  N   UNL     1       2.380   0.194  -0.467  0.00  0.00    -0.287 NA
ENDROOT
BRANCH  10  11
ATOM     11  C   UNL     1       3.698  -0.456  -0.485  0.00  0.00    +0.184 C 
BRANCH  11  12
ATOM     12  C   UNL     1       4.691   0.441  -1.176  0.00  0.00    +0.241 A 
ATOM     13  N   UNL     1       5.441   1.357  -0.612  0.00  0.00    -0.195 NA
ATOM     14  C   UNL     1       6.163   1.899  -1.609  0.00  0.00    +0.175 A 
ATOM     15  N   UNL     1       5.821   1.296  -2.709  0.00  0.00    -0.061 NA
ATOM     16  O   UNL     1       4.981   0.451  -2.481  0.00  0.00    -0.337 OA
BRANCH  14  17
ATOM     17  C   UNL     1       7.180   3.003  -1.476  0.00  0.00    +0.060 C 
ATOM     18  C   UNL     1       7.738   3.608  -2.766  0.00  0.00    +0.012 C 
ATOM     19  C   UNL     1       8.616   2.696  -1.906  0.00  0.00    +0.012 C 
ENDBRANCH  14  17
ENDBRANCH  11  12
ENDBRANCH  10  11
TORSDOF 3
