REMARK  Name = ZINC09142565
REMARK  9 active torsions:
REMARK  status: ('A' for Active; 'I' for Inactive)
REMARK    1  A    between atoms: C_1  and  C_2
REMARK    2  A    between atoms: C_5  and  S_8
REMARK    3  A    between atoms: S_8  and  N_11
REMARK    4  A    between atoms: N_11  and  C_12
REMARK    5  A    between atoms: C_12  and  C_13
REMARK    6  A    between atoms: C_13  and  C_14
REMARK    7  A    between atoms: C_20  and  C_22
REMARK    8  A    between atoms: N_27  and  C_29
REMARK    9  A    between atoms: C_34  and  C_35
REMARK                            x       y       z     vdW  Elec       q    Type
REMARK                         _______ _______ _______ _____ _____    ______ ____
ROOT
ATOM      1  C   UNL     1       9.361  -6.089  -3.110  0.00  0.00    +0.105 A 
ATOM      2  N   UNL     1       8.177  -5.708  -3.548  0.00  0.00    -0.145 NA
ATOM      3  N   UNL     1       7.567  -4.748  -3.001  0.00  0.00    -0.126 NA
ATOM      4  C   UNL     1       8.080  -4.088  -1.977  0.00  0.00    +0.188 A 
ATOM      5  S   UNL     1       9.594  -4.919  -1.777  0.00  0.00    -0.035 S 
ATOM      6  N   UNL     1       7.554  -3.018  -1.260  0.00  0.00    -0.263 N 
ATOM      7  C   UNL     1       6.348  -2.514  -1.588  0.00  0.00    +0.224 C 
ATOM      8  O   UNL     1       5.721  -2.994  -2.509  0.00  0.00    -0.275 OA
ATOM      9  H   UNL     1       8.056  -2.634  -0.524  0.00  0.00    +0.157 HD
ENDROOT
BRANCH   7  10
ATOM     10  C   UNL     1       5.779  -1.355  -0.811  0.00  0.00    +0.102 C 
ATOM     11  C   UNL     1       5.577  -1.730   0.675  0.00  0.00    +0.110 C 
ATOM     12  C   UNL     1       4.295  -1.027   1.064  0.00  0.00    +0.221 C 
ATOM     13  O   UNL     1       3.928  -0.832   2.203  0.00  0.00    -0.275 OA
ATOM     14  N   UNL     1       3.622  -0.651  -0.037  0.00  0.00    -0.270 N 
ATOM     15  C   UNL     1       4.330  -1.052  -1.258  0.00  0.00    +0.127 C 
BRANCH  14  16
ATOM     16  C   UNL     1       2.400   0.031  -0.021  0.00  0.00    +0.039 A 
ATOM     17  C   UNL     1       2.377   1.419  -0.013  0.00  0.00    +0.024 A 
ATOM     18  C   UNL     1       1.170   2.089   0.002  0.00  0.00    +0.002 A 
ATOM     19  C   UNL     1      -0.017   1.378   0.010  0.00  0.00    +0.000 A 
ATOM     20  C   UNL     1       0.002  -0.004   0.002  0.00  0.00    +0.005 A 
ATOM     21  C   UNL     1       1.207  -0.680  -0.014  0.00  0.00    -0.029 A 
ATOM     22  C   UNL     1       1.226  -2.187  -0.023  0.00  0.00    +0.045 C 
ENDBRANCH  14  16
ENDBRANCH   7  10
BRANCH   1  23
ATOM     23  C   UNL     1      10.264  -7.192  -3.598  0.00  0.00    +0.081 C 
BRANCH  23  24
ATOM     24  C   UNL     1      11.203  -6.644  -4.675  0.00  0.00    +0.112 C 
BRANCH  24  25
ATOM     25  N   UNL     1      12.081  -7.717  -5.149  0.00  0.00    -0.190 NA
ATOM     26  H   UNL     1      12.161  -8.539  -4.640  0.00  0.00    +0.148 HD
BRANCH  25  27
ATOM     27  S   UNL     1      12.936  -7.527  -6.554  0.00  0.00    +0.058 S 
ATOM     28  O   UNL     1      13.703  -8.710  -6.727  0.00  0.00    -0.153 OA
ATOM     29  O   UNL     1      12.013  -7.067  -7.532  0.00  0.00    -0.153 OA
BRANCH  27  34
ATOM     30  C   UNL     1      16.871  -3.042  -5.654  0.00  0.00    +0.044 C 
ATOM     31  C   UNL     1      15.888  -4.162  -5.879  0.00  0.00    -0.050 A 
ATOM     32  C   UNL     1      16.249  -5.465  -5.594  0.00  0.00    +0.005 A 
ATOM     33  C   UNL     1      15.348  -6.493  -5.801  0.00  0.00    +0.029 A 
ATOM     34  C   UNL     1      14.085  -6.217  -6.291  0.00  0.00    +0.105 A 
ATOM     35  C   UNL     1      13.726  -4.914  -6.580  0.00  0.00    +0.029 A 
ATOM     36  C   UNL     1      14.626  -3.886  -6.370  0.00  0.00    +0.005 A 
ENDBRANCH  27  34
ENDBRANCH  25  27
ENDBRANCH  24  25
ENDBRANCH  23  24
ENDBRANCH   1  23
TORSDOF 7
