REMARK  Name = ZINC19664936
REMARK  8 active torsions:
REMARK  status: ('A' for Active; 'I' for Inactive)
REMARK    1  A    between atoms: C_1  and  C_2
REMARK    2  A    between atoms: C_4  and  N_12
REMARK    3  A    between atoms: N_12  and  C_13
REMARK    4  A    between atoms: C_13  and  C_14
REMARK    5  A    between atoms: C_14  and  N_15
REMARK    6  A    between atoms: C_16  and  C_18
REMARK    7  A    between atoms: C_18  and  N_19
REMARK    8  A    between atoms: C_25  and  C_28
REMARK                            x       y       z     vdW  Elec       q    Type
REMARK                         _______ _______ _______ _____ _____    ______ ____
ROOT
ATOM      1  N   UNL     1       1.143   1.898   0.001  0.00  0.00    -0.313 N 
ATOM      2  C   UNL     1      -0.014   1.209   0.009  0.00  0.00    +0.231 C 
ATOM      3  O   UNL     1       0.002  -0.004   0.002  0.00  0.00    -0.274 OA
ATOM      4  H   UNL     1       1.129   2.998   0.007  0.00  0.00    +0.149 HD
ENDROOT
BRANCH   1   5
ATOM      5  C   UNL     1       2.422   1.183  -0.015  0.00  0.00    +0.123 C 
BRANCH   5   6
ATOM      6  C   UNL     1       3.571   2.193  -0.020  0.00  0.00    +0.120 C 
BRANCH   6   7
ATOM      7  N   UNL     1       4.850   1.478  -0.036  0.00  0.00    -0.342 N 
ATOM      8  H   UNL     1       4.865   0.378  -0.042  0.00  0.00    +0.146 HD
BRANCH   7  12
ATOM      9  C   UNL     1       7.248   5.762  -0.039  0.00  0.00    +0.063 C 
ATOM     10  C   UNL     1       7.257   4.255  -0.046  0.00  0.00    +0.015 A 
ATOM     11  C   UNL     1       6.048   3.573  -0.042  0.00  0.00    +0.044 A 
ATOM     12  C   UNL     1       6.041   2.188  -0.044  0.00  0.00    +0.038 A 
ATOM     13  C   UNL     1       7.289   1.519  -0.059  0.00  0.00    +0.019 A 
ATOM     14  C   UNL     1       7.367   0.120  -0.068  0.00  0.00    +0.012 A 
ATOM     15  C   UNL     1       8.587  -0.487  -0.083  0.00  0.00    +0.001 A 
ATOM     16  C   UNL     1       9.758   0.267  -0.091  0.00  0.00    +0.002 A 
ATOM     17  C   UNL     1       9.717   1.627  -0.083  0.00  0.00    +0.026 A 
ATOM     18  C   UNL     1       8.477   2.288  -0.067  0.00  0.00    +0.048 A 
ATOM     19  N   UNL     1       8.408   3.624  -0.060  0.00  0.00    -0.358 N 
ATOM     20  H   UNL     1       9.348   4.195  -0.066  0.00  0.00    +0.166 HD
ENDBRANCH   7  12
ENDBRANCH   6   7
ENDBRANCH   5   6
ENDBRANCH   1   5
BRANCH   2  21
ATOM     21  C   UNL     1      -1.330   1.944   0.019  0.00  0.00    +0.213 C 
BRANCH  21  22
ATOM     22  N   UNL     1      -2.430   0.977   0.019  0.00  0.00    -0.215 N 
ATOM     23  C   UNL     1      -2.994   0.471   1.135  0.00  0.00    +0.247 C 
ATOM     24  O   UNL     1      -2.699   0.718   2.284  0.00  0.00    -0.273 OA
ATOM     25  C   UNL     1      -4.072  -0.471   0.650  0.00  0.00    +0.113 C 
ATOM     26  C   UNL     1      -5.441  -0.008   1.137  0.00  0.00    +0.035 C 
ATOM     27  C   UNL     1      -6.521  -0.958   0.613  0.00  0.00    +0.006 C 
ATOM     28  C   UNL     1      -6.237  -2.376   1.111  0.00  0.00    -0.014 C 
ATOM     29  C   UNL     1      -4.872  -2.836   0.594  0.00  0.00    +0.006 C 
ATOM     30  C   UNL     1      -3.785  -1.893   1.119  0.00  0.00    +0.035 C 
ATOM     31  C   UNL     1      -7.322  -3.324   0.598  0.00  0.00    +0.007 C 
ATOM     32  N   UNL     1      -3.990  -0.385  -0.814  0.00  0.00    -0.285 N 
ATOM     33  C   UNL     1      -3.004   0.491  -1.088  0.00  0.00    +0.310 C 
ATOM     34  O   UNL     1      -2.671   0.802  -2.215  0.00  0.00    -0.252 OA
ATOM     35  H   UNL     1      -4.670  -0.981  -1.439  0.00  0.00    +0.151 HD
ENDBRANCH  21  22
ENDBRANCH   2  21
TORSDOF 6
