REMARK  Name = ZINC20720020
REMARK  2 active torsions:
REMARK  status: ('A' for Active; 'I' for Inactive)
REMARK    1  A    between atoms: C_7  and  C_11
REMARK    2  A    between atoms: C_21  and  N_28
REMARK                            x       y       z     vdW  Elec       q    Type
REMARK                         _______ _______ _______ _____ _____    ______ ____
ROOT
ATOM      1  C   UNL     1      -1.414   4.408   0.124  0.00  0.00    +0.107 C 
ATOM      2  C   UNL     1      -0.613   3.251  -0.452  0.00  0.00    +0.029 C 
ATOM      3  C   UNL     1       0.813   3.232   0.149  0.00  0.00    +0.033 C 
ATOM      4  C   UNL     1       1.168   1.757   0.151  0.00  0.00    -0.030 C 
ATOM      5  C   UNL     1       0.084   1.024   0.107  0.00  0.00    -0.023 C 
ATOM      6  C   UNL     1      -1.154   1.904   0.062  0.00  0.00    +0.051 C 
ATOM      7  C   UNL     1      -1.682   2.031   1.472  0.00  0.00    +0.014 A 
ATOM      8  C   UNL     1      -2.139   0.875   2.095  0.00  0.00    +0.132 A 
ATOM      9  C   UNL     1      -2.638   0.920   3.380  0.00  0.00    +0.036 A 
ATOM     10  C   UNL     1      -2.687   2.122   4.064  0.00  0.00    +0.042 A 
ATOM     11  C   UNL     1      -2.233   3.274   3.454  0.00  0.00    +0.145 A 
ATOM     12  C   UNL     1      -1.729   3.231   2.153  0.00  0.00    +0.069 A 
ATOM     13  N   UNL     1      -1.285   4.426   1.583  0.00  0.00    -0.334 N 
ATOM     14  F   UNL     1      -2.279   4.449   4.120  0.00  0.00    -0.204 F 
ATOM     15  H   UNL     1      -0.877   5.315   2.087  0.00  0.00    +0.147 HD
ENDROOT
BRANCH   1  22
ATOM     16  C   UNL     1      -3.849   5.329  -3.774  0.00  0.00    +0.001 A 
ATOM     17  C   UNL     1      -5.195   5.011  -3.659  0.00  0.00    +0.002 A 
ATOM     18  C   UNL     1      -5.694   4.482  -2.489  0.00  0.00    +0.026 A 
ATOM     19  C   UNL     1      -4.843   4.264  -1.410  0.00  0.00    +0.047 A 
ATOM     20  C   UNL     1      -3.481   4.593  -1.530  0.00  0.00    +0.005 A 
ATOM     21  C   UNL     1      -2.995   5.122  -2.728  0.00  0.00    +0.010 A 
ATOM     22  C   UNL     1      -2.865   4.245  -0.247  0.00  0.00    -0.002 A 
ATOM     23  C   UNL     1      -3.841   3.760   0.537  0.00  0.00    +0.089 A 
ATOM     24  N   UNL     1      -5.029   3.764  -0.141  0.00  0.00    -0.360 N 
ATOM     25  H   UNL     1      -6.030   3.441   0.181  0.00  0.00    +0.165 HD
ENDBRANCH   1  22
BRANCH   8  26
ATOM     26  N   UNL     1      -2.091  -0.415   1.372  0.00  0.00    +0.057 N 
ATOM     27  O   UNL     1      -2.336  -0.455   0.180  0.00  0.00    -0.126 OA
ATOM     28  O   UNL     1      -1.806  -1.438   1.970  0.00  0.00    -0.126 OA
ENDBRANCH   8  26
TORSDOF 2
