REMARK  Name = ZINC01903361
REMARK  5 active torsions:
REMARK  status: ('A' for Active; 'I' for Inactive)
REMARK    1  A    between atoms: C_1  and  C_2
REMARK    2  A    between atoms: C_5  and  C_17
REMARK    3  A    between atoms: C_7  and  S_8
REMARK    4  A    between atoms: S_8  and  N_11
REMARK    5  A    between atoms: N_25  and  C_26
REMARK                            x       y       z     vdW  Elec       q    Type
REMARK                         _______ _______ _______ _____ _____    ______ ____
ROOT
ATOM      1  C   UNL     1       6.864  -1.047  -2.356  0.00  0.00    +0.099 A 
ATOM      2  C   UNL     1       7.010  -0.803  -3.800  0.00  0.00    +0.013 A 
ATOM      3  C   UNL     1       5.910  -0.689  -4.646  0.00  0.00    +0.011 A 
ATOM      4  C   UNL     1       6.107  -0.464  -5.992  0.00  0.00    +0.001 A 
ATOM      5  C   UNL     1       7.388  -0.347  -6.513  0.00  0.00    +0.001 A 
ATOM      6  C   UNL     1       8.493  -0.455  -5.693  0.00  0.00    +0.012 A 
ATOM      7  C   UNL     1       8.313  -0.681  -4.334  0.00  0.00    +0.028 A 
ATOM      8  C   UNL     1       9.443  -0.801  -3.393  0.00  0.00    +0.155 A 
ATOM      9  N   UNL     1      10.653  -1.143  -3.791  0.00  0.00    -0.228 NA
ATOM     10  N   UNL     1       9.153  -0.533  -2.066  0.00  0.00    -0.260 N 
ATOM     11  H   UNL     1       9.801  -0.089  -1.497  0.00  0.00    +0.191 HD
ATOM     12  N   UNL     1       7.900  -0.913  -1.562  0.00  0.00    -0.172 NA
ENDROOT
BRANCH   9  13
ATOM     13  C   UNL     1      11.692  -1.138  -2.902  0.00  0.00    +0.068 A 
ATOM     14  C   UNL     1      12.402   0.040  -2.660  0.00  0.00    +0.029 A 
ATOM     15  C   UNL     1      13.446   0.040  -1.759  0.00  0.00    +0.023 A 
ATOM     16  C   UNL     1      13.798  -1.127  -1.102  0.00  0.00    +0.059 A 
ATOM     17  C   UNL     1      13.101  -2.301  -1.341  0.00  0.00    +0.061 A 
ATOM     18  C   UNL     1      12.051  -2.313  -2.236  0.00  0.00    +0.049 A 
ATOM     19 CL   UNL     1      13.550  -3.759  -0.511  0.00  0.00    -0.082 Cl
ATOM     20 CL   UNL     1      15.117  -1.120   0.026  0.00  0.00    -0.082 Cl
ENDBRANCH   9  13
BRANCH   1  25
ATOM     21  C   UNL     1       1.756  -2.580  -0.187  0.00  0.00    +0.046 C 
ATOM     22  C   UNL     1       3.092  -2.176  -0.756  0.00  0.00    -0.024 A 
ATOM     23  C   UNL     1       3.453  -2.588  -2.027  0.00  0.00    +0.006 A 
ATOM     24  C   UNL     1       4.676  -2.226  -2.551  0.00  0.00    +0.010 A 
ATOM     25  C   UNL     1       5.549  -1.439  -1.799  0.00  0.00    +0.005 A 
ATOM     26  C   UNL     1       5.178  -1.023  -0.521  0.00  0.00    +0.039 A 
ATOM     27  C   UNL     1       3.951  -1.392  -0.007  0.00  0.00    +0.109 A 
BRANCH  27  28
ATOM     28  S   UNL     1       3.480  -0.867   1.608  0.00  0.00    +0.061 S 
ATOM     29  O   UNL     1       4.571  -0.119   2.126  0.00  0.00    -0.153 OA
ATOM     30  O   UNL     1       2.958  -2.011   2.270  0.00  0.00    -0.153 OA
BRANCH  28  31
ATOM     31  N   UNL     1       2.220   0.193   1.431  0.00  0.00    -0.177 NA
ATOM     32  C   UNL     1       0.830  -0.281   1.484  0.00  0.00    +0.109 C 
ATOM     33  C   UNL     1       0.100   0.189   0.222  0.00  0.00    +0.017 C 
ATOM     34  C   UNL     1       0.242   1.707   0.091  0.00  0.00    +0.003 C 
ATOM     35  C   UNL     1       1.723   2.073  -0.043  0.00  0.00    +0.017 C 
ATOM     36  C   UNL     1       2.471   1.624   1.216  0.00  0.00    +0.109 C 
ENDBRANCH  28  31
ENDBRANCH  27  28
ENDBRANCH   1  25
TORSDOF 4
