REMARK  Name = ZINC55185804
REMARK  2 active torsions:
REMARK  status: ('A' for Active; 'I' for Inactive)
REMARK    1  A    between atoms: C_6  and  N_7
REMARK    2  A    between atoms: C_8  and  C_10
REMARK                            x       y       z     vdW  Elec       q    Type
REMARK                         _______ _______ _______ _____ _____    ______ ____
ROOT
ATOM      1  C   UNL     1      -0.013   1.374   0.194  0.00  0.00    +0.025 A 
ATOM      2  C   UNL     1       1.172   2.083   0.192  0.00  0.00    +0.025 A 
ATOM      3  C   UNL     1       2.377   1.420   0.003  0.00  0.00    +0.037 A 
ATOM      4  C   UNL     1       2.391   0.043  -0.184  0.00  0.00    -0.024 A 
ATOM      5  C   UNL     1       1.207  -0.665  -0.182  0.00  0.00    +0.028 A 
ATOM      6  C   UNL     1       0.001  -0.002   0.007  0.00  0.00    +0.034 A 
ATOM      7  C   UNL     1       3.700  -0.673  -0.387  0.00  0.00    +0.046 C 
ATOM      8  C   UNL     1       4.662   0.230  -1.160  0.00  0.00    +0.101 C 
ATOM      9  C   UNL     1       4.692   1.600  -0.536  0.00  0.00    +0.218 C 
ATOM     10  O   UNL     1       5.730   2.227  -0.517  0.00  0.00    -0.275 OA
ATOM     11  N   UNL     1       3.580   2.136   0.001  0.00  0.00    -0.285 N 
ATOM     12  H   UNL     1       3.613   3.024   0.388  0.00  0.00    +0.155 HD
ENDROOT
BRANCH   6  13
ATOM     13  N   UNL     1      -1.201  -0.721   0.010  0.00  0.00    -0.280 N 
ATOM     14  C   UNL     1      -2.326  -0.154  -0.469  0.00  0.00    +0.267 C 
ATOM     15  O   UNL     1      -2.279   0.944  -0.991  0.00  0.00    -0.268 OA
ATOM     16  H   UNL     1      -1.223  -1.626   0.357  0.00  0.00    +0.155 HD
BRANCH  14  17
ATOM     17  C   UNL     1      -3.611  -0.863  -0.360  0.00  0.00    +0.135 A 
ATOM     18  C   UNL     1      -4.762  -0.298  -0.849  0.00  0.00    +0.081 A 
ATOM     19  S   UNL     1      -5.953  -1.569  -0.450  0.00  0.00    -0.060 S 
ATOM     20  C   UNL     1      -4.817  -2.714   0.319  0.00  0.00    +0.156 A 
ATOM     21  N   UNL     1      -3.673  -2.069   0.211  0.00  0.00    -0.221 NA
ATOM     22  N   UNL     1      -5.070  -3.955   0.879  0.00  0.00    -0.338 N 
ATOM     23  H   UNL     1      -5.973  -4.309   0.884  0.00  0.00    +0.144 HD
ATOM     24  H   UNL     1      -4.345  -4.470   1.265  0.00  0.00    +0.144 HD
ENDBRANCH  14  17
ENDBRANCH   6  13
TORSDOF 2
