REMARK  Name = ZINC08484768
REMARK  13 active torsions:
REMARK  status: ('A' for Active; 'I' for Inactive)
REMARK    1  A    between atoms: C_1  and  C_2
REMARK    2  A    between atoms: C_2  and  N_3
REMARK    3  A    between atoms: C_4  and  C_23
REMARK    4  A    between atoms: C_7  and  S_8
REMARK    5  A    between atoms: S_8  and  C_9
REMARK    6  A    between atoms: C_9  and  C_10
REMARK    7  A    between atoms: C_10  and  C_12
REMARK    8  A    between atoms: C_14  and  C_22
REMARK    9  A    between atoms: N_15  and  C_18
REMARK   10  A    between atoms: C_16  and  C_17
REMARK   11  A    between atoms: C_18  and  C_19
REMARK   12  A    between atoms: C_19  and  O_20
REMARK   13  A    between atoms: O_20  and  C_21
REMARK                            x       y       z     vdW  Elec       q    Type
REMARK                         _______ _______ _______ _____ _____    ______ ____
ROOT
ATOM      1  C   UNL     1       4.793  -1.052  -0.941  0.00  0.00    +0.157 C 
ENDROOT
BRANCH   1   2
ATOM      2  C   UNL     1       5.947  -0.946   0.023  0.00  0.00    +0.175 C 
ATOM      3  O   UNL     1       5.754  -0.573   1.161  0.00  0.00    -0.291 OA
BRANCH   2   4
ATOM      4  C   UNL     1       7.301  -1.293  -0.415  0.00  0.00    +0.039 A 
ATOM      5  C   UNL     1       7.709  -1.752  -1.749  0.00  0.00    +0.034 A 
ATOM      6  C   UNL     1       9.037  -1.949  -1.691  0.00  0.00    +0.017 A 
ATOM      7  N   UNL     1       9.480  -1.650  -0.435  0.00  0.00    -0.345 N 
ATOM      8  C   UNL     1       8.457  -1.250   0.341  0.00  0.00    +0.026 A 
ATOM      9  C   UNL     1       8.554  -0.830   1.785  0.00  0.00    +0.064 C 
ATOM     10  C   UNL     1       9.900  -2.425  -2.831  0.00  0.00    +0.063 C 
BRANCH   7  11
ATOM     11  C   UNL     1      10.874  -1.745   0.004  0.00  0.00    +0.149 C 
BRANCH  11  12
ATOM     12  C   UNL     1      11.580  -0.411  -0.246  0.00  0.00    +0.181 C 
BRANCH  12  13
ATOM     13  O   UNL     1      12.940  -0.504   0.182  0.00  0.00    -0.381 OA
ATOM     14  C   UNL     1      13.693   0.696  -0.008  0.00  0.00    +0.194 C 
ENDBRANCH  12  13
ENDBRANCH  11  12
ENDBRANCH   7  11
ENDBRANCH   2   4
ENDBRANCH   1   2
BRANCH   1  15
ATOM     15  S   UNL     1       3.260  -0.556  -0.106  0.00  0.00    -0.078 S 
BRANCH  15  20
ATOM     16  N   UNL     1       0.688  -0.476  -1.203  0.00  0.00    -0.300 N 
ATOM     17  C   UNL     1       0.123  -0.750  -2.430  0.00  0.00    +0.200 A 
ATOM     18  N   UNL     1       1.095  -1.145  -3.222  0.00  0.00    -0.125 NA
ATOM     19  N   UNL     1       2.211  -1.137  -2.584  0.00  0.00    -0.122 NA
ATOM     20  C   UNL     1       2.023  -0.733  -1.348  0.00  0.00    +0.192 A 
BRANCH  17  21
ATOM     21  C   UNL     1      -1.299  -0.624  -2.786  0.00  0.00    +0.172 A 
ATOM     22  C   UNL     1      -1.810  -0.621  -4.049  0.00  0.00    +0.053 A 
ATOM     23  C   UNL     1      -3.206  -0.481  -3.921  0.00  0.00    +0.042 A 
ATOM     24  C   UNL     1      -3.477  -0.406  -2.602  0.00  0.00    +0.196 A 
ATOM     25  O   UNL     1      -2.324  -0.497  -1.919  0.00  0.00    -0.460 OA
ENDBRANCH  17  21
BRANCH  16  27
ATOM     26  C   UNL     1      -0.019   1.526   0.010  0.00  0.00    +0.027 C 
ATOM     27  C   UNL     1       0.002  -0.004   0.002  0.00  0.00    +0.122 C 
ENDBRANCH  16  27
ENDBRANCH  15  20
ENDBRANCH   1  15
TORSDOF 9
