REMARK  Name = ZINC35072158
REMARK  13 active torsions:
REMARK  status: ('A' for Active; 'I' for Inactive)
REMARK    1  A    between atoms: C_1  and  C_2
REMARK    2  A    between atoms: C_2  and  N_3
REMARK    3  A    between atoms: N_6  and  C_7
REMARK    4  A    between atoms: N_6  and  C_12
REMARK    5  A    between atoms: C_7  and  C_8
REMARK    6  A    between atoms: C_8  and  N_9
REMARK    7  A    between atoms: N_9  and  C_10
REMARK    8  A    between atoms: N_9  and  C_11
REMARK    9  A    between atoms: C_12  and  C_14
REMARK   10  A    between atoms: C_12  and  C_15
REMARK   11  A    between atoms: N_25  and  C_26
REMARK   12  A    between atoms: C_28  and  C_33
REMARK   13  A    between atoms: C_31  and  C_32
REMARK                            x       y       z     vdW  Elec       q    Type
REMARK                         _______ _______ _______ _____ _____    ______ ____
ROOT
ATOM      1  C   UNL     1       1.060  -0.585   4.162  0.00  0.00    +0.138 A 
ATOM      2  N   UNL     1      -0.157  -0.692   3.725  0.00  0.00    -0.231 NA
ATOM      3  C   UNL     1      -1.185  -0.030   4.313  0.00  0.00    +0.078 A 
ATOM      4  C   UNL     1      -2.495  -0.145   3.843  0.00  0.00    +0.028 A 
ATOM      5  C   UNL     1      -3.507   0.545   4.471  0.00  0.00    +0.002 A 
ATOM      6  C   UNL     1      -3.243   1.356   5.567  0.00  0.00    +0.001 A 
ATOM      7  C   UNL     1      -1.959   1.486   6.049  0.00  0.00    +0.015 A 
ATOM      8  C   UNL     1      -0.920   0.795   5.428  0.00  0.00    +0.065 A 
ATOM      9  C   UNL     1       0.470   0.895   5.899  0.00  0.00    +0.266 A 
ATOM     10  O   UNL     1       0.765   1.588   6.855  0.00  0.00    -0.267 OA
ATOM     11  N   UNL     1       1.406   0.181   5.232  0.00  0.00    -0.263 N 
ENDROOT
BRANCH  11  12
ATOM     12  C   UNL     1       2.744   0.236   5.643  0.00  0.00    +0.054 A 
ATOM     13  C   UNL     1       3.556   1.284   5.228  0.00  0.00    +0.030 A 
ATOM     14  C   UNL     1       4.875   1.336   5.635  0.00  0.00    -0.048 A 
ATOM     15  C   UNL     1       5.387   0.346   6.455  0.00  0.00    +0.004 A 
ATOM     16  C   UNL     1       4.581  -0.698   6.869  0.00  0.00    +0.005 A 
ATOM     17  C   UNL     1       3.260  -0.753   6.470  0.00  0.00    -0.026 A 
ATOM     18  C   UNL     1       2.380  -1.888   6.927  0.00  0.00    +0.046 C 
ATOM     19  C   UNL     1       5.757   2.472   5.186  0.00  0.00    +0.044 C 
ENDBRANCH  11  12
BRANCH   1  20
ATOM     20  C   UNL     1       2.145  -1.354   3.453  0.00  0.00    +0.141 C 
ATOM     21  C   UNL     1       2.968  -0.396   2.589  0.00  0.00    +0.036 C 
BRANCH  20  25
ATOM     22  N   UNL     1       0.405  -0.727   1.407  0.00  0.00    -0.299 N 
ATOM     23  C   UNL     1       0.657  -2.029   1.645  0.00  0.00    +0.303 C 
ATOM     24  O   UNL     1       0.089  -2.887   0.997  0.00  0.00    -0.253 OA
ATOM     25  N   UNL     1       1.539  -2.381   2.601  0.00  0.00    -0.278 N 
ATOM     26  H   UNL     1       0.798  -0.045   1.975  0.00  0.00    +0.150 HD
BRANCH  22  28
ATOM     27  C   UNL     1      -0.584   1.184   0.245  0.00  0.00    +0.024 C 
ATOM     28  C   UNL     1      -0.464  -0.340   0.292  0.00  0.00    +0.102 C 
ENDBRANCH  22  28
BRANCH  25  29
ATOM     29  C   UNL     1       1.892  -3.790   2.790  0.00  0.00    +0.091 C 
BRANCH  29  30
ATOM     30  C   UNL     1       3.096  -4.137   1.912  0.00  0.00    -0.060 C 
BRANCH  30  31
ATOM     31  N   UNL     1       3.449  -5.550   2.101  0.00  0.00    +0.377 N 
ATOM     32  C   UNL     1       2.354  -6.398   1.611  0.00  0.00    -0.097 C 
ATOM     33  C   UNL     1       4.676  -5.852   1.351  0.00  0.00    -0.097 C 
ATOM     34  H   UNL     1       3.602  -5.730   3.082  0.00  0.00    -0.083 HD
ENDBRANCH  30  31
ENDBRANCH  29  30
ENDBRANCH  25  29
ENDBRANCH  20  25
ENDBRANCH   1  20
TORSDOF 7
