REMARK  Name = ZINC16848558
REMARK  7 active torsions:
REMARK  status: ('A' for Active; 'I' for Inactive)
REMARK    1  A    between atoms: C_1  and  O_2
REMARK    2  A    between atoms: O_2  and  C_3
REMARK    3  A    between atoms: C_6  and  S_9
REMARK    4  A    between atoms: S_9  and  N_12
REMARK    5  A    between atoms: C_15  and  C_18
REMARK    6  A    between atoms: C_18  and  C_19
REMARK    7  A    between atoms: C_19  and  C_20
REMARK                            x       y       z     vdW  Elec       q    Type
REMARK                         _______ _______ _______ _____ _____    ______ ____
ROOT
ATOM      1  N   UNL     1      -6.560  -1.290   7.378  0.00  0.00    -0.103 NA
ATOM      2  C   UNL     1      -6.809  -2.185   6.350  0.00  0.00    +0.192 A 
ATOM      3  N   UNL     1      -5.983  -2.634   5.423  0.00  0.00    -0.336 N 
ATOM      4  C   UNL     1      -6.388  -3.490   4.504  0.00  0.00    +0.025 A 
ATOM      5  C   UNL     1      -7.675  -3.913   4.538  0.00  0.00    +0.069 A 
ATOM      6  S   UNL     1      -8.284  -3.011   5.955  0.00  0.00    -0.057 S 
ATOM      7  H   UNL     1      -4.937  -2.293   5.408  0.00  0.00    +0.168 HD
ENDROOT
BRANCH   1   8
ATOM      8  S   UNL     1      -7.771  -0.883   8.433  0.00  0.00    +0.101 S 
ATOM      9  O   UNL     1      -7.204   0.018   9.373  0.00  0.00    -0.146 OA
ATOM     10  O   UNL     1      -8.903  -0.548   7.642  0.00  0.00    -0.146 OA
BRANCH   8  14
ATOM     11  C   UNL     1      -8.861  -4.631  10.728  0.00  0.00    +0.120 A 
ATOM     12  C   UNL     1      -7.875  -3.783  11.211  0.00  0.00    +0.047 A 
ATOM     13  C   UNL     1      -7.544  -2.641  10.509  0.00  0.00    +0.032 A 
ATOM     14  C   UNL     1      -8.195  -2.342   9.326  0.00  0.00    +0.113 A 
ATOM     15  C   UNL     1      -9.182  -3.183   8.846  0.00  0.00    +0.032 A 
ATOM     16  C   UNL     1      -9.513  -4.329   9.541  0.00  0.00    +0.047 A 
BRANCH  11  18
ATOM     17  C   UNL     1     -10.213  -6.583  10.861  0.00  0.00    +0.277 C 
ATOM     18  O   UNL     1      -9.188  -5.756  11.417  0.00  0.00    -0.495 OA
ENDBRANCH  11  18
ENDBRANCH   8  14
ENDBRANCH   1   8
BRANCH   4  19
ATOM     19  C   UNL     1      -5.440  -3.991   3.446  0.00  0.00    +0.063 C 
BRANCH  19  20
ATOM     20  C   UNL     1      -4.827  -2.801   2.706  0.00  0.00    +0.102 C 
BRANCH  20  21
ATOM     21  C   UNL     1      -3.878  -3.303   1.648  0.00  0.00    +0.216 C 
ATOM     22  O   UNL     1      -3.708  -4.494   1.500  0.00  0.00    -0.276 OA
ATOM     23  N   UNL     1      -3.217  -2.426   0.865  0.00  0.00    -0.298 N 
ATOM     24  C   UNL     1      -2.287  -2.894  -0.173  0.00  0.00    +0.126 C 
ATOM     25  C   UNL     1      -0.954  -2.158   0.000  0.00  0.00    +0.125 C 
ATOM     26  N   UNL     1      -1.196  -0.709   0.010  0.00  0.00    -0.314 N 
ATOM     27  C   UNL     1      -2.030  -0.316   1.153  0.00  0.00    +0.125 C 
ATOM     28  C   UNL     1      -3.407  -0.977   1.028  0.00  0.00    +0.126 C 
ATOM     29  C   UNL     1       0.002  -0.004   0.002  0.00  0.00    +0.099 A 
ATOM     30  C   UNL     1      -0.017   1.387   0.010  0.00  0.00    +0.042 A 
ATOM     31  C   UNL     1       1.182   2.076   0.002  0.00  0.00    +0.005 A 
ATOM     32  C   UNL     1       2.365   1.348  -0.013  0.00  0.00    +0.018 A 
ATOM     33  C   UNL     1       2.310  -0.031  -0.020  0.00  0.00    +0.084 A 
ATOM     34  N   UNL     1       1.151  -0.662  -0.013  0.00  0.00    -0.350 N 
ATOM     35  H   UNL     1       1.154  -1.762  -0.018  0.00  0.00    +0.166 HD
ENDBRANCH  20  21
ENDBRANCH  19  20
ENDBRANCH   4  19
TORSDOF 6
