REMARK  Name = ZINC03371203
REMARK  10 active torsions:
REMARK  status: ('A' for Active; 'I' for Inactive)
REMARK    1  A    between atoms: C_1  and  S_2
REMARK    2  A    between atoms: S_2  and  C_3
REMARK    3  A    between atoms: C_3  and  C_4
REMARK    4  A    between atoms: C_4  and  C_5
REMARK    5  A    between atoms: C_5  and  C_7
REMARK    6  A    between atoms: C_5  and  N_17
REMARK    7  A    between atoms: C_18  and  C_20
REMARK    8  A    between atoms: C_20  and  C_21
REMARK    9  A    between atoms: C_24  and  S_26
REMARK   10  A    between atoms: S_26  and  N_29
REMARK                            x       y       z     vdW  Elec       q    Type
REMARK                         _______ _______ _______ _____ _____    ______ ____
ROOT
ATOM      1  N   UNL     1      -0.834  -2.537  -1.256  0.00  0.00    -0.305 N 
ATOM      2  C   UNL     1       0.503  -2.647  -1.384  0.00  0.00    +0.218 C 
ATOM      3  O   UNL     1       1.227  -2.354  -0.457  0.00  0.00    -0.275 OA
ATOM      4  H   UNL     1      -1.414  -2.772  -1.997  0.00  0.00    +0.149 HD
ENDROOT
BRANCH   1   5
ATOM      5  C   UNL     1      -1.413  -2.063   0.004  0.00  0.00    +0.140 C 
BRANCH   5   6
ATOM      6  C   UNL     1      -2.820  -2.586   0.139  0.00  0.00    +0.129 A 
ATOM      7  N   UNL     1      -3.417  -3.448  -0.727  0.00  0.00    -0.340 N 
ATOM      8  H   UNL     1      -3.008  -3.838  -1.552  0.00  0.00    +0.167 HD
ATOM      9  C   UNL     1      -4.694  -3.683  -0.258  0.00  0.00    +0.066 A 
ATOM     10  C   UNL     1      -5.759  -4.457  -0.698  0.00  0.00    +0.028 A 
ATOM     11  C   UNL     1      -6.936  -4.471   0.019  0.00  0.00    +0.002 A 
ATOM     12  C   UNL     1      -7.063  -3.715   1.176  0.00  0.00    +0.002 A 
ATOM     13  C   UNL     1      -6.026  -2.947   1.624  0.00  0.00    +0.030 A 
ATOM     14  C   UNL     1      -4.823  -2.918   0.914  0.00  0.00    +0.089 A 
ATOM     15  N   UNL     1      -3.642  -2.273   1.098  0.00  0.00    -0.231 NA
ENDBRANCH   5   6
BRANCH   5  16
ATOM     16  C   UNL     1      -1.433  -0.534   0.013  0.00  0.00    +0.041 C 
BRANCH  16  17
ATOM     17  C   UNL     1       0.002  -0.004   0.002  0.00  0.00    +0.071 C 
BRANCH  17  19
ATOM     18  C   UNL     1       1.731   2.272  -0.002  0.00  0.00    +0.084 C 
ATOM     19  S   UNL     1      -0.022   1.810   0.012  0.00  0.00    -0.164 S 
ENDBRANCH  17  19
ENDBRANCH  16  17
ENDBRANCH   5  16
ENDBRANCH   1   5
BRANCH   2  20
ATOM     20  C   UNL     1       1.098  -3.134  -2.680  0.00  0.00    +0.138 C 
BRANCH  20  21
ATOM     21  C   UNL     1       2.600  -3.165  -2.563  0.00  0.00    +0.000 A 
ATOM     22  C   UNL     1       3.403  -4.174  -2.146  0.00  0.00    +0.013 A 
ATOM     23  C   UNL     1       4.771  -3.976  -2.121  0.00  0.00    +0.036 A 
ATOM     24  C   UNL     1       5.269  -2.778  -2.515  0.00  0.00    +0.143 A 
ATOM     25  S   UNL     1       3.784  -1.885  -2.945  0.00  0.00    -0.073 S 
BRANCH  24  26
ATOM     26  S   UNL     1       6.946  -2.244  -2.588  0.00  0.00    +0.067 S 
ATOM     27  O   UNL     1       6.924  -0.825  -2.511  0.00  0.00    -0.152 OA
ATOM     28  O   UNL     1       7.669  -3.046  -1.664  0.00  0.00    -0.152 OA
BRANCH  26  29
ATOM     29  N   UNL     1       7.516  -2.627  -4.095  0.00  0.00    -0.176 NA
ATOM     30  C   UNL     1       8.157  -3.925  -4.345  0.00  0.00    +0.109 C 
ATOM     31  C   UNL     1       7.451  -4.598  -5.532  0.00  0.00    +0.017 C 
ATOM     32  C   UNL     1       7.465  -3.649  -6.732  0.00  0.00    +0.003 C 
ATOM     33  C   UNL     1       6.703  -2.369  -6.381  0.00  0.00    +0.017 C 
ATOM     34  C   UNL     1       7.396  -1.673  -5.206  0.00  0.00    +0.109 C 
ENDBRANCH  26  29
ENDBRANCH  24  26
ENDBRANCH  20  21
ENDBRANCH   2  20
TORSDOF 9
