REMARK  Name = ZINC04986909
REMARK  2 active torsions:
REMARK  status: ('A' for Active; 'I' for Inactive)
REMARK    1  A    between atoms: C_5  and  C_7
REMARK    2  A    between atoms: C_12  and  C_18
REMARK                            x       y       z     vdW  Elec       q    Type
REMARK                         _______ _______ _______ _____ _____    ______ ____
ROOT
ATOM      1  C   UNL     1       2.451   3.939  -0.000  0.00  0.00    +0.033 C 
ATOM      2  C   UNL     1       2.530   4.822   1.248  0.00  0.00    +0.060 C 
ATOM      3  C   UNL     1       3.802   5.631   1.215  0.00  0.00    +0.018 C 
ATOM      4  C   UNL     1       4.348   6.015   0.042  0.00  0.00    +0.020 C 
ATOM      5  C   UNL     1       5.620   6.831   0.034  0.00  0.00    +0.063 C 
ATOM      6  C   UNL     1       5.626   7.774   1.238  0.00  0.00    +0.109 C 
ATOM      7  C   UNL     1       5.266   6.995   2.477  0.00  0.00    +0.218 C 
ATOM      8  O   UNL     1       5.762   7.292   3.543  0.00  0.00    -0.275 OA
ATOM      9  N   UNL     1       4.397   5.973   2.403  0.00  0.00    -0.289 N 
ATOM     10  C   UNL     1       3.761   5.668  -1.186  0.00  0.00    +0.162 C 
ATOM     11  O   UNL     1       4.274   6.044  -2.222  0.00  0.00    -0.292 OA
ATOM     12  C   UNL     1       2.508   4.836  -1.242  0.00  0.00    +0.088 C 
ATOM     13  H   UNL     1       4.187   5.467   3.204  0.00  0.00    +0.155 HD
ENDROOT
BRANCH   5  14
ATOM     14  C   UNL     1       6.809   5.908   0.112  0.00  0.00    -0.036 A 
ATOM     15  C   UNL     1       6.958   5.066   1.198  0.00  0.00    +0.008 A 
ATOM     16  C   UNL     1       8.047   4.218   1.274  0.00  0.00    +0.050 A 
ATOM     17  C   UNL     1       8.993   4.210   0.262  0.00  0.00    +0.166 A 
ATOM     18  C   UNL     1       8.842   5.059  -0.832  0.00  0.00    +0.167 A 
ATOM     19  C   UNL     1       7.745   5.902  -0.905  0.00  0.00    +0.053 A 
ATOM     20  O   UNL     1       9.892   4.865  -1.683  0.00  0.00    -0.453 OA
ATOM     21  C   UNL     1      10.897   4.187  -0.905  0.00  0.00    +0.466 C 
ATOM     22  O   UNL     1      10.137   3.485   0.097  0.00  0.00    -0.453 OA
ENDBRANCH   5  14
BRANCH   1  27
ATOM     23  C   UNL     1      -1.237   3.133   0.029  0.00  0.00    +0.000 A 
ATOM     24  C   UNL     1      -1.218   1.751   0.017  0.00  0.00    +0.001 A 
ATOM     25  C   UNL     1      -0.013   1.076   0.008  0.00  0.00    +0.020 A 
ATOM     26  C   UNL     1       1.176   1.784   0.000  0.00  0.00    +0.044 A 
ATOM     27  C   UNL     1       1.157   3.167   0.007  0.00  0.00    -0.025 A 
ATOM     28  C   UNL     1      -0.050   3.841   0.022  0.00  0.00    +0.005 A 
ATOM     29 CL   UNL     1       2.691   0.937  -0.019  0.00  0.00    -0.083 Cl
ENDBRANCH   1  27
TORSDOF 2
