REMARK  Name = ZINC14605625
REMARK  11 active torsions:
REMARK  status: ('A' for Active; 'I' for Inactive)
REMARK    1  A    between atoms: C_1  and  C_2
REMARK    2  A    between atoms: C_2  and  C_3
REMARK    3  A    between atoms: C_2  and  C_4
REMARK    4  A    between atoms: C_4  and  N_5
REMARK    5  A    between atoms: C_6  and  C_8
REMARK    6  A    between atoms: C_8  and  N_9
REMARK    7  A    between atoms: C_19  and  C_21
REMARK    8  A    between atoms: C_26  and  O_27
REMARK    9  A    between atoms: O_27  and  C_28
REMARK   10  A    between atoms: C_32  and  C_34
REMARK   11  A    between atoms: C_32  and  C_35
REMARK                            x       y       z     vdW  Elec       q    Type
REMARK                         _______ _______ _______ _____ _____    ______ ____
ROOT
ATOM      1  N   UNL     1      -4.076   2.262  -2.551  0.00  0.00    -0.308 N 
ATOM      2  C   UNL     1      -4.724   3.207  -1.763  0.00  0.00    +0.052 A 
ATOM      3  C   UNL     1      -5.408   4.267  -2.346  0.00  0.00    +0.025 A 
ATOM      4  C   UNL     1      -6.004   5.218  -1.538  0.00  0.00    +0.002 A 
ATOM      5  C   UNL     1      -5.923   5.119  -0.161  0.00  0.00    +0.002 A 
ATOM      6  C   UNL     1      -5.250   4.059   0.422  0.00  0.00    +0.025 A 
ATOM      7  C   UNL     1      -4.660   3.104  -0.389  0.00  0.00    +0.052 A 
ATOM      8  N   UNL     1      -3.987   2.006   0.140  0.00  0.00    -0.316 N 
ATOM      9  C   UNL     1      -2.654   1.801  -0.018  0.00  0.00    +0.017 C 
ATOM     10  C   UNL     1      -2.007   1.971  -1.186  0.00  0.00    +0.037 C 
ATOM     11  C   UNL     1      -2.634   2.343  -2.509  0.00  0.00    +0.143 C 
ATOM     12  C   UNL     1      -0.606   1.786  -1.249  0.00  0.00    +0.163 C 
ATOM     13  O   UNL     1      -0.044   1.931  -2.317  0.00  0.00    -0.292 OA
ATOM     14  C   UNL     1       0.212   1.420  -0.047  0.00  0.00    +0.086 C 
ATOM     15  C   UNL     1      -0.487   1.948   1.211  0.00  0.00    -0.023 C 
ATOM     16  C   UNL     1      -1.905   1.370   1.229  0.00  0.00    +0.058 C 
ATOM     17  C   UNL     1       0.277   1.497   2.457  0.00  0.00    +0.011 C 
ATOM     18  C   UNL     1      -0.552   3.476   1.165  0.00  0.00    +0.011 C 
ATOM     19  H   UNL     1      -4.496   1.355   0.648  0.00  0.00    +0.152 HD
ENDROOT
BRANCH  11  20
ATOM     20  C   UNL     1      -2.077   1.431  -3.571  0.00  0.00    +0.019 A 
ATOM     21  C   UNL     1      -2.441   0.098  -3.598  0.00  0.00    +0.009 A 
ATOM     22  C   UNL     1      -1.930  -0.740  -4.572  0.00  0.00    +0.001 A 
ATOM     23  C   UNL     1      -1.054  -0.246  -5.522  0.00  0.00    +0.004 A 
ATOM     24  C   UNL     1      -0.688   1.086  -5.499  0.00  0.00    +0.046 A 
ATOM     25  C   UNL     1      -1.203   1.929  -4.525  0.00  0.00    +0.125 A 
BRANCH  25  26
ATOM     26  O   UNL     1      -0.848   3.241  -4.504  0.00  0.00    -0.495 OA
ATOM     27  C   UNL     1       0.057   3.685  -5.517  0.00  0.00    +0.277 C 
ENDBRANCH  25  26
ENDBRANCH  11  20
BRANCH   1  28
ATOM     28  C   UNL     1      -4.566   2.306  -3.935  0.00  0.00    +0.201 C 
BRANCH  28  30
ATOM     29  N   UNL     1      -6.674   1.843  -5.143  0.00  0.00    -0.314 N 
ATOM     30  C   UNL     1      -6.011   1.880  -3.970  0.00  0.00    +0.230 C 
ATOM     31  O   UNL     1      -6.577   1.570  -2.943  0.00  0.00    -0.274 OA
ATOM     32  H   UNL     1      -6.221   2.090  -5.964  0.00  0.00    +0.149 HD
BRANCH  29  33
ATOM     33  C   UNL     1      -8.079   1.428  -5.177  0.00  0.00    +0.107 C 
BRANCH  33  35
ATOM     34  C   UNL     1     -10.016   0.923  -6.673  0.00  0.00    +0.009 C 
ATOM     35  C   UNL     1      -8.589   1.474  -6.619  0.00  0.00    -0.000 C 
ATOM     36  C   UNL     1      -8.582   2.920  -7.117  0.00  0.00    +0.009 C 
ENDBRANCH  33  35
ENDBRANCH  29  33
ENDBRANCH  28  30
ENDBRANCH   1  28
TORSDOF 6
