REMARK  Name = ZINC40036559
REMARK  13 active torsions:
REMARK  status: ('A' for Active; 'I' for Inactive)
REMARK    1  A    between atoms: C_1  and  C_2
REMARK    2  A    between atoms: C_2  and  C_3
REMARK    3  A    between atoms: C_3  and  C_4
REMARK    4  A    between atoms: C_4  and  C_5
REMARK    5  A    between atoms: C_5  and  O_6
REMARK    6  A    between atoms: O_6  and  C_7
REMARK    7  A    between atoms: C_12  and  C_13
REMARK    8  A    between atoms: N_14  and  N_15
REMARK    9  A    between atoms: N_22  and  C_23
REMARK   10  A    between atoms: C_29  and  C_37
REMARK   11  A    between atoms: C_29  and  C_38
REMARK   12  A    between atoms: C_38  and  C_39
REMARK   13  A    between atoms: C_39  and  C_40
REMARK                            x       y       z     vdW  Elec       q    Type
REMARK                         _______ _______ _______ _____ _____    ______ ____
ROOT
ATOM      1  N   UNL     1      -4.504  -7.095   0.265  0.00  0.00    -0.206 N 
ATOM      2  C   UNL     1      -3.586  -6.261   0.847  0.00  0.00    +0.223 A 
ATOM      3  N   UNL     1      -3.578  -4.984   0.522  0.00  0.00    -0.214 NA
ATOM      4  C   UNL     1      -2.696  -4.141   1.069  0.00  0.00    +0.084 A 
ATOM      5  C   UNL     1      -1.769  -4.609   1.989  0.00  0.00    +0.050 A 
ATOM      6  C   UNL     1      -1.784  -5.966   2.333  0.00  0.00    +0.264 A 
ATOM      7  O   UNL     1      -0.986  -6.414   3.141  0.00  0.00    -0.267 OA
ATOM      8  N   UNL     1      -2.704  -6.769   1.754  0.00  0.00    -0.248 N 
ATOM      9  C   UNL     1      -0.765  -3.671   2.598  0.00  0.00    +0.004 C 
ATOM     10  C   UNL     1      -1.384  -2.293   2.822  0.00  0.00    +0.047 C 
ATOM     11  C   UNL     1      -2.048  -1.800   1.565  0.00  0.00    -0.037 A 
ATOM     12  C   UNL     1      -2.690  -2.703   0.716  0.00  0.00    +0.004 A 
ATOM     13  C   UNL     1      -3.311  -2.250  -0.444  0.00  0.00    +0.010 A 
ATOM     14  C   UNL     1      -3.286  -0.904  -0.752  0.00  0.00    +0.001 A 
ATOM     15  C   UNL     1      -2.646  -0.012   0.089  0.00  0.00    +0.000 A 
ATOM     16  C   UNL     1      -2.029  -0.459   1.245  0.00  0.00    +0.004 A 
ATOM     17  C   UNL     1      -0.294  -4.236   3.939  0.00  0.00    +0.017 C 
ATOM     18  H   UNL     1      -4.598  -8.008   0.579  0.00  0.00    +0.177 HD
ENDROOT
BRANCH   8  19
ATOM     19  C   UNL     1      -2.748  -8.130   2.084  0.00  0.00    +0.053 A 
ATOM     20  C   UNL     1      -3.414  -8.546   3.229  0.00  0.00    +0.026 A 
ATOM     21  C   UNL     1      -3.457  -9.889   3.552  0.00  0.00    +0.002 A 
ATOM     22  C   UNL     1      -2.837 -10.817   2.735  0.00  0.00    +0.000 A 
ATOM     23  C   UNL     1      -2.173 -10.405   1.594  0.00  0.00    +0.002 A 
ATOM     24  C   UNL     1      -2.132  -9.065   1.264  0.00  0.00    +0.026 A 
ENDBRANCH   8  19
BRANCH   1  26
ATOM     25  C   UNL     1      -6.355  -7.304  -1.149  0.00  0.00    +0.142 C 
ATOM     26  N   UNL     1      -5.308  -6.629  -0.784  0.00  0.00    -0.187 NA
BRANCH  25  32
ATOM     27  C   UNL     1      -6.586  -5.924  -3.212  0.00  0.00    +0.129 A 
ATOM     28  C   UNL     1      -7.284  -5.575  -4.356  0.00  0.00    +0.046 A 
ATOM     29  C   UNL     1      -8.477  -6.202  -4.659  0.00  0.00    +0.004 A 
ATOM     30  C   UNL     1      -8.984  -7.183  -3.823  0.00  0.00    +0.001 A 
ATOM     31  C   UNL     1      -8.302  -7.543  -2.680  0.00  0.00    +0.013 A 
ATOM     32  C   UNL     1      -7.092  -6.920  -2.366  0.00  0.00    +0.036 A 
BRANCH  27  33
ATOM     33  O   UNL     1      -5.412  -5.308  -2.914  0.00  0.00    -0.491 OA
BRANCH  33  34
ATOM     34  C   UNL     1      -4.874  -4.426  -3.901  0.00  0.00    +0.229 C 
BRANCH  34  35
ATOM     35  C   UNL     1      -3.486  -3.956  -3.461  0.00  0.00    +0.041 C 
BRANCH  35  36
ATOM     36  C   UNL     1      -2.969  -2.903  -4.444  0.00  0.00    +0.003 C 
BRANCH  36  38
ATOM     37  C   UNL     1      -1.074  -1.360  -4.963  0.00  0.00    +0.004 C 
ATOM     38  C   UNL     1      -1.545  -2.500  -4.058  0.00  0.00    -0.003 C 
ENDBRANCH  36  38
ENDBRANCH  35  36
ENDBRANCH  34  35
ENDBRANCH  33  34
ENDBRANCH  27  33
ENDBRANCH  25  32
ENDBRANCH   1  26
BRANCH   9  39
ATOM     39  C   UNL     1       0.435  -3.537   1.658  0.00  0.00    +0.011 C 
BRANCH  39  40
ATOM     40  C   UNL     1       1.076  -4.911   1.452  0.00  0.00    -0.003 C 
ATOM     41  C   UNL     1       2.276  -4.777   0.512  0.00  0.00    +0.004 C 
ENDBRANCH  39  40
ENDBRANCH   9  39
TORSDOF 10
