REMARK  Name = ZINC12584521
REMARK  7 active torsions:
REMARK  status: ('A' for Active; 'I' for Inactive)
REMARK    1  A    between atoms: C_1  and  C_2
REMARK    2  A    between atoms: N_10  and  N_14
REMARK    3  A    between atoms: C_15  and  C_17
REMARK    4  A    between atoms: C_17  and  N_66
REMARK    5  A    between atoms: C_23  and  C_25
REMARK    6  A    between atoms: C_28  and  O_31
REMARK    7  A    between atoms: O_31  and  C_32
REMARK                            x       y       z     vdW  Elec       q    Type
REMARK                         _______ _______ _______ _____ _____    ______ ____
ROOT
ATOM      1  N   UNL     1      -2.099   0.058   4.341  0.00  0.00    -0.225 N 
ATOM      2  C   UNL     1      -1.923  -0.448   3.105  0.00  0.00    +0.213 C 
ATOM      3  O   UNL     1      -2.575  -1.404   2.742  0.00  0.00    -0.276 OA
ATOM      4  H   UNL     1      -1.577   0.823   4.631  0.00  0.00    +0.173 HD
ENDROOT
BRANCH   1  14
ATOM      5  C   UNL     1      -2.155  -4.043   9.991  0.00  0.00    +0.007 C 
ATOM      6  C   UNL     1      -3.231  -3.366   9.140  0.00  0.00    -0.014 C 
ATOM      7  C   UNL     1      -3.134  -3.871   7.699  0.00  0.00    +0.006 C 
ATOM      8  C   UNL     1      -4.219  -3.201   6.851  0.00  0.00    +0.035 C 
ATOM      9  C   UNL     1      -4.034  -1.688   6.891  0.00  0.00    +0.114 C 
ATOM     10  C   UNL     1      -4.107  -1.173   8.324  0.00  0.00    +0.035 C 
ATOM     11  C   UNL     1      -3.024  -1.851   9.167  0.00  0.00    +0.006 C 
ATOM     12  C   UNL     1      -2.716  -1.301   6.259  0.00  0.00    +0.263 C 
ATOM     13  O   UNL     1      -1.606  -1.625   6.621  0.00  0.00    -0.271 OA
ATOM     14  N   UNL     1      -3.037  -0.520   5.207  0.00  0.00    -0.137 N 
ATOM     15  C   UNL     1      -4.361  -0.360   5.097  0.00  0.00    +0.326 C 
ATOM     16  O   UNL     1      -4.892   0.307   4.231  0.00  0.00    -0.251 OA
ATOM     17  N   UNL     1      -5.040  -1.024   6.053  0.00  0.00    -0.284 N 
ATOM     18  H   UNL     1      -6.003  -1.054   6.167  0.00  0.00    +0.151 HD
ENDBRANCH   1  14
BRANCH   2  19
ATOM     19  C   UNL     1      -0.914   0.173   2.173  0.00  0.00    +0.021 C 
BRANCH  19  26
ATOM     20  C   UNL     1      -2.356  -0.342   0.289  0.00  0.00    -0.077 C 
ATOM     21  C   UNL     1      -2.233  -0.322  -1.214  0.00  0.00    -0.019 C 
ATOM     22  C   UNL     1      -2.439  -1.721  -1.818  0.00  0.00    -0.002 C 
ATOM     23  C   UNL     1      -1.748  -2.817  -0.982  0.00  0.00    -0.001 C 
ATOM     24  C   UNL     1      -0.382  -2.403  -0.499  0.00  0.00    -0.011 C 
ATOM     25  C   UNL     1      -0.512  -1.783   0.910  0.00  0.00    -0.037 C 
ATOM     26  N   UNL     1      -0.965  -0.439   0.833  0.00  0.00    +0.390 N 
ATOM     27  H   UNL     1      -0.336   0.077   0.207  0.00  0.00    -0.080 HD
BRANCH  25  28
ATOM     28  C   UNL     1       0.842  -1.777   1.571  0.00  0.00    -0.061 A 
ATOM     29  C   UNL     1       1.745  -0.769   1.285  0.00  0.00    +0.005 A 
ATOM     30  C   UNL     1       2.985  -0.758   1.894  0.00  0.00    +0.046 A 
ATOM     31  C   UNL     1       3.328  -1.765   2.785  0.00  0.00    +0.120 A 
ATOM     32  C   UNL     1       2.422  -2.778   3.066  0.00  0.00    +0.046 A 
ATOM     33  C   UNL     1       1.181  -2.781   2.458  0.00  0.00    +0.005 A 
BRANCH  31  34
ATOM     34  O   UNL     1       4.549  -1.759   3.382  0.00  0.00    -0.495 OA
ATOM     35  C   UNL     1       5.430  -0.686   3.045  0.00  0.00    +0.277 C 
ENDBRANCH  31  34
ENDBRANCH  25  28
ENDBRANCH  19  26
ENDBRANCH   2  19
TORSDOF 5
