REMARK  Name = ZINC13382268
REMARK  4 active torsions:
REMARK  status: ('A' for Active; 'I' for Inactive)
REMARK    1  A    between atoms: C_1  and  C_2
REMARK    2  A    between atoms: C_3  and  O_23
REMARK    3  A    between atoms: N_12  and  N_13
REMARK    4  A    between atoms: C_14  and  C_16
REMARK                            x       y       z     vdW  Elec       q    Type
REMARK                         _______ _______ _______ _____ _____    ______ ____
ROOT
ATOM      1  C   UNL     1      -5.041   9.744   0.575  0.00  0.00    +0.048 C 
ATOM      2  C   UNL     1      -5.028   8.260   0.308  0.00  0.00    -0.005 A 
ATOM      3  C   UNL     1      -6.221   7.590   0.076  0.00  0.00    +0.120 A 
ATOM      4  C   UNL     1      -6.220   6.223  -0.169  0.00  0.00    +0.046 A 
ATOM      5  C   UNL     1      -5.030   5.528  -0.181  0.00  0.00    +0.013 A 
ATOM      6  C   UNL     1      -3.829   6.200   0.054  0.00  0.00    +0.001 A 
ATOM      7  C   UNL     1      -3.828   7.574   0.298  0.00  0.00    -0.032 A 
ATOM      8  C   UNL     1      -2.552   8.330   0.547  0.00  0.00    +0.036 C 
ATOM      9  C   UNL     1      -1.445   7.402   1.038  0.00  0.00    +0.011 C 
ATOM     10  C   UNL     1      -1.269   6.248   0.048  0.00  0.00    +0.058 C 
ATOM     11  C   UNL     1      -2.556   5.449   0.044  0.00  0.00    +0.067 C 
ATOM     12  N   UNL     1      -2.541   4.151   0.037  0.00  0.00    -0.184 NA
ENDROOT
BRANCH  12  13
ATOM     13  N   UNL     1      -1.320   3.464   0.027  0.00  0.00    -0.203 N 
ATOM     14  C   UNL     1      -1.305   2.116   0.020  0.00  0.00    +0.263 C 
ATOM     15  O   UNL     1      -2.351   1.497   0.021  0.00  0.00    -0.268 OA
ATOM     16  H   UNL     1      -0.486   3.959   0.026  0.00  0.00    +0.178 HD
BRANCH  14  17
ATOM     17  C   UNL     1      -0.017   1.392   0.010  0.00  0.00    +0.041 A 
ATOM     18  C   UNL     1       0.002  -0.004   0.002  0.00  0.00    +0.013 A 
ATOM     19  C   UNL     1       1.207  -0.675  -0.013  0.00  0.00    +0.004 A 
ATOM     20  C   UNL     1       2.397   0.031  -0.021  0.00  0.00    +0.038 A 
ATOM     21  C   UNL     1       2.386   1.417  -0.013  0.00  0.00    +0.124 A 
ATOM     22  C   UNL     1       1.185   2.100   0.002  0.00  0.00    +0.051 A 
ATOM     23  F   UNL     1       3.552   2.100  -0.021  0.00  0.00    -0.205 F 
ENDBRANCH  14  17
ENDBRANCH  12  13
BRANCH   3  24
ATOM     24  O   UNL     1      -7.394   8.274   0.089  0.00  0.00    -0.506 OA
ATOM     25  H   UNL     1      -7.652   8.628  -0.773  0.00  0.00    +0.292 HD
ENDBRANCH   3  24
TORSDOF 3
