REMARK  Name = ZINC42870523
REMARK  6 active torsions:
REMARK  status: ('A' for Active; 'I' for Inactive)
REMARK    1  A    between atoms: C_1  and  C_2
REMARK    2  A    between atoms: C_8  and  C_10
REMARK    3  A    between atoms: C_10  and  N_11
REMARK    4  A    between atoms: N_14  and  C_15
REMARK    5  A    between atoms: N_14  and  C_19
REMARK    6  A    between atoms: C_15  and  C_16
REMARK                            x       y       z     vdW  Elec       q    Type
REMARK                         _______ _______ _______ _____ _____    ______ ____
ROOT
ATOM      1  N   UNL     1       0.663  -0.600   3.684  0.00  0.00    -0.299 N 
ATOM      2  C   UNL     1       0.197  -0.304   4.914  0.00  0.00    +0.303 C 
ATOM      3  O   UNL     1      -0.752   0.446   5.041  0.00  0.00    -0.253 OA
ATOM      4  N   UNL     1       0.783  -0.840   6.003  0.00  0.00    -0.272 N 
ATOM      5  H   UNL     1       1.420  -1.198   3.583  0.00  0.00    +0.150 HD
ENDROOT
BRANCH   4   6
ATOM      6  C   UNL     1       0.276  -0.518   7.340  0.00  0.00    +0.078 C 
ATOM      7  C   UNL     1      -1.217  -0.893   7.444  0.00  0.00    +0.022 C 
ATOM      8  C   UNL     1      -1.830   0.229   8.317  0.00  0.00    +0.002 C 
ATOM      9  C   UNL     1      -1.074   1.491   7.833  0.00  0.00    +0.002 C 
ATOM     10  C   UNL     1       0.367   0.998   7.588  0.00  0.00    +0.022 C 
ENDBRANCH   4   6
BRANCH   1  11
ATOM     11  C   UNL     1       0.026  -0.018   2.500  0.00  0.00    +0.109 C 
BRANCH  11  18
ATOM     12  C   UNL     1      -0.019   1.526   0.010  0.00  0.00    +0.008 C 
ATOM     13  C   UNL     1       0.002  -0.004   0.002  0.00  0.00    -0.010 C 
ATOM     14  C   UNL     1       0.718  -0.497  -1.257  0.00  0.00    +0.003 C 
ATOM     15  C   UNL     1       2.154   0.032  -1.268  0.00  0.00    +0.000 C 
ATOM     16  C   UNL     1       2.894  -0.475  -0.028  0.00  0.00    +0.000 C 
ATOM     17  C   UNL     1       2.178   0.019   1.231  0.00  0.00    +0.005 C 
ATOM     18  C   UNL     1       0.742  -0.511   1.242  0.00  0.00    +0.009 C 
ENDBRANCH  11  18
ENDBRANCH   1  11
BRANCH   4  19
ATOM     19  C   UNL     1       1.926  -1.743   5.851  0.00  0.00    +0.234 C 
BRANCH  19  20
ATOM     20  C   UNL     1       3.203  -0.944   5.867  0.00  0.00    +0.373 C 
ATOM     21  O   UNL     1       3.163   0.268   5.995  0.00  0.00    -0.245 OA
ATOM     22  O   UNL     1       4.278  -1.509   5.753  0.00  0.00    -0.245 OA
ENDBRANCH  19  20
ENDBRANCH   4  19
TORSDOF 5
