REMARK  Name = ZINC17148925
REMARK  8 active torsions:
REMARK  status: ('A' for Active; 'I' for Inactive)
REMARK    1  A    between atoms: C_3  and  C_8
REMARK    2  A    between atoms: C_4  and  O_7
REMARK    3  A    between atoms: N_9  and  C_10
REMARK    4  A    between atoms: C_13  and  S_16
REMARK    5  A    between atoms: S_16  and  C_19
REMARK    6  A    between atoms: C_22  and  N_25
REMARK    7  A    between atoms: C_26  and  C_27
REMARK    8  A    between atoms: C_28  and  O_33
REMARK                            x       y       z     vdW  Elec       q    Type
REMARK                         _______ _______ _______ _____ _____    ______ ____
ROOT
ATOM      1  S   UNL     1       9.856   4.548  -0.069  0.00  0.00    +0.025 S 
ATOM      2  O   UNL     1      10.861   3.661   0.402  0.00  0.00    -0.164 OA
ATOM      3  O   UNL     1       9.939   5.189  -1.335  0.00  0.00    -0.164 OA
ENDROOT
BRANCH   1   7
ATOM      4  C   UNL     1       5.963   2.230  -0.044  0.00  0.00    +0.064 A 
ATOM      5  C   UNL     1       6.119   3.330  -0.890  0.00  0.00    +0.029 A 
ATOM      6  C   UNL     1       7.306   4.031  -0.892  0.00  0.00    +0.029 A 
ATOM      7  C   UNL     1       8.342   3.647  -0.059  0.00  0.00    +0.094 A 
ATOM      8  C   UNL     1       8.195   2.558   0.781  0.00  0.00    +0.029 A 
ATOM      9  C   UNL     1       7.011   1.851   0.798  0.00  0.00    +0.029 A 
BRANCH   4  11
ATOM     10  C   UNL     1       3.650   2.166  -0.022  0.00  0.00    +0.123 C 
ATOM     11  N   UNL     1       4.787   1.530  -0.036  0.00  0.00    -0.255 NA
BRANCH  10  14
ATOM     12  C   UNL     1      -0.017   1.381   0.010  0.00  0.00    +0.001 A 
ATOM     13  C   UNL     1       1.164   2.092   0.002  0.00  0.00    +0.013 A 
ATOM     14  C   UNL     1       2.386   1.414  -0.013  0.00  0.00    +0.034 A 
ATOM     15  C   UNL     1       2.400   0.011  -0.021  0.00  0.00    +0.125 A 
ATOM     16  C   UNL     1       1.203  -0.688  -0.013  0.00  0.00    +0.046 A 
ATOM     17  C   UNL     1       0.002  -0.004   0.002  0.00  0.00    +0.004 A 
BRANCH  15  18
ATOM     18  O   UNL     1       3.580  -0.660  -0.036  0.00  0.00    -0.506 OA
ATOM     19  H   UNL     1       3.930  -0.859   0.843  0.00  0.00    +0.292 HD
ENDBRANCH  15  18
ENDBRANCH  10  14
ENDBRANCH   4  11
ENDBRANCH   1   7
BRANCH   1  20
ATOM     20  C   UNL     1       9.709   5.827   1.134  0.00  0.00    +0.094 A 
ATOM     21  C   UNL     1       9.203   7.062   0.769  0.00  0.00    +0.029 A 
ATOM     22  C   UNL     1       9.084   8.067   1.706  0.00  0.00    +0.029 A 
ATOM     23  C   UNL     1       9.478   7.837   3.026  0.00  0.00    +0.064 A 
ATOM     24  C   UNL     1       9.989   6.588   3.388  0.00  0.00    +0.029 A 
ATOM     25  C   UNL     1      10.096   5.590   2.441  0.00  0.00    +0.029 A 
BRANCH  23  26
ATOM     26  N   UNL     1       9.364   8.830   3.961  0.00  0.00    -0.255 NA
ATOM     27  C   UNL     1       8.871   8.563   5.138  0.00  0.00    +0.123 C 
BRANCH  27  28
ATOM     28  C   UNL     1       8.748   9.630   6.142  0.00  0.00    +0.034 A 
ATOM     29  C   UNL     1       9.155  10.938   5.836  0.00  0.00    +0.125 A 
ATOM     30  C   UNL     1       9.035  11.935   6.790  0.00  0.00    +0.046 A 
ATOM     31  C   UNL     1       8.517  11.643   8.037  0.00  0.00    +0.004 A 
ATOM     32  C   UNL     1       8.114  10.354   8.344  0.00  0.00    +0.001 A 
ATOM     33  C   UNL     1       8.220   9.350   7.406  0.00  0.00    +0.013 A 
BRANCH  29  34
ATOM     34  O   UNL     1       9.665  11.225   4.611  0.00  0.00    -0.506 OA
ATOM     35  H   UNL     1       9.000  11.492   3.961  0.00  0.00    +0.292 HD
ENDBRANCH  29  34
ENDBRANCH  27  28
ENDBRANCH  23  26
ENDBRANCH   1  20
TORSDOF 8
