REMARK  Name = ZINC13032760
REMARK  10 active torsions:
REMARK  status: ('A' for Active; 'I' for Inactive)
REMARK    1  A    between atoms: C_1  and  O_2
REMARK    2  A    between atoms: O_2  and  C_3
REMARK    3  A    between atoms: C_8  and  C_15
REMARK    4  A    between atoms: C_15  and  N_61
REMARK    5  A    between atoms: C_16  and  C_17
REMARK    6  A    between atoms: C_16  and  N_61
REMARK    7  A    between atoms: C_24  and  C_25
REMARK    8  A    between atoms: C_24  and  N_61
REMARK    9  A    between atoms: N_29  and  C_30
REMARK   10  A    between atoms: C_30  and  C_31
REMARK                            x       y       z     vdW  Elec       q    Type
REMARK                         _______ _______ _______ _____ _____    ______ ____
ROOT
ATOM      1  N   UNL     1       2.230   1.749   8.556  0.00  0.00    +0.390 N 
ATOM      2  H   UNL     1       2.740   2.134   7.752  0.00  0.00    -0.080 HD
ENDROOT
BRANCH   1   3
ATOM      3  C   UNL     1       1.617   0.462   8.164  0.00  0.00    -0.036 C 
BRANCH   3   9
ATOM      4  C   UNL     1      -0.917   1.023   2.212  0.00  0.00    +0.122 A 
ATOM      5  C   UNL     1       0.397   0.572   2.100  0.00  0.00    +0.046 A 
ATOM      6  C   UNL     1       1.160   0.375   3.213  0.00  0.00    +0.013 A 
ATOM      7  C   UNL     1       0.617   0.619   4.481  0.00  0.00    -0.001 A 
ATOM      8  C   UNL     1       1.408   0.413   5.694  0.00  0.00    +0.017 A 
ATOM      9  C   UNL     1       0.830   0.664   6.895  0.00  0.00    +0.001 A 
ATOM     10  C   UNL     1      -0.504   1.115   6.962  0.00  0.00    +0.251 A 
ATOM     11  O   UNL     1      -1.003   1.336   8.052  0.00  0.00    -0.268 OA
ATOM     12  N   UNL     1      -1.240   1.308   5.853  0.00  0.00    -0.322 N 
ATOM     13  H   UNL     1      -2.155   1.619   5.935  0.00  0.00    +0.169 HD
ATOM     14  C   UNL     1      -0.712   1.070   4.601  0.00  0.00    +0.053 A 
ATOM     15  C   UNL     1      -1.472   1.270   3.456  0.00  0.00    +0.072 A 
BRANCH   4  17
ATOM     16  C   UNL     1      -1.029   0.946  -0.160  0.00  0.00    +0.277 C 
ATOM     17  O   UNL     1      -1.660   1.218   1.093  0.00  0.00    -0.495 OA
ENDBRANCH   4  17
ENDBRANCH   3   9
ENDBRANCH   1   3
BRANCH   1  18
ATOM     18  C   UNL     1       1.179   2.706   8.961  0.00  0.00    -0.042 C 
BRANCH  18  19
ATOM     19  C   UNL     1       1.817   4.043   9.234  0.00  0.00    -0.064 A 
ATOM     20  C   UNL     1       2.130   4.408  10.531  0.00  0.00    +0.004 A 
ATOM     21  C   UNL     1       2.720   5.632  10.782  0.00  0.00    +0.038 A 
ATOM     22  C   UNL     1       2.987   6.499   9.736  0.00  0.00    +0.123 A 
ATOM     23  C   UNL     1       2.669   6.135   8.438  0.00  0.00    +0.038 A 
ATOM     24  C   UNL     1       2.084   4.908   8.189  0.00  0.00    +0.004 A 
ATOM     25  F   UNL     1       3.559   7.698   9.980  0.00  0.00    -0.205 F 
ENDBRANCH  18  19
ENDBRANCH   1  18
BRANCH   1  26
ATOM     26  C   UNL     1       3.179   1.538   9.669  0.00  0.00    +0.001 C 
BRANCH  26  27
ATOM     27  C   UNL     1       4.369   0.771   9.155  0.00  0.00    +0.135 A 
ATOM     28  N   UNL     1       4.532  -0.529   9.177  0.00  0.00    -0.115 NA
ATOM     29  N   UNL     1       5.674  -0.797   8.645  0.00  0.00    -0.023 NA
ATOM     30  N   UNL     1       6.248   0.299   8.290  0.00  0.00    -0.044 NA
ATOM     31  N   UNL     1       5.475   1.289   8.588  0.00  0.00    -0.227 N 
BRANCH  31  32
ATOM     32  C   UNL     1       5.749   2.709   8.353  0.00  0.00    +0.182 C 
BRANCH  32  33
ATOM     33  C   UNL     1       6.527   3.269   9.516  0.00  0.00    -0.026 A 
ATOM     34  C   UNL     1       5.858   3.820  10.593  0.00  0.00    +0.008 A 
ATOM     35  C   UNL     1       6.570   4.330  11.662  0.00  0.00    +0.038 A 
ATOM     36  C   UNL     1       7.954   4.299  11.649  0.00  0.00    +0.123 A 
ATOM     37  C   UNL     1       8.623   3.752  10.568  0.00  0.00    +0.038 A 
ATOM     38  C   UNL     1       7.909   3.238   9.502  0.00  0.00    +0.008 A 
ATOM     39  F   UNL     1       8.651   4.801  12.692  0.00  0.00    -0.205 F 
ENDBRANCH  32  33
ENDBRANCH  31  32
ENDBRANCH  26  27
ENDBRANCH   1  26
TORSDOF 9
