REMARK  Name = ZINC40481210
REMARK  8 active torsions:
REMARK  status: ('A' for Active; 'I' for Inactive)
REMARK    1  A    between atoms: C_1  and  C_2
REMARK    2  A    between atoms: C_2  and  C_3
REMARK    3  A    between atoms: C_3  and  C_4
REMARK    4  A    between atoms: C_4  and  C_5
REMARK    5  A    between atoms: C_4  and  C_6
REMARK    6  A    between atoms: C_4  and  N_20
REMARK    7  A    between atoms: N_8  and  C_9
REMARK    8  A    between atoms: C_10  and  C_17
REMARK                            x       y       z     vdW  Elec       q    Type
REMARK                         _______ _______ _______ _____ _____    ______ ____
ROOT
ATOM      1  C   UNL     1      -2.655  -2.980   0.333  0.00  0.00    +0.206 C 
ATOM      2  O   UNL     1      -3.450  -2.616   1.173  0.00  0.00    -0.277 OA
ATOM      3  N   UNL     1      -3.050  -3.804  -0.658  0.00  0.00    -0.285 N 
ATOM      4  H   UNL     1      -2.437  -4.031  -1.374  0.00  0.00    +0.155 HD
ENDROOT
BRANCH   3   5
ATOM      5  C   UNL     1      -4.340  -4.330  -0.653  0.00  0.00    +0.066 A 
ATOM      6  C   UNL     1      -4.538  -5.715  -0.769  0.00  0.00    +0.087 A 
ATOM      7  C   UNL     1      -5.838  -6.230  -0.763  0.00  0.00    +0.037 A 
ATOM      8  C   UNL     1      -6.914  -5.377  -0.643  0.00  0.00    +0.043 A 
ATOM      9  C   UNL     1      -6.715  -4.009  -0.528  0.00  0.00    +0.042 A 
ATOM     10  C   UNL     1      -5.437  -3.486  -0.527  0.00  0.00    +0.064 A 
ATOM     11 CL   UNL     1      -5.201  -1.773  -0.375  0.00  0.00    -0.082 Cl
ATOM     12 CL   UNL     1      -8.528  -6.018  -0.635  0.00  0.00    -0.083 Cl
BRANCH   6  13
ATOM     13  C   UNL     1      -3.384  -6.619  -0.898  0.00  0.00    +0.388 C 
ATOM     14  O   UNL     1      -3.562  -7.812  -1.103  0.00  0.00    -0.241 OA
ATOM     15  O   UNL     1      -2.247  -6.178  -0.799  0.00  0.00    -0.241 OA
ENDBRANCH   6  13
ENDBRANCH   3   5
BRANCH   1  16
ATOM     16  C   UNL     1      -1.224  -2.511   0.396  0.00  0.00    +0.005 C 
ATOM     17  C   UNL     1      -0.377  -3.555   1.126  0.00  0.00    -0.001 C 
BRANCH  16  18
ATOM     18  N   UNL     1      -0.708  -2.327  -0.967  0.00  0.00    +0.387 N 
ATOM     19  H   UNL     1       0.250  -2.013  -0.924  0.00  0.00    -0.089 HD
ATOM     20  H   UNL     1      -0.752  -3.204  -1.465  0.00  0.00    -0.089 HD
ATOM     21  H   UNL     1      -1.266  -1.638  -1.448  0.00  0.00    -0.089 HD
ENDBRANCH  16  18
BRANCH  16  22
ATOM     22  C   UNL     1      -1.156  -1.182   1.151  0.00  0.00    -0.004 C 
BRANCH  22  24
ATOM     23  C   UNL     1       0.344   0.686   1.862  0.00  0.00    +0.004 C 
ATOM     24  C   UNL     1       0.276  -0.643   1.108  0.00  0.00    -0.004 C 
ENDBRANCH  22  24
ENDBRANCH  16  22
ENDBRANCH   1  16
TORSDOF 6
