REMARK  Name = ZINC00864953
REMARK  11 active torsions:
REMARK  status: ('A' for Active; 'I' for Inactive)
REMARK    1  A    between atoms: C_1  and  C_2
REMARK    2  A    between atoms: C_2  and  C_39
REMARK    3  A    between atoms: C_6  and  C_24
REMARK    4  A    between atoms: C_12  and  C_16
REMARK    5  A    between atoms: C_16  and  C_18
REMARK    6  A    between atoms: C_26  and  O_34
REMARK    7  A    between atoms: C_27  and  O_32
REMARK    8  A    between atoms: C_28  and  O_30
REMARK    9  A    between atoms: O_30  and  C_31
REMARK   10  A    between atoms: O_32  and  C_33
REMARK   11  A    between atoms: O_34  and  C_35
REMARK                            x       y       z     vdW  Elec       q    Type
REMARK                         _______ _______ _______ _____ _____    ______ ____
ROOT
ATOM      1  C   UNL     1       6.135   4.278   1.314  0.00  0.00    +0.011 C 
ATOM      2  C   UNL     1       5.198   4.694   2.450  0.00  0.00    -0.023 C 
ATOM      3  C   UNL     1       3.782   4.886   1.909  0.00  0.00    +0.058 C 
ATOM      4  C   UNL     1       3.285   3.589   1.293  0.00  0.00    +0.017 C 
ATOM      5  C   UNL     1       3.668   2.404   1.799  0.00  0.00    +0.036 C 
ATOM      6  C   UNL     1       3.229   1.047   1.305  0.00  0.00    +0.136 C 
ATOM      7  N   UNL     1       2.536   1.063   0.035  0.00  0.00    -0.331 N 
ATOM      8  C   UNL     1       1.304   1.687  -0.104  0.00  0.00    +0.049 A 
ATOM      9  C   UNL     1       0.150   0.960  -0.370  0.00  0.00    +0.025 A 
ATOM     10  C   UNL     1      -1.065   1.607  -0.423  0.00  0.00    +0.013 A 
ATOM     11  C   UNL     1      -1.140   2.986  -0.200  0.00  0.00    +0.024 A 
ATOM     12  C   UNL     1       0.028   3.719   0.051  0.00  0.00    +0.036 A 
ATOM     13  C   UNL     1       1.241   3.064   0.080  0.00  0.00    +0.053 A 
ATOM     14  N   UNL     1       2.444   3.743   0.240  0.00  0.00    -0.316 N 
ATOM     15  C   UNL     1       4.567   2.354   2.890  0.00  0.00    +0.163 C 
ATOM     16  O   UNL     1       4.880   1.269   3.341  0.00  0.00    -0.292 OA
ATOM     17  C   UNL     1       5.147   3.589   3.511  0.00  0.00    +0.086 C 
ATOM     18  C   UNL     1       5.693   5.997   3.081  0.00  0.00    +0.011 C 
ATOM     19  H   UNL     1       2.939   0.630  -0.733  0.00  0.00    +0.147 HD
ATOM     20  H   UNL     1       2.700   4.373  -0.452  0.00  0.00    +0.152 HD
ENDROOT
BRANCH   6  21
ATOM     21  C   UNL     1       2.318   0.435   2.338  0.00  0.00    -0.016 A 
ATOM     22  C   UNL     1       1.132   1.062   2.670  0.00  0.00    +0.055 A 
ATOM     23  C   UNL     1       0.288   0.500   3.615  0.00  0.00    +0.165 A 
ATOM     24  C   UNL     1       0.642  -0.691   4.238  0.00  0.00    +0.204 A 
ATOM     25  C   UNL     1       1.838  -1.316   3.907  0.00  0.00    +0.165 A 
ATOM     26  C   UNL     1       2.674  -0.750   2.956  0.00  0.00    +0.055 A 
BRANCH  25  27
ATOM     27  O   UNL     1       2.188  -2.482   4.513  0.00  0.00    -0.491 OA
ATOM     28  C   UNL     1       3.432  -3.068   4.123  0.00  0.00    +0.277 C 
ENDBRANCH  25  27
BRANCH  24  29
ATOM     29  O   UNL     1      -0.181  -1.244   5.171  0.00  0.00    -0.488 OA
ATOM     30  C   UNL     1       0.023  -0.851   6.530  0.00  0.00    +0.277 C 
ENDBRANCH  24  29
BRANCH  23  31
ATOM     31  O   UNL     1      -0.881   1.115   3.937  0.00  0.00    -0.491 OA
ATOM     32  C   UNL     1      -1.122   2.396   3.351  0.00  0.00    +0.277 C 
ENDBRANCH  23  31
ENDBRANCH   6  21
BRANCH  11  33
ATOM     33  C   UNL     1      -2.445   3.669  -0.234  0.00  0.00    +0.193 C 
ATOM     34  O   UNL     1      -2.498   4.883  -0.186  0.00  0.00    -0.287 OA
BRANCH  33  35
ATOM     35  C   UNL     1      -3.691   2.879  -0.328  0.00  0.00    +0.022 A 
ATOM     36  C   UNL     1      -3.794   1.652   0.331  0.00  0.00    +0.012 A 
ATOM     37  C   UNL     1      -4.961   0.922   0.244  0.00  0.00    +0.001 A 
ATOM     38  C   UNL     1      -6.024   1.398  -0.503  0.00  0.00    +0.000 A 
ATOM     39  C   UNL     1      -5.927   2.610  -1.163  0.00  0.00    +0.001 A 
ATOM     40  C   UNL     1      -4.767   3.353  -1.080  0.00  0.00    +0.012 A 
ENDBRANCH  33  35
ENDBRANCH  11  33
TORSDOF 6
