REMARK  Name = ZINC37031158
REMARK  6 active torsions:
REMARK  status: ('A' for Active; 'I' for Inactive)
REMARK    1  A    between atoms: C_1  and  C_2
REMARK    2  A    between atoms: C_2  and  C_3
REMARK    3  A    between atoms: C_2  and  C_4
REMARK    4  A    between atoms: C_4  and  C_6
REMARK    5  A    between atoms: C_4  and  N_11
REMARK    6  A    between atoms: C_12  and  C_14
REMARK                            x       y       z     vdW  Elec       q    Type
REMARK                         _______ _______ _______ _____ _____    ______ ____
ROOT
ATOM      1  N   UNL     1       0.010  -0.012  -2.444  0.00  0.00    -0.309 N 
ATOM      2  C   UNL     1       0.274   1.216  -2.931  0.00  0.00    +0.200 C 
ATOM      3  O   UNL     1       1.099   1.920  -2.387  0.00  0.00    -0.278 OA
ATOM      4  H   UNL     1      -0.650  -0.575  -2.879  0.00  0.00    +0.149 HD
ENDROOT
BRANCH   2   5
ATOM      5  C   UNL     1      -0.455   1.715  -4.152  0.00  0.00    +0.017 C 
ATOM      6  C   UNL     1      -1.972   1.796  -3.865  0.00  0.00    -0.005 C 
ATOM      7  C   UNL     1      -2.394   3.077  -4.651  0.00  0.00    -0.026 C 
ATOM      8  C   UNL     1      -2.464   2.682  -6.127  0.00  0.00    +0.002 C 
ATOM      9  C   UNL     1      -2.458   3.923  -7.016  0.00  0.00    +0.000 C 
ATOM     10  C   UNL     1      -1.144   4.680  -6.798  0.00  0.00    -0.002 C 
ATOM     11  C   UNL     1      -1.088   5.144  -5.342  0.00  0.00    -0.015 C 
ATOM     12  C   UNL     1      -1.172   3.977  -4.375  0.00  0.00    -0.068 C 
ATOM     13  N   UNL     1      -0.005   3.086  -4.484  0.00  0.00    +0.389 N 
ATOM     14  H   UNL     1       0.711   3.377  -3.835  0.00  0.00    -0.084 HD
ATOM     15  H   UNL     1       0.356   3.108  -5.426  0.00  0.00    -0.084 HD
ENDBRANCH   2   5
BRANCH   1  16
ATOM     16  C   UNL     1       0.718  -0.497  -1.257  0.00  0.00    +0.112 C 
BRANCH  16  17
ATOM     17  C   UNL     1       0.739  -2.004  -1.265  0.00  0.00    +0.010 A 
ATOM     18  C   UNL     1       1.741  -2.846  -0.914  0.00  0.00    +0.013 A 
ATOM     19  C   UNL     1       1.533  -4.210  -1.002  0.00  0.00    +0.008 A 
ATOM     20  C   UNL     1       0.333  -4.665  -1.437  0.00  0.00    +0.045 A 
ATOM     21  S   UNL     1      -0.554  -3.144  -1.733  0.00  0.00    -0.100 S 
ENDBRANCH  16  17
BRANCH  16  23
ATOM     22  C   UNL     1      -0.019   1.526   0.010  0.00  0.00    +0.009 C 
ATOM     23  C   UNL     1       0.002  -0.004   0.002  0.00  0.00    +0.008 C 
ATOM     24  C   UNL     1      -1.433  -0.534   0.013  0.00  0.00    +0.009 C 
ENDBRANCH  16  23
ENDBRANCH   1  16
TORSDOF 4
