REMARK  Name = ZINC36207687
REMARK  12 active torsions:
REMARK  status: ('A' for Active; 'I' for Inactive)
REMARK    1  A    between atoms: C_1  and  C_2
REMARK    2  A    between atoms: C_7  and  C_8
REMARK    3  A    between atoms: C_17  and  C_19
REMARK    4  A    between atoms: C_19  and  N_20
REMARK    5  A    between atoms: N_20  and  C_21
REMARK    6  A    between atoms: N_20  and  C_24
REMARK    7  A    between atoms: C_21  and  C_22
REMARK    8  A    between atoms: C_24  and  C_25
REMARK    9  A    between atoms: C_25  and  C_27
REMARK   10  A    between atoms: C_25  and  O_36
REMARK   11  A    between atoms: C_27  and  O_28
REMARK   12  A    between atoms: O_28  and  C_29
REMARK                            x       y       z     vdW  Elec       q    Type
REMARK                         _______ _______ _______ _____ _____    ______ ____
ROOT
ATOM      1  C   UNL     1      -4.407   3.331   4.850  0.00  0.00    -0.003 C 
ENDROOT
BRANCH   1  11
ATOM      2  C   UNL     1      -1.083  -0.821   2.799  0.00  0.00    +0.004 A 
ATOM      3  C   UNL     1       0.068  -0.959   3.501  0.00  0.00    +0.056 A 
ATOM      4  S   UNL     1      -0.069   0.289   4.766  0.00  0.00    -0.076 S 
ATOM      5  C   UNL     1      -1.652   0.961   4.327  0.00  0.00    +0.116 A 
ATOM      6  C   UNL     1      -2.035   0.205   3.207  0.00  0.00    +0.080 A 
ATOM      7  C   UNL     1      -3.301   0.546   2.633  0.00  0.00    +0.260 A 
ATOM      8  O   UNL     1      -3.722  -0.056   1.660  0.00  0.00    -0.267 OA
ATOM      9  N   UNL     1      -4.020   1.542   3.183  0.00  0.00    -0.312 N 
ATOM     10  H   UNL     1      -4.878   1.778   2.799  0.00  0.00    +0.170 HD
ATOM     11  C   UNL     1      -3.567   2.223   4.267  0.00  0.00    +0.094 A 
ATOM     12  N   UNL     1      -2.420   1.929   4.819  0.00  0.00    -0.229 NA
BRANCH   2  19
ATOM     13  C   UNL     1      -1.254   0.335   0.152  0.00  0.00    +0.044 C 
ATOM     14  C   UNL     1      -1.450  -1.145   0.354  0.00  0.00    -0.043 A 
ATOM     15  C   UNL     1      -1.708  -1.963  -0.727  0.00  0.00    +0.004 A 
ATOM     16  C   UNL     1      -1.889  -3.322  -0.543  0.00  0.00    +0.000 A 
ATOM     17  C   UNL     1      -1.811  -3.870   0.725  0.00  0.00    +0.001 A 
ATOM     18  C   UNL     1      -1.554  -3.062   1.814  0.00  0.00    +0.009 A 
ATOM     19  C   UNL     1      -1.366  -1.693   1.634  0.00  0.00    -0.014 A 
ENDBRANCH   2  19
ENDBRANCH   1  11
BRANCH   1  20
ATOM     20  N   UNL     1      -3.714   3.914   6.006  0.00  0.00    +0.388 N 
ATOM     21  H   UNL     1      -3.493   3.186   6.669  0.00  0.00    -0.081 HD
BRANCH  20  22
ATOM     22  C   UNL     1      -2.473   4.561   5.559  0.00  0.00    -0.051 C 
BRANCH  22  23
ATOM     23  C   UNL     1      -2.797   5.604   4.520  0.00  0.00    -0.053 C 
ATOM     24  C   UNL     1      -2.422   6.846   4.701  0.00  0.00    +0.002 C 
ENDBRANCH  22  23
ENDBRANCH  20  22
BRANCH  20  25
ATOM     25  C   UNL     1      -4.582   4.911   6.646  0.00  0.00    -0.043 C 
BRANCH  25  26
ATOM     26  C   UNL     1      -3.930   5.400   7.941  0.00  0.00    +0.135 C 
BRANCH  26  27
ATOM     27  O   UNL     1      -3.829   4.313   8.863  0.00  0.00    -0.390 OA
ATOM     28  H   UNL     1      -4.679   3.919   9.102  0.00  0.00    +0.210 HD
ENDBRANCH  26  27
BRANCH  26  29
ATOM     29  C   UNL     1      -4.785   6.511   8.555  0.00  0.00    +0.258 C 
BRANCH  29  30
ATOM     30  O   UNL     1      -4.119   7.047   9.699  0.00  0.00    -0.489 OA
BRANCH  30  31
ATOM     31  C   UNL     1      -4.748   8.050  10.366  0.00  0.00    +0.121 A 
ATOM     32  C   UNL     1      -5.984   8.505   9.930  0.00  0.00    +0.047 A 
ATOM     33  C   UNL     1      -6.622   9.525  10.609  0.00  0.00    +0.023 A 
ATOM     34  C   UNL     1      -6.029  10.093  11.723  0.00  0.00    +0.041 A 
ATOM     35  C   UNL     1      -4.796   9.641  12.158  0.00  0.00    +0.023 A 
ATOM     36  C   UNL     1      -4.158   8.617  11.486  0.00  0.00    +0.047 A 
ATOM     37 CL   UNL     1      -6.833  11.375  12.573  0.00  0.00    -0.084 Cl
ENDBRANCH  30  31
ENDBRANCH  29  30
ENDBRANCH  26  29
ENDBRANCH  25  26
ENDBRANCH  20  25
ENDBRANCH   1  20
TORSDOF 11
