REMARK  Name = ZINC19077590
REMARK  9 active torsions:
REMARK  status: ('A' for Active; 'I' for Inactive)
REMARK    1  A    between atoms: C_1  and  C_2
REMARK    2  A    between atoms: C_5  and  C_35
REMARK    3  A    between atoms: N_8  and  S_10
REMARK    4  A    between atoms: S_10  and  C_13
REMARK    5  A    between atoms: C_16  and  C_19
REMARK    6  A    between atoms: C_19  and  O_21
REMARK    7  A    between atoms: O_21  and  C_22
REMARK    8  A    between atoms: C_22  and  C_23
REMARK    9  A    between atoms: N_25  and  C_26
REMARK                            x       y       z     vdW  Elec       q    Type
REMARK                         _______ _______ _______ _____ _____    ______ ____
ROOT
ATOM      1  C   UNL     1      -4.030   3.733   0.059  0.00  0.00    +0.106 A 
ATOM      2  C   UNL     1      -4.633   3.387  -1.137  0.00  0.00    +0.029 A 
ATOM      3  C   UNL     1      -5.801   2.652  -1.137  0.00  0.00    +0.017 A 
ATOM      4  C   UNL     1      -6.380   2.267   0.074  0.00  0.00    +0.059 A 
ATOM      5  C   UNL     1      -5.768   2.624   1.278  0.00  0.00    +0.017 A 
ATOM      6  C   UNL     1      -4.598   3.355   1.263  0.00  0.00    +0.029 A 
ENDROOT
BRANCH   1   7
ATOM      7  S   UNL     1      -2.535   4.666   0.050  0.00  0.00    +0.061 S 
ATOM      8  O   UNL     1      -2.466   5.334   1.302  0.00  0.00    -0.153 OA
ATOM      9  O   UNL     1      -2.499   5.362  -1.188  0.00  0.00    -0.153 OA
BRANCH   7  15
ATOM     10  C   UNL     1      -2.192   1.078  -1.229  0.00  0.00    +0.009 C 
ATOM     11  C   UNL     1      -0.746   1.577  -1.259  0.00  0.00    +0.002 C 
ATOM     12  C   UNL     1      -0.002   1.062  -0.025  0.00  0.00    +0.009 C 
ATOM     13  C   UNL     1      -0.712   1.548   1.240  0.00  0.00    +0.002 C 
ATOM     14  C   UNL     1      -0.699   3.080   1.272  0.00  0.00    +0.112 C 
ATOM     15  N   UNL     1      -1.282   3.583   0.021  0.00  0.00    -0.176 NA
ATOM     16  C   UNL     1      -0.733   3.108  -1.256  0.00  0.00    +0.112 C 
ATOM     17  C   UNL     1       0.013   1.006   2.474  0.00  0.00    +0.009 C 
ENDBRANCH   7  15
ENDBRANCH   1   7
BRANCH   4  18
ATOM     18  C   UNL     1      -7.633   1.485   0.082  0.00  0.00    +0.340 C 
ATOM     19  O   UNL     1      -8.134   1.151   1.137  0.00  0.00    -0.245 OA
BRANCH  18  20
ATOM     20  O   UNL     1      -8.220   1.142  -1.081  0.00  0.00    -0.452 OA
BRANCH  20  21
ATOM     21  C   UNL     1      -9.449   0.373  -0.997  0.00  0.00    +0.328 C 
BRANCH  21  22
ATOM     22  C   UNL     1      -9.957   0.085  -2.386  0.00  0.00    +0.255 C 
ATOM     23  O   UNL     1      -9.343   0.487  -3.352  0.00  0.00    -0.272 OA
ATOM     24  N   UNL     1     -11.092  -0.621  -2.556  0.00  0.00    -0.281 N 
ATOM     25  H   UNL     1     -11.548  -0.999  -1.787  0.00  0.00    +0.155 HD
BRANCH  24  26
ATOM     26  C   UNL     1     -11.614  -0.807  -3.838  0.00  0.00    +0.062 A 
ATOM     27  C   UNL     1     -10.775  -0.954  -4.900  0.00  0.00    +0.025 A 
ATOM     28  C   UNL     1     -11.264  -1.141  -6.191  0.00  0.00    +0.004 A 
ATOM     29  C   UNL     1     -12.594  -1.187  -6.448  0.00  0.00    +0.031 A 
ATOM     30  C   UNL     1     -13.530  -1.042  -5.391  0.00  0.00    +0.102 A 
ATOM     31  C   UNL     1     -13.024  -0.850  -4.035  0.00  0.00    +0.121 A 
ATOM     32  N   UNL     1     -14.007  -0.734  -3.146  0.00  0.00    -0.189 NA
ATOM     33  S   UNL     1     -15.345  -0.862  -3.953  0.00  0.00    +0.117 S 
ATOM     34  N   UNL     1     -14.861  -1.056  -5.431  0.00  0.00    -0.191 NA
ENDBRANCH  24  26
ENDBRANCH  21  22
ENDBRANCH  20  21
ENDBRANCH  18  20
ENDBRANCH   4  18
TORSDOF 7
