REMARK  Name = ZINC20005479
REMARK  6 active torsions:
REMARK  status: ('A' for Active; 'I' for Inactive)
REMARK    1  A    between atoms: C_1  and  C_2
REMARK    2  A    between atoms: C_5  and  C_8
REMARK    3  A    between atoms: C_8  and  S_9
REMARK    4  A    between atoms: S_9  and  C_10
REMARK    5  A    between atoms: C_16  and  C_18
REMARK    6  A    between atoms: C_23  and  C_27
REMARK                            x       y       z     vdW  Elec       q    Type
REMARK                         _______ _______ _______ _____ _____    ______ ____
ROOT
ATOM      1  C   UNL     1       1.632  -6.614  -0.043  0.00  0.00    +0.160 A 
ATOM      2  N   UNL     1       0.545  -7.363  -0.047  0.00  0.00    -0.133 NA
ATOM      3  N   UNL     1       0.660  -8.734  -0.054  0.00  0.00    -0.125 NA
ATOM      4  C   UNL     1       1.855  -9.293  -0.058  0.00  0.00    +0.189 A 
ATOM      5  S   UNL     1       2.916  -7.856  -0.057  0.00  0.00    -0.024 S 
ATOM      6  N   UNL     1       2.197 -10.642  -0.065  0.00  0.00    -0.258 N 
ATOM      7  C   UNL     1       1.231 -11.582  -0.070  0.00  0.00    +0.270 C 
ATOM      8  O   UNL     1       0.061 -11.252  -0.069  0.00  0.00    -0.268 OA
ATOM      9  H   UNL     1       3.130 -10.905  -0.066  0.00  0.00    +0.157 HD
ENDROOT
BRANCH   7  10
ATOM     10  C   UNL     1       1.594 -13.012  -0.078  0.00  0.00    +0.144 A 
ATOM     11  C   UNL     1       0.719 -14.061  -0.090  0.00  0.00    +0.125 A 
ATOM     12  N   UNL     1       1.462 -15.203  -0.095  0.00  0.00    -0.306 N 
ATOM     13  C   UNL     1       1.117 -16.525  -0.106  0.00  0.00    +0.093 A 
ATOM     14  C   UNL     1       2.066 -17.483  -0.109  0.00  0.00    +0.021 A 
ATOM     15  C   UNL     1       3.428 -17.134  -0.100  0.00  0.00    -0.046 A 
ATOM     16  C   UNL     1       3.787 -15.823  -0.088  0.00  0.00    +0.050 A 
ATOM     17  C   UNL     1       2.784 -14.830  -0.086  0.00  0.00    +0.139 A 
ATOM     18  N   UNL     1       2.845 -13.509  -0.081  0.00  0.00    -0.223 NA
ATOM     19  C   UNL     1       4.484 -18.209  -0.102  0.00  0.00    +0.044 C 
ENDBRANCH   7  10
BRANCH   1  20
ATOM     20  S   UNL     1       1.777  -4.858  -0.034  0.00  0.00    -0.092 S 
BRANCH  20  21
ATOM     21  C   UNL     1       0.059  -4.275  -0.021  0.00  0.00    +0.111 C 
BRANCH  21  26
ATOM     22  C   UNL     1      -0.018   1.503   0.010  0.00  0.00    +0.044 C 
ATOM     23  C   UNL     1       0.002  -0.004   0.002  0.00  0.00    -0.050 A 
ATOM     24  C   UNL     1       0.006  -0.689  -1.199  0.00  0.00    +0.003 A 
ATOM     25  C   UNL     1       0.025  -2.071  -1.206  0.00  0.00    +0.005 A 
ATOM     26  C   UNL     1       0.040  -2.768  -0.013  0.00  0.00    -0.037 A 
ATOM     27  C   UNL     1       0.037  -2.084   1.188  0.00  0.00    +0.005 A 
ATOM     28  C   UNL     1       0.023  -0.702   1.195  0.00  0.00    +0.003 A 
ENDBRANCH  21  26
ENDBRANCH  20  21
ENDBRANCH   1  20
TORSDOF 4
