REMARK  Name = ZINC39674419
REMARK  8 active torsions:
REMARK  status: ('A' for Active; 'I' for Inactive)
REMARK    1  A    between atoms: C_1  and  C_2
REMARK    2  A    between atoms: C_7  and  C_8
REMARK    3  A    between atoms: C_12  and  C_21
REMARK    4  A    between atoms: N_23  and  C_24
REMARK    5  A    between atoms: C_24  and  C_26
REMARK    6  A    between atoms: C_24  and  C_27
REMARK    7  A    between atoms: C_28  and  C_34
REMARK    8  A    between atoms: C_31  and  C_33
REMARK                            x       y       z     vdW  Elec       q    Type
REMARK                         _______ _______ _______ _____ _____    ______ ____
ROOT
ATOM      1  C   UNL     1       0.134  -1.978   0.931  0.00  0.00    +0.247 C 
ATOM      2  O   UNL     1      -0.174  -0.810   0.794  0.00  0.00    -0.270 OA
ATOM      3  N   UNL     1       0.245  -2.505   2.167  0.00  0.00    -0.296 N 
ATOM      4  C   UNL     1       0.718  -3.859   2.537  0.00  0.00    +0.121 C 
ATOM      5  C   UNL     1       1.563  -3.642   3.812  0.00  0.00    +0.100 C 
ATOM      6  C   UNL     1       1.034  -2.330   4.415  0.00  0.00    -0.004 C 
ATOM      7  C   UNL     1      -0.074  -1.858   3.462  0.00  0.00    +0.115 C 
ATOM      8  C   UNL     1       2.147  -1.289   4.476  0.00  0.00    -0.010 C 
ATOM      9  C   UNL     1       1.611  -0.013   5.132  0.00  0.00    -0.082 C 
ATOM     10  N   UNL     1       1.127  -0.321   6.483  0.00  0.00    +0.379 N 
ATOM     11  C   UNL     1      -0.005  -1.252   6.409  0.00  0.00    -0.082 C 
ATOM     12  C   UNL     1       0.463  -2.580   5.808  0.00  0.00    -0.010 C 
ATOM     13  H   UNL     1       1.872  -0.741   7.018  0.00  0.00    -0.086 HD
ATOM     14  H   UNL     1       0.831   0.531   6.935  0.00  0.00    -0.086 HD
ENDROOT
BRANCH   1  21
ATOM     15  C   UNL     1       1.790  -0.964  -1.213  0.00  0.00    +0.044 C 
ATOM     16  C   UNL     1       1.184  -2.342  -1.298  0.00  0.00    -0.038 A 
ATOM     17  C   UNL     1       1.422  -3.134  -2.402  0.00  0.00    +0.007 A 
ATOM     18  C   UNL     1       0.868  -4.399  -2.483  0.00  0.00    +0.038 A 
ATOM     19  C   UNL     1       0.070  -4.878  -1.456  0.00  0.00    +0.124 A 
ATOM     20  C   UNL     1      -0.175  -4.094  -0.345  0.00  0.00    +0.051 A 
ATOM     21  C   UNL     1       0.387  -2.820  -0.257  0.00  0.00    +0.043 A 
ATOM     22  F   UNL     1      -0.468  -6.115  -1.542  0.00  0.00    -0.205 F 
ENDBRANCH   1  21
BRANCH   5  23
ATOM     23  C   UNL     1       3.022  -3.508   3.458  0.00  0.00    +0.219 C 
ATOM     24  O   UNL     1       3.345  -3.100   2.363  0.00  0.00    -0.275 OA
ATOM     25  N   UNL     1       3.967  -3.841   4.359  0.00  0.00    -0.309 N 
ATOM     26  H   UNL     1       3.709  -4.168   5.235  0.00  0.00    +0.149 HD
BRANCH  25  27
ATOM     27  C   UNL     1       5.386  -3.711   4.015  0.00  0.00    +0.100 C 
ATOM     28  C   UNL     1       5.867  -2.300   4.360  0.00  0.00    +0.033 C 
BRANCH  27  29
ATOM     29  C   UNL     1       6.187  -4.720   4.797  0.00  0.00    -0.001 C 
ATOM     30  C   UNL     1       6.987  -5.678   4.325  0.00  0.00    +0.063 C 
ATOM     31  N   UNL     1       7.535  -6.388   5.337  0.00  0.00    -0.159 NA
ATOM     32  N   UNL     1       7.196  -6.018   6.464  0.00  0.00    -0.180 NA
ATOM     33  C   UNL     1       6.276  -4.879   6.305  0.00  0.00    +0.154 C 
ATOM     34  C   UNL     1       4.904  -5.208   6.896  0.00  0.00    +0.039 C 
ATOM     35  C   UNL     1       7.245  -5.935   2.863  0.00  0.00    +0.067 C 
ENDBRANCH  27  29
ENDBRANCH  25  27
ENDBRANCH   5  23
TORSDOF 4
