REMARK  Name = ZINC32747298
REMARK  7 active torsions:
REMARK  status: ('A' for Active; 'I' for Inactive)
REMARK    1  A    between atoms: C_1  and  S_2
REMARK    2  A    between atoms: S_2  and  C_3
REMARK    3  A    between atoms: C_8  and  N_9
REMARK    4  A    between atoms: C_10  and  C_12
REMARK    5  A    between atoms: C_12  and  N_13
REMARK    6  A    between atoms: C_14  and  C_26
REMARK    7  A    between atoms: C_26  and  N_27
REMARK                            x       y       z     vdW  Elec       q    Type
REMARK                         _______ _______ _______ _____ _____    ______ ____
ROOT
ATOM      1  N   UNL     1       2.748   3.839   0.096  0.00  0.00    -0.289 N 
ATOM      2  C   UNL     1       3.449   3.906   1.257  0.00  0.00    +0.097 A 
ATOM      3  N   UNL     1       4.715   4.230   1.267  0.00  0.00    -0.228 NA
ATOM      4  C   UNL     1       5.355   4.515   0.136  0.00  0.00    +0.116 A 
ATOM      5  C   UNL     1       4.714   4.478  -1.109  0.00  0.00    +0.076 A 
ATOM      6  C   UNL     1       3.328   4.114  -1.088  0.00  0.00    +0.263 A 
ATOM      7  O   UNL     1       2.686   4.054  -2.123  0.00  0.00    -0.267 OA
ATOM      8  C   UNL     1       5.545   4.816  -2.275  0.00  0.00    -0.023 A 
ATOM      9  C   UNL     1       6.830   5.128  -2.034  0.00  0.00    -0.004 A 
ATOM     10  S   UNL     1       7.014   4.992  -0.271  0.00  0.00    -0.073 S 
ATOM     11  C   UNL     1       7.579   5.460  -3.296  0.00  0.00    +0.043 C 
ATOM     12  C   UNL     1       6.476   5.733  -4.342  0.00  0.00    +0.010 C 
ATOM     13  C   UNL     1       5.303   4.903  -3.784  0.00  0.00    +0.037 C 
ENDROOT
BRANCH   1  14
ATOM     14  C   UNL     1       1.332   3.467   0.132  0.00  0.00    +0.222 C 
BRANCH  14  16
ATOM     15  N   UNL     1      -0.017   1.397   0.010  0.00  0.00    -0.283 N 
ATOM     16  C   UNL     1       1.202   1.971   0.002  0.00  0.00    +0.237 C 
ATOM     17  O   UNL     1       2.196   1.284  -0.111  0.00  0.00    -0.274 OA
ATOM     18  H   UNL     1      -0.920   2.025   0.037  0.00  0.00    +0.155 HD
BRANCH  15  24
ATOM     19  C   UNL     1      -1.174  -0.627   0.669  0.00  0.00    +0.029 A 
ATOM     20  C   UNL     1      -1.285  -2.010   0.638  0.00  0.00    +0.016 A 
ATOM     21  C   UNL     1      -0.366  -2.761  -0.071  0.00  0.00    +0.001 A 
ATOM     22  C   UNL     1       0.664  -2.138  -0.751  0.00  0.00    +0.002 A 
ATOM     23  C   UNL     1       0.779  -0.760  -0.730  0.00  0.00    +0.024 A 
ATOM     24  C   UNL     1      -0.134   0.001  -0.017  0.00  0.00    +0.047 A 
BRANCH  19  26
ATOM     25  C   UNL     1      -3.474  -0.900   2.275  0.00  0.00    +0.090 C 
ATOM     26  S   UNL     1      -2.344   0.333   1.572  0.00  0.00    -0.127 S 
ENDBRANCH  19  26
ENDBRANCH  15  24
ENDBRANCH  14  16
ENDBRANCH   1  14
BRANCH   2  27
ATOM     27  C   UNL     1       2.755   3.595   2.558  0.00  0.00    -0.003 C 
BRANCH  27  28
ATOM     28  N   UNL     1       3.708   3.733   3.667  0.00  0.00    +0.384 N 
ATOM     29  C   UNL     1       4.768   2.720   3.579  0.00  0.00    -0.078 C 
ATOM     30  C   UNL     1       5.818   2.983   4.661  0.00  0.00    -0.019 C 
ATOM     31  C   UNL     1       5.150   2.932   6.037  0.00  0.00    -0.004 C 
ATOM     32  C   UNL     1       4.019   3.963   6.086  0.00  0.00    -0.019 C 
ATOM     33  C   UNL     1       3.021   3.671   4.963  0.00  0.00    -0.078 C 
ATOM     34  H   UNL     1       4.183   4.722   3.586  0.00  0.00    -0.081 HD
ENDBRANCH  27  28
ENDBRANCH   2  27
TORSDOF 6
