REMARK  Name = ZINC35594682
REMARK  11 active torsions:
REMARK  status: ('A' for Active; 'I' for Inactive)
REMARK    1  A    between atoms: C_1  and  C_2
REMARK    2  A    between atoms: C_2  and  C_3
REMARK    3  A    between atoms: C_2  and  N_4
REMARK    4  A    between atoms: C_5  and  C_7
REMARK    5  A    between atoms: C_7  and  N_8
REMARK    6  A    between atoms: C_11  and  C_21
REMARK    7  A    between atoms: N_13  and  C_14
REMARK    8  A    between atoms: C_21  and  C_22
REMARK    9  A    between atoms: C_21  and  C_23
REMARK   10  A    between atoms: C_21  and  C_24
REMARK   11  A    between atoms: C_25  and  C_31
REMARK                            x       y       z     vdW  Elec       q    Type
REMARK                         _______ _______ _______ _____ _____    ______ ____
ROOT
ATOM      1  N   UNL     1      -7.020   2.550  -0.961  0.00  0.00    -0.246 N 
ATOM      2  C   UNL     1      -6.943   2.549  -2.362  0.00  0.00    +0.136 A 
ATOM      3  C   UNL     1      -5.797   2.349  -3.053  0.00  0.00    +0.034 A 
ATOM      4  C   UNL     1      -6.101   2.409  -4.414  0.00  0.00    +0.075 A 
ATOM      5  N   UNL     1      -7.385   2.641  -4.537  0.00  0.00    -0.169 NA
ATOM      6  N   UNL     1      -7.944   2.737  -3.253  0.00  0.00    -0.218 N 
ATOM      7  C   UNL     1      -4.446   2.111  -2.428  0.00  0.00    +0.115 C 
ATOM      8  S   UNL     1      -4.412   0.417  -1.739  0.00  0.00    -0.138 S 
ATOM      9  C   UNL     1      -6.074   0.279  -1.000  0.00  0.00    +0.166 C 
ATOM     10  C   UNL     1      -6.442   1.549  -0.290  0.00  0.00    +0.231 C 
ATOM     11  O   UNL     1      -6.218   1.667   0.896  0.00  0.00    -0.274 OA
ENDROOT
BRANCH   6  12
ATOM     12  C   UNL     1      -9.291   2.982  -2.950  0.00  0.00    +0.069 A 
ATOM     13  C   UNL     1      -9.873   2.387  -1.839  0.00  0.00    +0.028 A 
ATOM     14  C   UNL     1     -11.199   2.630  -1.541  0.00  0.00    +0.003 A 
ATOM     15  C   UNL     1     -11.949   3.465  -2.350  0.00  0.00    +0.020 A 
ATOM     16  C   UNL     1     -11.373   4.059  -3.458  0.00  0.00    +0.043 A 
ATOM     17  C   UNL     1     -10.043   3.824  -3.757  0.00  0.00    +0.047 A 
ATOM     18 CL   UNL     1     -12.317   5.106  -4.471  0.00  0.00    -0.083 Cl
ENDBRANCH   6  12
BRANCH   7  19
ATOM     19  C   UNL     1      -3.372   2.256  -3.476  0.00  0.00    +0.005 A 
ATOM     20  C   UNL     1      -2.858   3.505  -3.771  0.00  0.00    +0.008 A 
ATOM     21  C   UNL     1      -1.873   3.638  -4.731  0.00  0.00    +0.000 A 
ATOM     22  C   UNL     1      -1.400   2.522  -5.398  0.00  0.00    +0.003 A 
ATOM     23  C   UNL     1      -1.912   1.273  -5.104  0.00  0.00    +0.038 A 
ATOM     24  C   UNL     1      -2.895   1.137  -4.138  0.00  0.00    +0.128 A 
ATOM     25  F   UNL     1      -3.393  -0.084  -3.846  0.00  0.00    -0.205 F 
ENDBRANCH   7  19
BRANCH   4  26
ATOM     26  C   UNL     1      -5.121   2.237  -5.546  0.00  0.00    +0.007 C 
ATOM     27  C   UNL     1      -4.370   0.915  -5.374  0.00  0.00    +0.017 C 
ATOM     28  C   UNL     1      -5.876   2.226  -6.876  0.00  0.00    +0.017 C 
ATOM     29  C   UNL     1      -4.122   3.396  -5.536  0.00  0.00    +0.017 C 
ENDBRANCH   4  26
BRANCH   1  30
ATOM     30  C   UNL     1      -7.714   3.627  -0.250  0.00  0.00    +0.210 C 
BRANCH  30  32
ATOM     31  N   UNL     1      -7.158   5.838   0.709  0.00  0.00    -0.312 N 
ATOM     32  C   UNL     1      -6.741   4.736   0.055  0.00  0.00    +0.231 C 
ATOM     33  O   UNL     1      -5.582   4.637  -0.288  0.00  0.00    -0.274 OA
ATOM     34  H   UNL     1      -8.085   5.917   0.984  0.00  0.00    +0.149 HD
BRANCH  31  36
ATOM     35  C   UNL     1      -6.109   7.851  -0.202  0.00  0.00    +0.027 C 
ATOM     36  C   UNL     1      -6.212   6.917   1.005  0.00  0.00    +0.067 C 
ATOM     37  C   UNL     1      -6.703   7.706   2.220  0.00  0.00    +0.027 C 
ENDBRANCH  31  36
ENDBRANCH  30  32
ENDBRANCH   1  30
TORSDOF 6
