REMARK  Name = ZINC12636858
REMARK  7 active torsions:
REMARK  status: ('A' for Active; 'I' for Inactive)
REMARK    1  A    between atoms: C_1  and  C_2
REMARK    2  A    between atoms: C_5  and  N_8
REMARK    3  A    between atoms: N_8  and  C_9
REMARK    4  A    between atoms: C_9  and  C_11
REMARK    5  A    between atoms: C_9  and  C_18
REMARK    6  A    between atoms: N_20  and  C_21
REMARK    7  A    between atoms: C_26  and  C_28
REMARK                            x       y       z     vdW  Elec       q    Type
REMARK                         _______ _______ _______ _____ _____    ______ ____
ROOT
ATOM      1  C   UNL     1      -1.295   1.721   0.015  0.00  0.00    +0.197 C 
ENDROOT
BRANCH   1   2
ATOM      2  C   UNL     1      -1.067   2.669  -1.134  0.00  0.00    -0.018 A 
ATOM      3  C   UNL     1      -1.460   2.313  -2.411  0.00  0.00    +0.009 A 
ATOM      4  C   UNL     1      -1.256   3.184  -3.465  0.00  0.00    +0.038 A 
ATOM      5  C   UNL     1      -0.649   4.408  -3.243  0.00  0.00    +0.123 A 
ATOM      6  C   UNL     1      -0.251   4.761  -1.965  0.00  0.00    +0.038 A 
ATOM      7  C   UNL     1      -0.461   3.891  -0.912  0.00  0.00    +0.009 A 
ATOM      8  F   UNL     1      -0.444   5.257  -4.274  0.00  0.00    -0.205 F 
ENDBRANCH   1   2
BRANCH   1   9
ATOM      9  C   UNL     1       0.031   1.198   0.505  0.00  0.00    +0.239 C 
ATOM     10  O   UNL     1       0.259   0.007   0.483  0.00  0.00    -0.273 OA
ATOM     11  N   UNL     1       0.965   2.054   0.964  0.00  0.00    -0.311 N 
ATOM     12  H   UNL     1       0.783   3.007   0.982  0.00  0.00    +0.149 HD
BRANCH  11  13
ATOM     13  C   UNL     1       2.256   1.547   1.434  0.00  0.00    +0.073 C 
ATOM     14  C   UNL     1       2.168   1.184   2.931  0.00  0.00    +0.022 C 
ATOM     15  C   UNL     1       3.546   1.597   3.505  0.00  0.00    +0.002 C 
ATOM     16  C   UNL     1       3.857   2.906   2.736  0.00  0.00    +0.002 C 
ATOM     17  C   UNL     1       3.330   2.642   1.310  0.00  0.00    +0.022 C 
ENDBRANCH  11  13
ENDBRANCH   1   9
BRANCH   1  18
ATOM     18  N   UNL     1      -2.126   0.601  -0.433  0.00  0.00    -0.250 N 
ATOM     19  C   UNL     1      -3.368   0.442   0.067  0.00  0.00    +0.272 C 
ATOM     20  O   UNL     1      -4.109  -0.401  -0.403  0.00  0.00    -0.268 OA
BRANCH  18  25
ATOM     21  C   UNL     1      -0.120  -3.063  -4.270  0.00  0.00    +0.044 C 
ATOM     22  C   UNL     1      -0.653  -2.090  -3.250  0.00  0.00    -0.050 A 
ATOM     23  C   UNL     1      -1.845  -2.354  -2.601  0.00  0.00    +0.005 A 
ATOM     24  C   UNL     1      -2.337  -1.464  -1.667  0.00  0.00    +0.024 A 
ATOM     25  C   UNL     1      -1.631  -0.302  -1.378  0.00  0.00    +0.038 A 
ATOM     26  C   UNL     1      -0.437  -0.038  -2.036  0.00  0.00    +0.024 A 
ATOM     27  C   UNL     1       0.051  -0.935  -2.965  0.00  0.00    +0.005 A 
ENDBRANCH  18  25
BRANCH  19  28
ATOM     28  C   UNL     1      -3.828   1.289   1.182  0.00  0.00    +0.157 A 
ATOM     29  C   UNL     1      -5.076   1.160   1.774  0.00  0.00    +0.101 A 
ATOM     30  S   UNL     1      -5.001   2.402   2.978  0.00  0.00    +0.029 S 
ATOM     31  N   UNL     1      -3.550   2.953   2.692  0.00  0.00    -0.110 NA
ATOM     32  N   UNL     1      -3.088   2.248   1.725  0.00  0.00    -0.136 NA
ENDBRANCH  19  28
ENDBRANCH   1  18
TORSDOF 6
