REMARK  Name = ZINC08622176
REMARK  11 active torsions:
REMARK  status: ('A' for Active; 'I' for Inactive)
REMARK    1  A    between atoms: C_1  and  C_2
REMARK    2  A    between atoms: C_2  and  C_4
REMARK    3  A    between atoms: C_2  and  S_16
REMARK    4  A    between atoms: N_6  and  C_7
REMARK    5  A    between atoms: C_10  and  N_13
REMARK    6  A    between atoms: N_13  and  C_14
REMARK    7  A    between atoms: N_13  and  C_15
REMARK    8  A    between atoms: S_16  and  C_17
REMARK    9  A    between atoms: C_21  and  C_24
REMARK   10  A    between atoms: N_31  and  C_32
REMARK   11  A    between atoms: C_32  and  C_33
REMARK                            x       y       z     vdW  Elec       q    Type
REMARK                         _______ _______ _______ _____ _____    ______ ____
ROOT
ATOM      1  C   UNL     1      -5.699   0.496   1.722  0.00  0.00    +0.174 A 
ATOM      2  N   UNL     1      -5.531  -0.451   0.821  0.00  0.00    -0.216 NA
ATOM      3  C   UNL     1      -4.561  -0.368  -0.083  0.00  0.00    +0.117 A 
ATOM      4  C   UNL     1      -3.674   0.721  -0.125  0.00  0.00    +0.083 A 
ATOM      5  C   UNL     1      -2.667   0.656  -1.181  0.00  0.00    +0.039 A 
ATOM      6  C   UNL     1      -2.668  -0.411  -2.017  0.00  0.00    +0.059 A 
ATOM      7  S   UNL     1      -4.025  -1.402  -1.421  0.00  0.00    -0.076 S 
ATOM      8  C   UNL     1      -3.880   1.732   0.864  0.00  0.00    +0.264 A 
ATOM      9  O   UNL     1      -3.156   2.713   0.903  0.00  0.00    -0.267 OA
ATOM     10  N   UNL     1      -4.881   1.587   1.751  0.00  0.00    -0.283 N 
ENDROOT
BRANCH   5  11
ATOM     11  C   UNL     1      -1.671   1.735  -1.339  0.00  0.00    +0.136 A 
ATOM     12  C   UNL     1      -0.325   1.569  -1.451  0.00  0.00    +0.050 A 
ATOM     13  C   UNL     1       0.233   2.857  -1.581  0.00  0.00    +0.042 A 
ATOM     14  C   UNL     1      -0.787   3.736  -1.543  0.00  0.00    +0.196 A 
ATOM     15  O   UNL     1      -1.937   3.054  -1.397  0.00  0.00    -0.463 OA
ENDBRANCH   5  11
BRANCH   1  16
ATOM     16  S   UNL     1      -6.997   0.350   2.905  0.00  0.00    -0.075 S 
BRANCH  16  18
ATOM     17  C   UNL     1      -8.310  -1.092   0.993  0.00  0.00    +0.029 C 
ATOM     18  C   UNL     1      -7.712  -1.232   2.394  0.00  0.00    +0.137 C 
BRANCH  18  19
ATOM     19  C   UNL     1      -8.794  -1.631   3.364  0.00  0.00    +0.230 C 
ATOM     20  O   UNL     1      -9.372  -0.783   4.010  0.00  0.00    -0.274 OA
ATOM     21  N   UNL     1      -9.119  -2.930   3.514  0.00  0.00    -0.285 N 
ATOM     22  H   UNL     1      -8.709  -3.601   2.946  0.00  0.00    +0.155 HD
BRANCH  21  23
ATOM     23  C   UNL     1     -10.050  -3.312   4.490  0.00  0.00    +0.034 A 
ATOM     24  C   UNL     1     -10.105  -2.632   5.700  0.00  0.00    +0.025 A 
ATOM     25  C   UNL     1     -11.026  -3.004   6.659  0.00  0.00    +0.025 A 
ATOM     26  C   UNL     1     -11.889  -4.065   6.418  0.00  0.00    +0.029 A 
ATOM     27  C   UNL     1     -11.830  -4.748   5.210  0.00  0.00    +0.025 A 
ATOM     28  C   UNL     1     -10.913  -4.372   4.249  0.00  0.00    +0.025 A 
BRANCH  26  29
ATOM     29  N   UNL     1     -12.819  -4.445   7.392  0.00  0.00    -0.336 N 
ATOM     30  C   UNL     1     -13.711  -5.582   7.149  0.00  0.00    +0.129 C 
ATOM     31  C   UNL     1     -12.900  -3.707   8.655  0.00  0.00    +0.129 C 
ENDBRANCH  26  29
ENDBRANCH  21  23
ENDBRANCH  18  19
ENDBRANCH  16  18
ENDBRANCH   1  16
BRANCH  10  32
ATOM     32  C   UNL     1      -5.096   2.621   2.767  0.00  0.00    +0.154 C 
BRANCH  32  33
ATOM     33  C   UNL     1      -6.049   3.659   2.233  0.00  0.00    -0.013 C 
ATOM     34  C   UNL     1      -7.136   3.955   2.902  0.00  0.00    +0.005 C 
ENDBRANCH  32  33
ENDBRANCH  10  32
TORSDOF 8
