REMARK  Name = ZINC39667413
REMARK  11 active torsions:
REMARK  status: ('A' for Active; 'I' for Inactive)
REMARK    1  A    between atoms: C_1  and  C_2
REMARK    2  A    between atoms: C_2  and  C_3
REMARK    3  A    between atoms: C_2  and  C_4
REMARK    4  A    between atoms: C_4  and  C_6
REMARK    5  A    between atoms: C_4  and  O_31
REMARK    6  A    between atoms: C_10  and  C_19
REMARK    7  A    between atoms: N_21  and  C_22
REMARK    8  A    between atoms: C_22  and  C_23
REMARK    9  A    between atoms: C_26  and  S_29
REMARK   10  A    between atoms: S_29  and  C_30
REMARK   11  A    between atoms: O_31  and  C_32
REMARK                            x       y       z     vdW  Elec       q    Type
REMARK                         _______ _______ _______ _____ _____    ______ ____
ROOT
ATOM      1  C   UNL     1      -1.639  -2.226   1.311  0.00  0.00    +0.257 C 
ATOM      2  O   UNL     1      -1.905  -3.097   0.510  0.00  0.00    -0.272 OA
ATOM      3  N   UNL     1      -1.056  -2.545   2.484  0.00  0.00    -0.297 N 
ATOM      4  C   UNL     1      -0.767  -1.648   3.628  0.00  0.00    +0.121 C 
ATOM      5  C   UNL     1      -1.082  -2.498   4.879  0.00  0.00    +0.100 C 
ATOM      6  C   UNL     1      -0.942  -3.956   4.409  0.00  0.00    -0.004 C 
ATOM      7  C   UNL     1      -0.564  -3.873   2.923  0.00  0.00    +0.115 C 
ATOM      8  C   UNL     1      -2.268  -4.693   4.570  0.00  0.00    -0.010 C 
ATOM      9  C   UNL     1      -2.088  -6.154   4.149  0.00  0.00    -0.082 C 
ATOM     10  N   UNL     1      -1.053  -6.781   4.981  0.00  0.00    +0.379 N 
ATOM     11  C   UNL     1       0.240  -6.125   4.750  0.00  0.00    -0.082 C 
ATOM     12  C   UNL     1       0.159  -4.662   5.196  0.00  0.00    -0.010 C 
ATOM     13  H   UNL     1      -1.305  -6.691   5.954  0.00  0.00    -0.086 HD
ATOM     14  H   UNL     1      -0.979  -7.759   4.744  0.00  0.00    -0.086 HD
ENDROOT
BRANCH   5  15
ATOM     15  C   UNL     1      -2.487  -2.231   5.355  0.00  0.00    +0.218 C 
ATOM     16  O   UNL     1      -3.358  -1.965   4.554  0.00  0.00    -0.275 OA
ATOM     17  N   UNL     1      -2.775  -2.288   6.670  0.00  0.00    -0.311 N 
ATOM     18  H   UNL     1      -2.078  -2.501   7.311  0.00  0.00    +0.149 HD
BRANCH  17  19
ATOM     19  C   UNL     1      -4.140  -2.028   7.133  0.00  0.00    +0.139 C 
BRANCH  19  20
ATOM     20  C   UNL     1      -4.195  -2.154   8.634  0.00  0.00    -0.030 A 
ATOM     21  C   UNL     1      -4.472  -3.378   9.214  0.00  0.00    +0.006 A 
ATOM     22  C   UNL     1      -4.523  -3.497  10.589  0.00  0.00    +0.015 A 
ATOM     23  C   UNL     1      -4.295  -2.384  11.389  0.00  0.00    +0.008 A 
ATOM     24  C   UNL     1      -4.016  -1.155  10.803  0.00  0.00    +0.015 A 
ATOM     25  C   UNL     1      -3.962  -1.045   9.428  0.00  0.00    +0.006 A 
BRANCH  23  26
ATOM     26  S   UNL     1      -4.360  -2.531  13.144  0.00  0.00    -0.129 S 
ATOM     27  C   UNL     1      -4.005  -0.854  13.738  0.00  0.00    +0.090 C 
ENDBRANCH  23  26
ENDBRANCH  19  20
ENDBRANCH  17  19
ENDBRANCH   5  15
BRANCH   1  28
ATOM     28  C   UNL     1      -1.960  -0.788   0.996  0.00  0.00    +0.261 C 
BRANCH  28  30
ATOM     29  C   UNL     1      -1.023   1.378   0.176  0.00  0.00    +0.011 C 
ATOM     30  C   UNL     1      -0.713  -0.096   0.442  0.00  0.00    +0.033 C 
ATOM     31  C   UNL     1       0.424  -0.202   1.460  0.00  0.00    +0.011 C 
ENDBRANCH  28  30
BRANCH  28  32
ATOM     32  O   UNL     1      -3.005  -0.736   0.023  0.00  0.00    -0.479 OA
BRANCH  32  33
ATOM     33  C   UNL     1      -3.975   0.198   0.209  0.00  0.00    +0.122 A 
ATOM     34  C   UNL     1      -5.085   0.223  -0.623  0.00  0.00    +0.045 A 
ATOM     35  C   UNL     1      -6.069   1.173  -0.432  0.00  0.00    +0.004 A 
ATOM     36  C   UNL     1      -5.949   2.099   0.587  0.00  0.00    +0.000 A 
ATOM     37  C   UNL     1      -4.843   2.078   1.417  0.00  0.00    +0.004 A 
ATOM     38  C   UNL     1      -3.859   1.125   1.234  0.00  0.00    +0.045 A 
ENDBRANCH  32  33
ENDBRANCH  28  32
ENDBRANCH   1  28
TORSDOF 8
