REMARK  Name = ZINC13976655
REMARK  6 active torsions:
REMARK  status: ('A' for Active; 'I' for Inactive)
REMARK    1  A    between atoms: C_3  and  C_8
REMARK    2  A    between atoms: N_10  and  N_11
REMARK    3  A    between atoms: N_11  and  C_12
REMARK    4  A    between atoms: C_12  and  N_14
REMARK    5  A    between atoms: C_15  and  C_17
REMARK    6  A    between atoms: C_21  and  N_23
REMARK                            x       y       z     vdW  Elec       q    Type
REMARK                         _______ _______ _______ _____ _____    ______ ____
ROOT
ATOM      1  C   UNL     1       2.369   1.025  -0.015  0.00  0.00    +0.153 C 
ATOM      2  S   UNL     1       3.840   1.901  -0.024  0.00  0.00    -0.017 S 
ENDROOT
BRANCH   1   3
ATOM      3  N   UNL     1       2.387  -0.323  -0.022  0.00  0.00    -0.263 N 
ATOM      4  C   UNL     1       3.563  -0.981  -0.037  0.00  0.00    +0.250 C 
ATOM      5  O   UNL     1       4.607  -0.359  -0.044  0.00  0.00    -0.270 OA
ATOM      6  H   UNL     1       1.554  -0.819  -0.017  0.00  0.00    +0.157 HD
BRANCH   4   7
ATOM      7  C   UNL     1       3.583  -2.458  -0.045  0.00  0.00    +0.039 A 
ATOM      8  C   UNL     1       2.385  -3.175  -0.032  0.00  0.00    +0.014 A 
ATOM      9  C   UNL     1       2.410  -4.553  -0.046  0.00  0.00    +0.023 A 
ATOM     10  C   UNL     1       3.621  -5.227  -0.061  0.00  0.00    +0.071 A 
ATOM     11  C   UNL     1       4.812  -4.521  -0.068  0.00  0.00    +0.145 A 
ATOM     12  C   UNL     1       4.800  -3.142  -0.061  0.00  0.00    +0.047 A 
ATOM     13 CL   UNL     1       3.644  -6.963  -0.070  0.00  0.00    -0.081 Cl
BRANCH  11  14
ATOM     14  N   UNL     1       6.101  -5.248  -0.085  0.00  0.00    +0.058 N 
ATOM     15  O   UNL     1       7.150  -4.629  -0.092  0.00  0.00    -0.126 OA
ATOM     16  O   UNL     1       6.114  -6.466  -0.092  0.00  0.00    -0.126 OA
ENDBRANCH  11  14
ENDBRANCH   4   7
ENDBRANCH   1   3
BRANCH   1  17
ATOM     17  N   UNL     1       1.193   1.683  -0.000  0.00  0.00    -0.245 N 
ATOM     18  H   UNL     1       1.179   2.653   0.005  0.00  0.00    +0.172 HD
BRANCH  17  21
ATOM     19  C   UNL     1      -1.187   1.624   0.017  0.00  0.00    +0.260 C 
ATOM     20  O   UNL     1      -1.204   2.839   0.023  0.00  0.00    -0.269 OA
ATOM     21  N   UNL     1      -0.011   0.966   0.007  0.00  0.00    -0.231 N 
ATOM     22  H   UNL     1       0.002  -0.004   0.002  0.00  0.00    +0.173 HD
BRANCH  19  25
ATOM     23  C   UNL     1      -3.631  -1.229   0.012  0.00  0.00    +0.002 A 
ATOM     24  C   UNL     1      -2.442  -0.528   0.005  0.00  0.00    +0.013 A 
ATOM     25  C   UNL     1      -2.458   0.867   0.018  0.00  0.00    +0.040 A 
ATOM     26  C   UNL     1      -3.677   1.546   0.028  0.00  0.00    +0.033 A 
ATOM     27  C   UNL     1      -4.860   0.833   0.029  0.00  0.00    +0.042 A 
ATOM     28  C   UNL     1      -4.837  -0.552   0.021  0.00  0.00    +0.020 A 
ATOM     29 CL   UNL     1      -6.378   1.674   0.040  0.00  0.00    -0.084 Cl
ENDBRANCH  19  25
ENDBRANCH  17  21
ENDBRANCH   1  17
TORSDOF 6
