REMARK  Name = ZINC43108804
REMARK  6 active torsions:
REMARK  status: ('A' for Active; 'I' for Inactive)
REMARK    1  A    between atoms: C_1  and  N_2
REMARK    2  A    between atoms: N_2  and  C_3
REMARK    3  A    between atoms: N_2  and  C_4
REMARK    4  A    between atoms: C_4  and  C_10
REMARK    5  A    between atoms: C_10  and  N_11
REMARK    6  A    between atoms: C_17  and  N_20
REMARK                            x       y       z     vdW  Elec       q    Type
REMARK                         _______ _______ _______ _____ _____    ______ ____
ROOT
ATOM      1  N   UNL     1      -2.373   1.254   1.303  0.00  0.00    -0.301 N 
ATOM      2  C   UNL     1      -3.127   1.831   2.259  0.00  0.00    +0.302 C 
ATOM      3  O   UNL     1      -3.631   1.149   3.130  0.00  0.00    -0.253 OA
ATOM      4  N   UNL     1      -3.323   3.165   2.249  0.00  0.00    -0.286 N 
ATOM      5  C   UNL     1      -2.822   3.987   1.139  0.00  0.00    +0.111 C 
ATOM      6  C   UNL     1      -1.965   5.120   1.712  0.00  0.00    +0.044 C 
ATOM      7  C   UNL     1      -2.779   5.895   2.751  0.00  0.00    +0.095 C 
ATOM      8  C   UNL     1      -3.171   4.959   3.896  0.00  0.00    +0.044 C 
ATOM      9  C   UNL     1      -4.047   3.823   3.345  0.00  0.00    +0.111 C 
ATOM     10  H   UNL     1      -1.910   1.804   0.652  0.00  0.00    +0.150 HD
ENDROOT
BRANCH   7  11
ATOM     11  N   UNL     1      -1.974   6.999   3.277  0.00  0.00    -0.289 N 
ATOM     12  C   UNL     1      -2.299   8.352   3.205  0.00  0.00    +0.070 A 
ATOM     13  C   UNL     1      -3.374   9.045   2.671  0.00  0.00    +0.028 A 
ATOM     14  C   UNL     1      -3.415  10.423   2.755  0.00  0.00    +0.002 A 
ATOM     15  C   UNL     1      -2.387  11.115   3.371  0.00  0.00    +0.002 A 
ATOM     16  C   UNL     1      -1.311  10.434   3.906  0.00  0.00    +0.028 A 
ATOM     17  C   UNL     1      -1.262   9.050   3.826  0.00  0.00    +0.067 A 
ATOM     18  N   UNL     1      -0.339   8.100   4.258  0.00  0.00    -0.306 N 
ATOM     19  H   UNL     1       0.491   8.286   4.725  0.00  0.00    +0.170 HD
ATOM     20  C   UNL     1      -0.796   6.880   3.919  0.00  0.00    +0.328 A 
ATOM     21  O   UNL     1      -0.230   5.829   4.154  0.00  0.00    -0.247 OA
ENDBRANCH   7  11
BRANCH   1  22
ATOM     22  C   UNL     1      -2.251  -0.205   1.247  0.00  0.00    +0.094 C 
BRANCH  22  23
ATOM     23  C   UNL     1      -1.453  -0.603   0.004  0.00  0.00    -0.050 C 
ATOM     24  C   UNL     1      -1.436  -2.127  -0.125  0.00  0.00    -0.010 C 
ATOM     25  C   UNL     1      -0.782  -2.736   1.117  0.00  0.00    -0.001 C 
ATOM     26  C   UNL     1       0.652  -2.219   1.245  0.00  0.00    -0.000 C 
ATOM     27  C   UNL     1       0.635  -0.695   1.373  0.00  0.00    -0.001 C 
ATOM     28  C   UNL     1      -0.019  -0.086   0.131  0.00  0.00    -0.010 C 
BRANCH  23  30
ATOM     29  C   UNL     1      -1.317  -0.404  -2.383  0.00  0.00    -0.096 C 
ATOM     30  N   UNL     1      -2.081  -0.018  -1.189  0.00  0.00    +0.381 N 
ATOM     31  C   UNL     1      -3.459  -0.511  -1.308  0.00  0.00    -0.096 C 
ATOM     32  H   UNL     1      -2.089   0.987  -1.105  0.00  0.00    -0.082 HD
ENDBRANCH  23  30
ENDBRANCH  22  23
ENDBRANCH   1  22
TORSDOF 4
