REMARK  Name = ZINC15867905
REMARK  4 active torsions:
REMARK  status: ('A' for Active; 'I' for Inactive)
REMARK    1  A    between atoms: C_1  and  C_2
REMARK    2  A    between atoms: C_2  and  C_3
REMARK    3  A    between atoms: C_3  and  C_16
REMARK    4  A    between atoms: N_7  and  C_9
REMARK                            x       y       z     vdW  Elec       q    Type
REMARK                         _______ _______ _______ _____ _____    ______ ____
ROOT
ATOM      1  C   UNL     1      -0.723   3.348   0.167  0.00  0.00    +0.128 C 
ATOM      2  N   UNL     1      -1.133   1.971  -0.152  0.00  0.00    -0.275 N 
ATOM      3  C   UNL     1      -0.008   1.236  -0.224  0.00  0.00    +0.322 C 
ATOM      4  O   UNL     1       0.015   0.046  -0.470  0.00  0.00    -0.251 OA
ATOM      5  N   UNL     1       1.084   1.979   0.002  0.00  0.00    -0.187 N 
ATOM      6  N   UNL     1       0.749   3.280   0.250  0.00  0.00    -0.205 NA
ATOM      7  H   UNL     1      -2.040   1.654  -0.284  0.00  0.00    +0.152 HD
ATOM      8  H   UNL     1       1.074   3.569   1.161  0.00  0.00    +0.148 HD
ENDROOT
BRANCH   5   9
ATOM      9  C   UNL     1       2.394   1.487  -0.013  0.00  0.00    +0.054 A 
ATOM     10  C   UNL     1       2.707   0.320   0.671  0.00  0.00    +0.026 A 
ATOM     11  C   UNL     1       3.999  -0.167   0.649  0.00  0.00    +0.017 A 
ATOM     12  C   UNL     1       4.984   0.513  -0.044  0.00  0.00    +0.018 A 
ATOM     13  C   UNL     1       4.676   1.680  -0.722  0.00  0.00    +0.017 A 
ATOM     14  C   UNL     1       3.385   2.167  -0.708  0.00  0.00    +0.026 A 
ATOM     15 BR   UNL     1       6.755  -0.151  -0.065  0.00  0.00    -0.050 Br
ENDBRANCH   5   9
BRANCH   1  16
ATOM     16  C   UNL     1      -1.306   3.785   1.486  0.00  0.00    -0.008 A 
ATOM     17  C   UNL     1      -2.560   3.345   1.867  0.00  0.00    +0.007 A 
ATOM     18  C   UNL     1      -3.093   3.742   3.079  0.00  0.00    +0.000 A 
ATOM     19  C   UNL     1      -2.376   4.586   3.906  0.00  0.00    +0.000 A 
ATOM     20  C   UNL     1      -1.124   5.029   3.523  0.00  0.00    +0.000 A 
ATOM     21  C   UNL     1      -0.589   4.629   2.313  0.00  0.00    +0.007 A 
ENDBRANCH   1  16
BRANCH   1  23
ATOM     22  C   UNL     1      -0.586   3.816  -2.284  0.00  0.00    +0.008 C 
ATOM     23  C   UNL     1      -1.152   4.304  -0.949  0.00  0.00    +0.045 C 
ENDBRANCH   1  23
TORSDOF 3
