REMARK  Name = ZINC15223317
REMARK  13 active torsions:
REMARK  status: ('A' for Active; 'I' for Inactive)
REMARK    1  A    between atoms: C_1  and  C_2
REMARK    2  A    between atoms: C_2  and  N_3
REMARK    3  A    between atoms: C_7  and  C_9
REMARK    4  A    between atoms: C_9  and  C_11
REMARK    5  A    between atoms: C_9  and  S_12
REMARK    6  A    between atoms: S_12  and  C_13
REMARK    7  A    between atoms: C_16  and  C_27
REMARK    8  A    between atoms: N_17  and  C_18
REMARK    9  A    between atoms: C_23  and  C_24
REMARK   10  A    between atoms: C_24  and  C_25
REMARK   11  A    between atoms: C_24  and  C_26
REMARK   12  A    between atoms: C_30  and  O_33
REMARK   13  A    between atoms: O_33  and  C_34
REMARK                            x       y       z     vdW  Elec       q    Type
REMARK                         _______ _______ _______ _____ _____    ______ ____
ROOT
ATOM      1  C   UNL     1      -2.379  -4.556   0.628  0.00  0.00    +0.197 A 
ATOM      2  N   UNL     1      -1.248  -5.131   0.286  0.00  0.00    -0.122 NA
ATOM      3  N   UNL     1      -1.337  -6.405   0.431  0.00  0.00    -0.128 NA
ATOM      4  C   UNL     1      -2.534  -6.725   0.867  0.00  0.00    +0.169 A 
ATOM      5  N   UNL     1      -3.240  -5.550   1.007  0.00  0.00    -0.270 N 
ENDROOT
BRANCH   5   6
ATOM      6  C   UNL     1      -4.564  -5.404   1.444  0.00  0.00    +0.054 A 
ATOM      7  C   UNL     1      -5.606  -5.429   0.528  0.00  0.00    +0.026 A 
ATOM      8  C   UNL     1      -6.909  -5.285   0.962  0.00  0.00    +0.002 A 
ATOM      9  C   UNL     1      -7.176  -5.117   2.309  0.00  0.00    +0.000 A 
ATOM     10  C   UNL     1      -6.140  -5.092   3.224  0.00  0.00    +0.006 A 
ATOM     11  C   UNL     1      -4.835  -5.240   2.796  0.00  0.00    -0.021 A 
BRANCH  11  12
ATOM     12  C   UNL     1      -3.707  -5.218   3.795  0.00  0.00    +0.015 C 
ATOM     13  C   UNL     1      -3.707  -3.879   4.535  0.00  0.00    +0.012 C 
ATOM     14  C   UNL     1      -3.893  -6.357   4.799  0.00  0.00    +0.012 C 
ENDBRANCH  11  12
ENDBRANCH   5   6
BRANCH   4  15
ATOM     15  C   UNL     1      -3.029  -8.088   1.153  0.00  0.00    +0.020 A 
ATOM     16  C   UNL     1      -4.193  -8.266   1.904  0.00  0.00    +0.015 A 
ATOM     17  C   UNL     1      -4.654  -9.538   2.164  0.00  0.00    +0.046 A 
ATOM     18  C   UNL     1      -3.958 -10.642   1.691  0.00  0.00    +0.120 A 
ATOM     19  C   UNL     1      -2.796 -10.469   0.949  0.00  0.00    +0.046 A 
ATOM     20  C   UNL     1      -2.331  -9.200   0.680  0.00  0.00    +0.015 A 
BRANCH  18  21
ATOM     21  O   UNL     1      -4.413 -11.895   1.954  0.00  0.00    -0.495 OA
ATOM     22  C   UNL     1      -5.613 -12.001   2.723  0.00  0.00    +0.277 C 
ENDBRANCH  18  21
ENDBRANCH   4  15
BRANCH   1  23
ATOM     23  S   UNL     1      -2.725  -2.829   0.597  0.00  0.00    -0.073 S 
BRANCH  23  24
ATOM     24  C   UNL     1      -1.135  -2.201   0.001  0.00  0.00    +0.137 C 
ATOM     25  C   UNL     1      -0.892  -2.700  -1.425  0.00  0.00    +0.029 C 
BRANCH  24  30
ATOM     26  N   UNL     1       1.142   2.033   0.002  0.00  0.00    -0.299 N 
ATOM     27  C   UNL     1      -0.016   1.344   0.009  0.00  0.00    +0.306 C 
ATOM     28  O   UNL     1      -1.077   1.937   0.018  0.00  0.00    -0.252 OA
ATOM     29  N   UNL     1       0.002  -0.004   0.002  0.00  0.00    -0.239 N 
ATOM     30  C   UNL     1      -1.156  -0.694   0.009  0.00  0.00    +0.233 C 
ATOM     31  O   UNL     1      -2.214  -0.102   0.023  0.00  0.00    -0.274 OA
ATOM     32  H   UNL     1       1.988   1.560  -0.009  0.00  0.00    +0.150 HD
ATOM     33  H   UNL     1       0.849  -0.478  -0.009  0.00  0.00    +0.159 HD
BRANCH  26  35
ATOM     34  C   UNL     1       2.557   4.028  -0.001  0.00  0.00    +0.024 C 
ATOM     35  C   UNL     1       1.122   3.498   0.010  0.00  0.00    +0.102 C 
ENDBRANCH  26  35
ENDBRANCH  24  30
ENDBRANCH  23  24
ENDBRANCH   1  23
TORSDOF 8
