REMARK  Name = ZINC36155029
REMARK  13 active torsions:
REMARK  status: ('A' for Active; 'I' for Inactive)
REMARK    1  A    between atoms: C_1  and  C_2
REMARK    2  A    between atoms: C_2  and  C_3
REMARK    3  A    between atoms: C_2  and  C_4
REMARK    4  A    between atoms: C_4  and  C_6
REMARK    5  A    between atoms: C_4  and  N_18
REMARK    6  A    between atoms: C_8  and  C_11
REMARK    7  A    between atoms: N_18  and  C_19
REMARK    8  A    between atoms: C_19  and  C_20
REMARK    9  A    between atoms: C_20  and  C_22
REMARK   10  A    between atoms: C_20  and  O_31
REMARK   11  A    between atoms: C_22  and  O_23
REMARK   12  A    between atoms: O_23  and  C_24
REMARK   13  A    between atoms: C_24  and  C_25
REMARK                            x       y       z     vdW  Elec       q    Type
REMARK                         _______ _______ _______ _____ _____    ______ ____
ROOT
ATOM      1  C   UNL     1      -1.321  -0.528   0.077  0.00  0.00    +0.022 C 
ENDROOT
BRANCH   1   2
ATOM      2  C   UNL     1      -1.979  -0.163   1.382  0.00  0.00    +0.214 A 
ATOM      3  N   UNL     1      -1.368   0.272   2.447  0.00  0.00    -0.193 NA
ATOM      4  C   UNL     1      -2.259   0.500   3.429  0.00  0.00    +0.202 A 
ATOM      5  N   UNL     1      -3.456   0.205   2.984  0.00  0.00    -0.056 NA
ATOM      6  O   UNL     1      -3.291  -0.227   1.642  0.00  0.00    -0.339 OA
BRANCH   4   7
ATOM      7  C   UNL     1      -1.940   1.001   4.789  0.00  0.00    +0.023 A 
ATOM      8  C   UNL     1      -0.621   1.283   5.138  0.00  0.00    +0.013 A 
ATOM      9  C   UNL     1      -0.329   1.749   6.404  0.00  0.00    +0.016 A 
ATOM     10  C   UNL     1      -1.344   1.935   7.326  0.00  0.00    +0.018 A 
ATOM     11  C   UNL     1      -2.656   1.655   6.984  0.00  0.00    +0.016 A 
ATOM     12  C   UNL     1      -2.959   1.195   5.719  0.00  0.00    +0.013 A 
ATOM     13 BR   UNL     1      -0.938   2.572   9.059  0.00  0.00    -0.050 Br
ENDBRANCH   4   7
ENDBRANCH   1   2
BRANCH   1  15
ATOM     14  C   UNL     1      -0.534  -2.424  -1.349  0.00  0.00    +0.006 C 
ATOM     15  C   UNL     1      -1.280  -2.051  -0.065  0.00  0.00    -0.022 C 
ATOM     16  C   UNL     1      -0.556  -2.657   1.139  0.00  0.00    +0.006 C 
ENDBRANCH   1  15
BRANCH   1  17
ATOM     17  N   UNL     1      -2.088   0.047  -1.036  0.00  0.00    +0.389 N 
ATOM     18  H   UNL     1      -1.701  -0.273  -1.912  0.00  0.00    -0.085 HD
ATOM     19  H   UNL     1      -3.051  -0.245  -0.967  0.00  0.00    -0.085 HD
BRANCH  17  20
ATOM     20  C   UNL     1      -2.014   1.513  -0.975  0.00  0.00    -0.048 C 
BRANCH  20  21
ATOM     21  C   UNL     1      -2.698   2.109  -2.207  0.00  0.00    +0.123 C 
BRANCH  21  22
ATOM     22  O   UNL     1      -4.093   1.799  -2.175  0.00  0.00    -0.391 OA
ATOM     23  H   UNL     1      -4.554   2.142  -1.397  0.00  0.00    +0.210 HD
ENDBRANCH  21  22
BRANCH  21  24
ATOM     24  C   UNL     1      -2.514   3.628  -2.207  0.00  0.00    +0.189 C 
BRANCH  24  25
ATOM     25  O   UNL     1      -3.051   4.173  -3.414  0.00  0.00    -0.373 OA
BRANCH  25  26
ATOM     26  C   UNL     1      -2.929   5.593  -3.515  0.00  0.00    +0.195 C 
BRANCH  26  27
ATOM     27  C   UNL     1      -3.524   6.057  -4.820  0.00  0.00    -0.022 A 
ATOM     28  C   UNL     1      -2.733   6.135  -5.951  0.00  0.00    +0.006 A 
ATOM     29  C   UNL     1      -3.279   6.560  -7.148  0.00  0.00    +0.000 A 
ATOM     30  C   UNL     1      -4.616   6.906  -7.214  0.00  0.00    +0.000 A 
ATOM     31  C   UNL     1      -5.406   6.828  -6.083  0.00  0.00    +0.000 A 
ATOM     32  C   UNL     1      -4.862   6.399  -4.887  0.00  0.00    +0.006 A 
ENDBRANCH  26  27
ENDBRANCH  25  26
ENDBRANCH  24  25
ENDBRANCH  21  24
ENDBRANCH  20  21
ENDBRANCH  17  20
ENDBRANCH   1  17
TORSDOF 11
