REMARK  Name = ZINC37441687
REMARK  6 active torsions:
REMARK  status: ('A' for Active; 'I' for Inactive)
REMARK    1  A    between atoms: C_1  and  C_2
REMARK    2  A    between atoms: C_2  and  C_3
REMARK    3  A    between atoms: C_3  and  N_4
REMARK    4  A    between atoms: C_12  and  C_13
REMARK    5  A    between atoms: C_16  and  C_20
REMARK    6  A    between atoms: C_17  and  N_19
REMARK                            x       y       z     vdW  Elec       q    Type
REMARK                         _______ _______ _______ _____ _____    ______ ____
ROOT
ATOM      1  N   UNL     1      -1.645  -2.025   0.035  0.00  0.00    -0.324 N 
ATOM      2  C   UNL     1      -1.648  -2.829  -1.089  0.00  0.00    +0.069 A 
ATOM      3  C   UNL     1      -1.913  -2.603  -2.432  0.00  0.00    +0.029 A 
ATOM      4  C   UNL     1      -1.828  -3.643  -3.333  0.00  0.00    +0.017 A 
ATOM      5  C   UNL     1      -1.479  -4.918  -2.906  0.00  0.00    +0.020 A 
ATOM      6  C   UNL     1      -1.213  -5.161  -1.578  0.00  0.00    +0.045 A 
ATOM      7  C   UNL     1      -1.294  -4.117  -0.650  0.00  0.00    +0.091 A 
ATOM      8  N   UNL     1      -1.096  -4.044   0.688  0.00  0.00    -0.227 NA
ATOM      9  C   UNL     1      -1.296  -2.815   1.097  0.00  0.00    +0.142 A 
ATOM     10 BR   UNL     1      -1.368  -6.329  -4.159  0.00  0.00    -0.050 Br
ENDROOT
BRANCH   9  11
ATOM     11  C   UNL     1      -1.166  -2.352   2.496  0.00  0.00    +0.019 A 
ATOM     12  C   UNL     1      -1.255  -3.265   3.547  0.00  0.00    +0.012 A 
ATOM     13  C   UNL     1      -1.134  -2.831   4.851  0.00  0.00    +0.006 A 
ATOM     14  C   UNL     1      -0.923  -1.492   5.122  0.00  0.00    -0.030 A 
ATOM     15  C   UNL     1      -0.833  -0.574   4.082  0.00  0.00    +0.028 A 
ATOM     16  C   UNL     1      -0.948  -1.002   2.768  0.00  0.00    +0.034 A 
ATOM     17  C   UNL     1      -0.792  -1.026   6.549  0.00  0.00    +0.045 C 
BRANCH  15  18
ATOM     18  N   UNL     1      -0.620   0.778   4.360  0.00  0.00    -0.358 N 
ATOM     19  H   UNL     1      -0.536   1.077   5.279  0.00  0.00    +0.142 HD
ATOM     20  H   UNL     1      -0.557   1.419   3.635  0.00  0.00    +0.142 HD
ENDBRANCH  15  18
ENDBRANCH   9  11
BRANCH   1  21
ATOM     21  C   UNL     1      -1.952  -0.594   0.081  0.00  0.00    +0.123 C 
BRANCH  21  23
ATOM     22  C   UNL     1      -1.017   1.704  -0.217  0.00  0.00    +0.005 C 
ATOM     23  C   UNL     1      -0.696   0.209  -0.264  0.00  0.00    +0.018 C 
ENDBRANCH  21  23
ENDBRANCH   1  21
TORSDOF 4
