REMARK  Name = ZINC10070905
REMARK  8 active torsions:
REMARK  status: ('A' for Active; 'I' for Inactive)
REMARK    1  A    between atoms: C_3  and  C_7
REMARK    2  A    between atoms: C_7  and  C_9
REMARK    3  A    between atoms: C_9  and  O_10
REMARK    4  A    between atoms: O_10  and  C_11
REMARK    5  A    between atoms: C_11  and  C_13
REMARK    6  A    between atoms: C_16  and  N_19
REMARK    7  A    between atoms: N_19  and  S_20
REMARK    8  A    between atoms: S_20  and  C_23
REMARK                            x       y       z     vdW  Elec       q    Type
REMARK                         _______ _______ _______ _____ _____    ______ ____
ROOT
ATOM      1  C   UNL     1       3.437   3.873  -0.529  0.00  0.00    +0.059 A 
ATOM      2  C   UNL     1       2.248   4.270  -1.151  0.00  0.00    +0.017 A 
ATOM      3  C   UNL     1       1.105   3.534  -0.973  0.00  0.00    +0.025 A 
ATOM      4  C   UNL     1       1.126   2.394  -0.174  0.00  0.00    +0.048 A 
ATOM      5  C   UNL     1       2.306   1.999   0.450  0.00  0.00    +0.025 A 
ATOM      6  C   UNL     1       3.455   2.727   0.272  0.00  0.00    +0.017 A 
ENDROOT
BRANCH   1   7
ATOM      7  C   UNL     1       4.668   4.660  -0.719  0.00  0.00    +0.340 C 
ATOM      8  O   UNL     1       4.652   5.656  -1.416  0.00  0.00    -0.245 OA
BRANCH   7   9
ATOM      9  O   UNL     1       5.813   4.277  -0.120  0.00  0.00    -0.453 OA
BRANCH   9  10
ATOM     10  C   UNL     1       6.986   5.100  -0.351  0.00  0.00    +0.313 C 
BRANCH  10  11
ATOM     11  C   UNL     1       8.161   4.521   0.394  0.00  0.00    +0.216 C 
ATOM     12  O   UNL     1       8.023   3.512   1.055  0.00  0.00    -0.287 OA
BRANCH  11  15
ATOM     13  C   UNL     1      11.082   6.563  -0.178  0.00  0.00    +0.020 A 
ATOM     14  C   UNL     1       9.729   6.297  -0.393  0.00  0.00    +0.030 A 
ATOM     15  C   UNL     1       9.424   5.152   0.322  0.00  0.00    +0.086 A 
ATOM     16  N   UNL     1      10.580   4.736   0.947  0.00  0.00    -0.358 N 
ATOM     17  H   UNL     1      10.666   3.955   1.516  0.00  0.00    +0.165 HD
ATOM     18  C   UNL     1      11.572   5.596   0.637  0.00  0.00    +0.083 A 
ENDBRANCH  11  15
ENDBRANCH  10  11
ENDBRANCH   9  10
ENDBRANCH   7   9
ENDBRANCH   1   7
BRANCH   4  19
ATOM     19  N   UNL     1      -0.035   1.651   0.005  0.00  0.00    -0.216 N 
ATOM     20  H   UNL     1      -0.874   2.100   0.193  0.00  0.00    +0.174 HD
BRANCH  19  21
ATOM     21  S   UNL     1       0.012  -0.000  -0.110  0.00  0.00    +0.072 S 
ATOM     22  O   UNL     1       1.067  -0.436   0.736  0.00  0.00    -0.150 OA
ATOM     23  O   UNL     1      -1.325  -0.456   0.042  0.00  0.00    -0.150 OA
BRANCH  21  24
ATOM     24  C   UNL     1       0.494  -0.394  -1.759  0.00  0.00    +0.112 A 
ATOM     25  C   UNL     1      -0.458  -0.450  -2.760  0.00  0.00    +0.032 A 
ATOM     26  C   UNL     1      -0.087  -0.753  -4.057  0.00  0.00    +0.051 A 
ATOM     27  C   UNL     1       1.242  -1.011  -4.348  0.00  0.00    +0.162 A 
ATOM     28  C   UNL     1       2.197  -0.961  -3.343  0.00  0.00    +0.164 A 
ATOM     29  C   UNL     1       1.822  -0.652  -2.046  0.00  0.00    +0.078 A 
ATOM     30  O   UNL     1       3.504  -1.216  -3.640  0.00  0.00    -0.488 OA
ATOM     31  C   UNL     1       3.809  -2.563  -4.007  0.00  0.00    +0.232 C 
ATOM     32  C   UNL     1       3.544  -2.793  -5.486  0.00  0.00    +0.082 C 
ATOM     33  C   UNL     1       2.071  -2.655  -5.838  0.00  0.00    +0.232 C 
ATOM     34  O   UNL     1       1.621  -1.316  -5.623  0.00  0.00    -0.488 OA
ENDBRANCH  21  24
ENDBRANCH  19  21
ENDBRANCH   4  19
TORSDOF 8
