REMARK  Name = ZINC13319873
REMARK  8 active torsions:
REMARK  status: ('A' for Active; 'I' for Inactive)
REMARK    1  A    between atoms: C_1  and  C_2
REMARK    2  A    between atoms: C_9  and  C_11
REMARK    3  A    between atoms: C_12  and  C_33
REMARK    4  A    between atoms: C_16  and  C_18
REMARK    5  A    between atoms: C_21  and  O_26
REMARK    6  A    between atoms: C_23  and  O_24
REMARK    7  A    between atoms: O_24  and  C_25
REMARK    8  A    between atoms: O_26  and  C_27
REMARK                            x       y       z     vdW  Elec       q    Type
REMARK                         _______ _______ _______ _____ _____    ______ ____
ROOT
ATOM      1  C   UNL     1      -3.682   1.883   0.493  0.00  0.00    +0.043 C 
ATOM      2  C   UNL     1      -3.637   3.225   0.478  0.00  0.00    +0.014 C 
ATOM      3  N   UNL     1      -2.510   3.876   0.058  0.00  0.00    -0.321 N 
ATOM      4  C   UNL     1      -1.302   3.231   0.026  0.00  0.00    +0.015 C 
ATOM      5  C   UNL     1      -1.246   1.882   0.023  0.00  0.00    +0.024 C 
ATOM      6  C   UNL     1      -2.510   1.059   0.047  0.00  0.00    +0.094 C 
ATOM      7  C   UNL     1      -0.013   1.208   0.012  0.00  0.00    +0.162 C 
ATOM      8  O   UNL     1       0.002  -0.007   0.003  0.00  0.00    -0.292 OA
ATOM      9  C   UNL     1       1.288   1.963   0.006  0.00  0.00    +0.080 C 
ATOM     10  C   UNL     1       1.086   3.312   0.703  0.00  0.00    +0.014 C 
ATOM     11  C   UNL     1      -0.043   4.061  -0.009  0.00  0.00    +0.051 C 
ATOM     12  C   UNL     1      -4.837   4.020   0.925  0.00  0.00    +0.061 C 
ATOM     13  H   UNL     1      -2.567   4.928  -0.259  0.00  0.00    +0.152 HD
ENDROOT
BRANCH   1  22
ATOM     14  C   UNL     1      -9.461  -2.609   3.135  0.00  0.00    +0.045 C 
ATOM     15  C   UNL     1      -8.227  -1.974   2.548  0.00  0.00    -0.032 A 
ATOM     16  C   UNL     1      -7.156  -2.762   2.147  0.00  0.00    +0.008 A 
ATOM     17  C   UNL     1      -6.042  -2.139   1.613  0.00  0.00    +0.044 A 
ATOM     18  C   UNL     1      -6.033  -0.753   1.496  0.00  0.00    +0.125 A 
ATOM     19  N   UNL     1      -7.072  -0.037   1.894  0.00  0.00    -0.240 NA
ATOM     20  C   UNL     1      -8.150  -0.604   2.402  0.00  0.00    +0.116 A 
ATOM     21  N   UNL     1      -4.918  -0.114   0.960  0.00  0.00    -0.267 N 
ATOM     22  C   UNL     1      -4.859   1.233   0.939  0.00  0.00    +0.248 C 
ATOM     23  O   UNL     1      -5.817   1.890   1.303  0.00  0.00    -0.270 OA
ATOM     24  H   UNL     1      -4.086  -0.707   0.553  0.00  0.00    +0.157 HD
ENDBRANCH   1  22
BRANCH   6  25
ATOM     25  C   UNL     1      -2.776   0.529  -1.338  0.00  0.00    +0.007 A 
ATOM     26  C   UNL     1      -2.996   1.407  -2.383  0.00  0.00    +0.012 A 
ATOM     27  C   UNL     1      -3.234   0.924  -3.655  0.00  0.00    +0.046 A 
ATOM     28  C   UNL     1      -3.265  -0.445  -3.885  0.00  0.00    +0.124 A 
ATOM     29  C   UNL     1      -3.050  -1.327  -2.838  0.00  0.00    +0.091 A 
ATOM     30  C   UNL     1      -2.805  -0.840  -1.563  0.00  0.00    +0.128 A 
BRANCH  30  31
ATOM     31  O   UNL     1      -2.595  -1.702  -0.534  0.00  0.00    -0.495 OA
ATOM     32  C   UNL     1      -2.639  -3.098  -0.838  0.00  0.00    +0.277 C 
ENDBRANCH  30  31
BRANCH  28  33
ATOM     33  O   UNL     1      -3.505  -0.919  -5.135  0.00  0.00    -0.495 OA
ATOM     34  C   UNL     1      -3.718   0.048  -6.166  0.00  0.00    +0.277 C 
ENDBRANCH  28  33
ENDBRANCH   6  25
TORSDOF 4
