REMARK  Name = ZINC14921206
REMARK  5 active torsions:
REMARK  status: ('A' for Active; 'I' for Inactive)
REMARK    1  A    between atoms: C_6  and  C_7
REMARK    2  A    between atoms: N_8  and  C_9
REMARK    3  A    between atoms: C_12  and  C_15
REMARK    4  A    between atoms: C_20  and  N_24
REMARK    5  A    between atoms: C_25  and  C_26
REMARK                            x       y       z     vdW  Elec       q    Type
REMARK                         _______ _______ _______ _____ _____    ______ ____
ROOT
ATOM      1  C   UNL     1      -6.049  -4.947   0.036  0.00  0.00    +0.139 A 
ATOM      2  N   UNL     1      -7.082  -4.682   0.798  0.00  0.00    -0.228 NA
ATOM      3  C   UNL     1      -8.069  -5.568   0.554  0.00  0.00    +0.090 A 
ATOM      4  C   UNL     1      -9.357  -5.736   1.080  0.00  0.00    +0.032 A 
ATOM      5  C   UNL     1     -10.152  -6.746   0.631  0.00  0.00    +0.030 A 
ATOM      6  C   UNL     1      -9.694  -7.627  -0.359  0.00  0.00    +0.066 A 
ATOM      7  C   UNL     1      -8.415  -7.474  -0.893  0.00  0.00    +0.055 A 
ATOM      8  C   UNL     1      -7.603  -6.449  -0.440  0.00  0.00    +0.068 A 
ATOM      9  N   UNL     1      -6.323  -6.031  -0.756  0.00  0.00    -0.338 N 
ATOM     10  H   UNL     1      -5.731  -6.431  -1.412  0.00  0.00    +0.167 HD
ENDROOT
BRANCH   1  14
ATOM     11  C   UNL     1      -2.411  -2.767   0.011  0.00  0.00    +0.064 A 
ATOM     12  C   UNL     1      -3.445  -2.393   0.876  0.00  0.00    +0.028 A 
ATOM     13  C   UNL     1      -4.616  -3.095   0.883  0.00  0.00    +0.013 A 
ATOM     14  C   UNL     1      -4.782  -4.187   0.027  0.00  0.00    +0.017 A 
ATOM     15  C   UNL     1      -3.749  -4.561  -0.837  0.00  0.00    +0.013 A 
ATOM     16  C   UNL     1      -2.579  -3.856  -0.849  0.00  0.00    +0.028 A 
BRANCH  11  18
ATOM     17  C   UNL     1      -1.260  -0.761   0.011  0.00  0.00    +0.119 C 
ATOM     18  N   UNL     1      -1.239  -2.064   0.003  0.00  0.00    -0.255 NA
BRANCH  17  24
ATOM     19  C   UNL     1      -0.017   1.394   0.010  0.00  0.00    +0.011 A 
ATOM     20  C   UNL     1       1.169   2.096   0.002  0.00  0.00    +0.020 A 
ATOM     21  C   UNL     1       2.378   1.420  -0.013  0.00  0.00    +0.041 A 
ATOM     22  C   UNL     1       2.405   0.035  -0.021  0.00  0.00    +0.020 A 
ATOM     23  C   UNL     1       1.226  -0.680  -0.014  0.00  0.00    +0.011 A 
ATOM     24  C   UNL     1       0.002  -0.004   0.002  0.00  0.00    -0.007 A 
ATOM     25 CL   UNL     1       3.867   2.312  -0.023  0.00  0.00    -0.084 Cl
ENDBRANCH  17  24
ENDBRANCH  11  18
ENDBRANCH   1  14
BRANCH   6  26
ATOM     26  N   UNL     1     -10.502  -8.637  -0.801  0.00  0.00    -0.255 NA
ATOM     27  C   UNL     1     -11.167  -9.361   0.054  0.00  0.00    +0.119 C 
BRANCH  27  28
ATOM     28  C   UNL     1     -12.037 -10.449  -0.422  0.00  0.00    -0.007 A 
ATOM     29  C   UNL     1     -12.148 -10.712  -1.791  0.00  0.00    +0.011 A 
ATOM     30  C   UNL     1     -12.965 -11.732  -2.230  0.00  0.00    +0.020 A 
ATOM     31  C   UNL     1     -13.675 -12.496  -1.318  0.00  0.00    +0.041 A 
ATOM     32  C   UNL     1     -13.569 -12.241   0.040  0.00  0.00    +0.020 A 
ATOM     33  C   UNL     1     -12.752 -11.228   0.493  0.00  0.00    +0.011 A 
ATOM     34 CL   UNL     1     -14.702 -13.778  -1.880  0.00  0.00    -0.084 Cl
ENDBRANCH  27  28
ENDBRANCH   6  26
TORSDOF 5
