REMARK  Name = ZINC39235351
REMARK  7 active torsions:
REMARK  status: ('A' for Active; 'I' for Inactive)
REMARK    1  A    between atoms: C_1  and  N_2
REMARK    2  A    between atoms: C_3  and  C_5
REMARK    3  A    between atoms: C_7  and  C_27
REMARK    4  A    between atoms: N_14  and  C_26
REMARK    5  A    between atoms: C_15  and  N_25
REMARK    6  A    between atoms: N_18  and  C_19
REMARK    7  A    between atoms: N_29  and  C_30
REMARK                            x       y       z     vdW  Elec       q    Type
REMARK                         _______ _______ _______ _____ _____    ______ ____
ROOT
ATOM      1  C   UNL     1      -1.356  -2.240  -0.018  0.00  0.00    +0.182 C 
ATOM      2  C   UNL     1      -1.165  -2.724   1.428  0.00  0.00    +0.114 C 
ATOM      3  C   UNL     1      -0.367  -1.891   2.387  0.00  0.00    -0.009 A 
ATOM      4  C   UNL     1       0.865  -1.284   2.349  0.00  0.00    +0.006 A 
ATOM      5  C   UNL     1       1.339  -0.598   3.453  0.00  0.00    +0.000 A 
ATOM      6  C   UNL     1       0.573  -0.519   4.602  0.00  0.00    +0.002 A 
ATOM      7  C   UNL     1      -0.675  -1.108   4.646  0.00  0.00    +0.023 A 
ATOM      8  C   UNL     1      -1.165  -1.783   3.542  0.00  0.00    +0.033 A 
ATOM      9  N   UNL     1      -2.436  -2.390   3.310  0.00  0.00    -0.334 N 
ATOM     10  C   UNL     1      -2.593  -2.210   1.908  0.00  0.00    +0.095 C 
ATOM     11  C   UNL     1      -3.456  -2.772   0.878  0.00  0.00    +0.223 C 
ATOM     12  O   UNL     1      -4.574  -3.219   1.029  0.00  0.00    -0.275 OA
ATOM     13  N   UNL     1      -2.750  -2.695  -0.302  0.00  0.00    -0.285 N 
ATOM     14  C   UNL     1      -3.342  -3.030   4.267  0.00  0.00    +0.128 C 
ENDROOT
BRANCH  13  15
ATOM     15  C   UNL     1      -3.283  -3.010  -1.630  0.00  0.00    +0.077 C 
ATOM     16  C   UNL     1      -4.559  -2.201  -1.872  0.00  0.00    +0.022 C 
ATOM     17  C   UNL     1      -5.116  -2.529  -3.259  0.00  0.00    +0.002 C 
ATOM     18  C   UNL     1      -5.436  -4.023  -3.339  0.00  0.00    +0.000 C 
ATOM     19  C   UNL     1      -4.161  -4.832  -3.097  0.00  0.00    +0.002 C 
ATOM     20  C   UNL     1      -3.604  -4.504  -1.710  0.00  0.00    +0.022 C 
ENDBRANCH  13  15
BRANCH   1  23
ATOM     21  C   UNL     1      -2.122   1.426  -0.799  0.00  0.00    +0.128 C 
ATOM     22  N   UNL     1      -2.161  -0.038  -0.806  0.00  0.00    -0.317 N 
ATOM     23  C   UNL     1      -1.248  -0.740  -0.105  0.00  0.00    +0.235 C 
ATOM     24  O   UNL     1      -0.341  -0.163   0.457  0.00  0.00    -0.274 OA
ATOM     25  H   UNL     1      -2.843  -0.503  -1.315  0.00  0.00    +0.148 HD
ENDBRANCH   1  23
BRANCH   2  26
ATOM     26  C   UNL     1      -0.927  -4.207   1.549  0.00  0.00    +0.226 C 
ATOM     27  O   UNL     1      -1.704  -4.896   2.177  0.00  0.00    -0.275 OA
ATOM     28  N   UNL     1       0.148  -4.768   0.961  0.00  0.00    -0.318 N 
ATOM     29  C   UNL     1       0.379  -6.210   1.079  0.00  0.00    +0.128 C 
ATOM     30  H   UNL     1       0.768  -4.217   0.459  0.00  0.00    +0.148 HD
ENDBRANCH   2  26
BRANCH  10  31
ATOM     31  N   UNL     1      -2.537  -0.764   1.655  0.00  0.00    +0.399 N 
ATOM     32  H   UNL     1      -2.874  -0.573   0.724  0.00  0.00    -0.086 HD
ATOM     33  H   UNL     1      -3.114  -0.282   2.328  0.00  0.00    -0.086 HD
ATOM     34  H   UNL     1      -1.583  -0.445   1.740  0.00  0.00    -0.086 HD
ENDBRANCH  10  31
TORSDOF 4
