REMARK  Name = ZINC13500682
REMARK  13 active torsions:
REMARK  status: ('A' for Active; 'I' for Inactive)
REMARK    1  A    between atoms: C_1  and  C_2
REMARK    2  A    between atoms: C_2  and  C_3
REMARK    3  A    between atoms: C_3  and  C_4
REMARK    4  A    between atoms: C_3  and  C_5
REMARK    5  A    between atoms: C_3  and  N_6
REMARK    6  A    between atoms: C_7  and  C_11
REMARK    7  A    between atoms: C_11  and  C_13
REMARK    8  A    between atoms: C_11  and  N_71
REMARK    9  A    between atoms: C_13  and  C_14
REMARK   10  A    between atoms: C_13  and  C_15
REMARK   11  A    between atoms: C_16  and  C_17
REMARK   12  A    between atoms: C_16  and  N_71
REMARK   13  A    between atoms: C_32  and  N_71
REMARK                            x       y       z     vdW  Elec       q    Type
REMARK                         _______ _______ _______ _____ _____    ______ ____
ROOT
ATOM      1  N   UNL     1      -0.079  -0.013   3.004  0.00  0.00    +0.391 N 
ATOM      2  H   UNL     1       0.209  -0.258   3.959  0.00  0.00    -0.080 HD
ENDROOT
BRANCH   1   3
ATOM      3  C   UNL     1       1.070  -0.199   2.094  0.00  0.00    -0.067 C 
ATOM      4  C   UNL     1       1.754  -1.547   2.404  0.00  0.00    -0.015 C 
ATOM      5  C   UNL     1       3.266  -1.253   2.234  0.00  0.00    -0.002 C 
ATOM      6  C   UNL     1       3.404   0.177   2.812  0.00  0.00    -0.002 C 
ATOM      7  C   UNL     1       2.119   0.897   2.352  0.00  0.00    -0.015 C 
ENDBRANCH   1   3
BRANCH   1   8
ATOM      8  C   UNL     1      -0.518   1.398   2.982  0.00  0.00    +0.006 C 
BRANCH   8  10
ATOM      9  N   UNL     1      -1.533   2.679   1.023  0.00  0.00    -0.225 N 
ATOM     10  C   UNL     1      -1.500   1.626   1.862  0.00  0.00    +0.139 A 
ATOM     11  N   UNL     1      -2.491   0.840   1.518  0.00  0.00    -0.115 NA
ATOM     12  N   UNL     1      -3.099   1.379   0.518  0.00  0.00    -0.023 NA
ATOM     13  N   UNL     1      -2.520   2.489   0.214  0.00  0.00    -0.043 NA
BRANCH   9  14
ATOM     14  C   UNL     1      -0.618   3.823   1.027  0.00  0.00    +0.061 C 
ATOM     15  C   UNL     1      -0.582   4.443   2.425  0.00  0.00    +0.036 C 
ATOM     16  C   UNL     1       0.786   3.354   0.640  0.00  0.00    +0.036 C 
BRANCH  14  18
ATOM     17  C   UNL     1      -0.148   6.061   0.022  0.00  0.00    +0.006 C 
ATOM     18  C   UNL     1      -1.103   4.866   0.018  0.00  0.00    +0.026 C 
ENDBRANCH  14  18
ENDBRANCH   9  14
ENDBRANCH   8  10
BRANCH   8  19
ATOM     19  C   UNL     1      -1.185   1.723   4.319  0.00  0.00    -0.024 C 
ATOM     20  C   UNL     1      -0.150   1.629   5.442  0.00  0.00    +0.006 C 
ATOM     21  C   UNL     1      -2.314   0.724   4.582  0.00  0.00    +0.006 C 
ENDBRANCH   8  19
ENDBRANCH   1   8
BRANCH   1  22
ATOM     22  C   UNL     1      -1.193  -0.895   2.598  0.00  0.00    -0.036 C 
BRANCH  22  23
ATOM     23  C   UNL     1      -0.873  -2.305   3.021  0.00  0.00    +0.001 A 
ATOM     24  C   UNL     1      -1.027  -2.673   4.318  0.00  0.00    +0.017 A 
ATOM     25  C   UNL     1      -0.713  -4.050   4.697  0.00  0.00    +0.002 A 
ATOM     26  C   UNL     1      -0.857  -4.487   6.019  0.00  0.00    +0.059 A 
ATOM     27  C   UNL     1      -0.550  -5.789   6.346  0.00  0.00    +0.167 A 
ATOM     28  C   UNL     1      -0.096  -6.676   5.362  0.00  0.00    +0.168 A 
ATOM     29  C   UNL     1       0.051  -6.253   4.053  0.00  0.00    +0.075 A 
ATOM     30  C   UNL     1      -0.254  -4.942   3.708  0.00  0.00    +0.053 A 
ATOM     31  N   UNL     1      -0.113  -4.503   2.407  0.00  0.00    -0.322 N 
ATOM     32  H   UNL     1       0.204  -5.117   1.726  0.00  0.00    +0.169 HD
ATOM     33  C   UNL     1      -0.408  -3.235   2.069  0.00  0.00    +0.251 A 
ATOM     34  O   UNL     1      -0.272  -2.882   0.910  0.00  0.00    -0.268 OA
ATOM     35  O   UNL     1       0.132  -7.889   5.944  0.00  0.00    -0.453 OA
ATOM     36  C   UNL     1      -0.574  -7.854   7.198  0.00  0.00    +0.466 C 
ATOM     37  O   UNL     1      -0.603  -6.455   7.538  0.00  0.00    -0.453 OA
ENDBRANCH  22  23
ENDBRANCH   1  22
TORSDOF 8
