REMARK  Name = ZINC35969671
REMARK  12 active torsions:
REMARK  status: ('A' for Active; 'I' for Inactive)
REMARK    1  A    between atoms: C_1  and  N_2
REMARK    2  A    between atoms: N_2  and  C_3
REMARK    3  A    between atoms: N_2  and  C_4
REMARK    4  A    between atoms: C_4  and  C_5
REMARK    5  A    between atoms: C_5  and  N_6
REMARK    6  A    between atoms: C_7  and  C_9
REMARK    7  A    between atoms: C_9  and  N_10
REMARK    8  A    between atoms: C_16  and  C_25
REMARK    9  A    between atoms: N_21  and  C_22
REMARK   10  A    between atoms: C_22  and  C_23
REMARK   11  A    between atoms: C_29  and  O_31
REMARK   12  A    between atoms: O_31  and  C_32
REMARK                            x       y       z     vdW  Elec       q    Type
REMARK                         _______ _______ _______ _____ _____    ______ ____
ROOT
ATOM      1  N   UNL     1      -3.554  -7.721  -0.740  0.00  0.00    -0.283 N 
ATOM      2  C   UNL     1      -3.666  -8.760  -1.775  0.00  0.00    +0.160 C 
ATOM      3  C   UNL     1      -3.914 -10.043  -1.013  0.00  0.00    +0.043 C 
ATOM      4  C   UNL     1      -3.930  -9.711   0.294  0.00  0.00    +0.058 C 
ATOM      5  C   UNL     1      -3.710  -8.327   0.451  0.00  0.00    +0.247 C 
ATOM      6  O   UNL     1      -3.669  -7.754   1.525  0.00  0.00    -0.270 OA
ATOM      7  C   UNL     1      -4.164 -10.820   1.300  0.00  0.00    +0.142 C 
ATOM      8  N   UNL     1      -4.355 -12.178   0.762  0.00  0.00    -0.288 N 
ATOM      9  C   UNL     1      -4.312 -12.352  -0.573  0.00  0.00    +0.307 C 
ATOM     10  O   UNL     1      -4.469 -13.469  -1.026  0.00  0.00    -0.252 OA
ATOM     11  N   UNL     1      -4.102 -11.333  -1.418  0.00  0.00    -0.253 N 
ATOM     12  H   UNL     1      -4.508 -12.929   1.356  0.00  0.00    +0.151 HD
ENDROOT
BRANCH   7  13
ATOM     13  C   UNL     1      -5.385 -10.464   2.108  0.00  0.00    -0.019 A 
ATOM     14  C   UNL     1      -6.647 -10.695   1.591  0.00  0.00    +0.006 A 
ATOM     15  C   UNL     1      -7.769 -10.371   2.330  0.00  0.00    +0.004 A 
ATOM     16  C   UNL     1      -7.633  -9.814   3.588  0.00  0.00    +0.046 A 
ATOM     17  C   UNL     1      -6.368  -9.582   4.108  0.00  0.00    +0.129 A 
ATOM     18  C   UNL     1      -5.243  -9.914   3.367  0.00  0.00    +0.052 A 
BRANCH  17  19
ATOM     19  O   UNL     1      -6.231  -9.034   5.345  0.00  0.00    -0.456 OA
BRANCH  19  20
ATOM     20  C   UNL     1      -4.973  -8.818   5.811  0.00  0.00    +0.128 A 
ATOM     21  C   UNL     1      -4.339  -7.609   5.564  0.00  0.00    +0.046 A 
ATOM     22  C   UNL     1      -3.060  -7.392   6.039  0.00  0.00    +0.004 A 
ATOM     23  C   UNL     1      -2.412  -8.379   6.760  0.00  0.00    +0.000 A 
ATOM     24  C   UNL     1      -3.042  -9.584   7.006  0.00  0.00    +0.004 A 
ATOM     25  C   UNL     1      -4.323  -9.804   6.539  0.00  0.00    +0.046 A 
ENDBRANCH  19  20
ENDBRANCH  17  19
ENDBRANCH   7  13
BRANCH   1  26
ATOM     26  C   UNL     1      -3.310  -6.294  -0.964  0.00  0.00    +0.204 C 
BRANCH  26  28
ATOM     27  N   UNL     1      -1.363  -4.782  -1.163  0.00  0.00    -0.316 N 
ATOM     28  C   UNL     1      -1.826  -6.033  -0.972  0.00  0.00    +0.230 C 
ATOM     29  O   UNL     1      -1.048  -6.949  -0.807  0.00  0.00    -0.274 OA
ATOM     30  H   UNL     1      -1.985  -4.049  -1.295  0.00  0.00    +0.149 HD
BRANCH  27  31
ATOM     31  C   UNL     1       0.080  -4.528  -1.171  0.00  0.00    +0.085 C 
BRANCH  31  32
ATOM     32  C   UNL     1       0.334  -3.038  -1.405  0.00  0.00    -0.061 C 
BRANCH  32  34
ATOM     33  C   UNL     1       2.029  -1.376  -1.756  0.00  0.00    -0.097 C 
ATOM     34  N   UNL     1       1.781  -2.783  -1.413  0.00  0.00    +0.377 N 
ATOM     35  C   UNL     1       2.336  -3.068  -0.083  0.00  0.00    -0.097 C 
ATOM     36  H   UNL     1       2.223  -3.379  -2.097  0.00  0.00    -0.083 HD
ENDBRANCH  32  34
ENDBRANCH  31  32
ENDBRANCH  27  31
ENDBRANCH  26  28
ENDBRANCH   1  26
BRANCH  11  37
ATOM     37  C   UNL     1      -4.072 -11.620  -2.854  0.00  0.00    +0.141 C 
BRANCH  37  38
ATOM     38  C   UNL     1      -2.661 -11.945  -3.272  0.00  0.00    -0.015 C 
ATOM     39  C   UNL     1      -2.404 -13.071  -3.890  0.00  0.00    +0.005 C 
ENDBRANCH  37  38
ENDBRANCH  11  37
TORSDOF 10
