REMARK  Name = ZINC67038576
REMARK  6 active torsions:
REMARK  status: ('A' for Active; 'I' for Inactive)
REMARK    1  A    between atoms: C_2  and  C_12
REMARK    2  A    between atoms: C_12  and  C_13
REMARK    3  A    between atoms: C_13  and  N_14
REMARK    4  A    between atoms: N_17  and  N_18
REMARK    5  A    between atoms: C_19  and  C_21
REMARK    6  A    between atoms: C_21  and  C_22
REMARK                            x       y       z     vdW  Elec       q    Type
REMARK                         _______ _______ _______ _____ _____    ______ ____
ROOT
ATOM      1  N   UNL     1       1.127   5.566   1.463  0.00  0.00    -0.298 N 
ATOM      2  C   UNL     1       1.127   6.234   2.634  0.00  0.00    +0.316 C 
ATOM      3  O   UNL     1       1.147   5.620   3.684  0.00  0.00    -0.251 OA
ATOM      4  N   UNL     1       1.105   7.581   2.641  0.00  0.00    -0.218 N 
ATOM      5  H   UNL     1       1.111   6.055   0.626  0.00  0.00    +0.150 HD
ATOM      6  H   UNL     1       1.106   8.062   3.484  0.00  0.00    +0.174 HD
ENDROOT
BRANCH   4   7
ATOM      7  N   UNL     1       1.083   8.288   1.432  0.00  0.00    -0.233 N 
ATOM      8  C   UNL     1       1.061   9.635   1.439  0.00  0.00    +0.229 C 
ATOM      9  O   UNL     1       1.061  10.236   2.493  0.00  0.00    -0.274 OA
ATOM     10  H   UNL     1       1.083   7.807   0.589  0.00  0.00    +0.173 HD
BRANCH   8  11
ATOM     11  C   UNL     1       1.036  10.396   0.138  0.00  0.00    +0.101 C 
BRANCH  11  12
ATOM     12  C   UNL     1       1.015  11.898   0.426  0.00  0.00    -0.002 C 
ATOM     13  C   UNL     1      -0.292  12.263   1.133  0.00  0.00    +0.004 C 
ATOM     14  C   UNL     1      -0.314  13.766   1.421  0.00  0.00    +0.000 C 
ATOM     15  C   UNL     1      -0.213  14.539   0.104  0.00  0.00    +0.000 C 
ATOM     16  C   UNL     1       1.094  14.174  -0.603  0.00  0.00    +0.000 C 
ATOM     17  C   UNL     1       1.115  12.671  -0.891  0.00  0.00    +0.004 C 
ENDBRANCH  11  12
ENDBRANCH   8  11
ENDBRANCH   4   7
BRANCH   1  18
ATOM     18  C   UNL     1       1.151   4.101   1.455  0.00  0.00    +0.110 C 
BRANCH  18  19
ATOM     19  C   UNL     1       1.145   3.599   0.010  0.00  0.00    +0.054 C 
BRANCH  19  21
ATOM     20  C   UNL     1      -0.017   1.383   0.010  0.00  0.00    +0.053 A 
ATOM     21  C   UNL     1       1.170   2.092   0.002  0.00  0.00    -0.041 A 
ATOM     22  C   UNL     1       2.378   1.422  -0.013  0.00  0.00    +0.027 A 
ATOM     23  C   UNL     1       2.405   0.039  -0.023  0.00  0.00    +0.086 A 
ATOM     24  C   UNL     1       1.217  -0.679  -0.016  0.00  0.00    +0.180 A 
ATOM     25  C   UNL     1       0.002  -0.004   0.002  0.00  0.00    +0.164 A 
ATOM     26  O   UNL     1      -1.175  -0.688   0.016  0.00  0.00    -0.485 OA
ATOM     27  C   UNL     1      -1.122  -2.066  -0.368  0.00  0.00    +0.270 C 
ATOM     28  C   UNL     1       0.060  -2.723   0.356  0.00  0.00    +0.270 C 
ATOM     29  O   UNL     1       1.258  -2.039  -0.030  0.00  0.00    -0.483 OA
ATOM     30 CL   UNL     1       3.924  -0.800  -0.043  0.00  0.00    -0.080 Cl
ENDBRANCH  19  21
ENDBRANCH  18  19
ENDBRANCH   1  18
TORSDOF 6
