REMARK  Name = ZINC01341848
REMARK  11 active torsions:
REMARK  status: ('A' for Active; 'I' for Inactive)
REMARK    1  A    between atoms: C_1  and  N_2
REMARK    2  A    between atoms: N_2  and  C_3
REMARK    3  A    between atoms: N_2  and  C_4
REMARK    4  A    between atoms: C_7  and  C_10
REMARK    5  A    between atoms: C_10  and  C_12
REMARK    6  A    between atoms: C_10  and  N_22
REMARK    7  A    between atoms: N_14  and  C_15
REMARK    8  A    between atoms: C_15  and  C_16
REMARK    9  A    between atoms: N_22  and  C_23
REMARK   10  A    between atoms: C_32  and  C_34
REMARK   11  A    between atoms: C_34  and  N_35
REMARK                            x       y       z     vdW  Elec       q    Type
REMARK                         _______ _______ _______ _____ _____    ______ ____
ROOT
ATOM      1  N   UNL     1      -0.990  -2.220  -5.806  0.00  0.00    -0.254 N 
ATOM      2  C   UNL     1      -1.398  -3.022  -6.809  0.00  0.00    +0.242 C 
ATOM      3  O   UNL     1      -0.754  -4.009  -7.097  0.00  0.00    -0.273 OA
ENDROOT
BRANCH   1   4
ATOM      4  C   UNL     1      -1.676  -1.027  -5.540  0.00  0.00    +0.041 A 
ATOM      5  C   UNL     1      -1.645   0.011  -6.461  0.00  0.00    +0.027 A 
ATOM      6  C   UNL     1      -2.321   1.188  -6.200  0.00  0.00    +0.051 A 
ATOM      7  C   UNL     1      -3.031   1.335  -5.019  0.00  0.00    +0.166 A 
ATOM      8  C   UNL     1      -3.064   0.294  -4.093  0.00  0.00    +0.168 A 
ATOM      9  C   UNL     1      -2.390  -0.887  -4.358  0.00  0.00    +0.073 A 
ATOM     10  O   UNL     1      -3.821   0.683  -3.026  0.00  0.00    -0.453 OA
ATOM     11  C   UNL     1      -3.914   2.116  -3.122  0.00  0.00    +0.466 C 
ATOM     12  O   UNL     1      -3.769   2.375  -4.531  0.00  0.00    -0.453 OA
ENDBRANCH   1   4
BRANCH   1  13
ATOM     13  C   UNL     1       0.171  -2.594  -4.995  0.00  0.00    +0.197 C 
BRANCH  13  17
ATOM     14  C   UNL     1       0.583   0.150  -1.744  0.00  0.00    +0.029 A 
ATOM     15  C   UNL     1       0.448  -1.210  -1.494  0.00  0.00    +0.023 A 
ATOM     16  C   UNL     1       0.315  -2.094  -2.547  0.00  0.00    +0.008 A 
ATOM     17  C   UNL     1       0.316  -1.626  -3.849  0.00  0.00    -0.018 A 
ATOM     18  C   UNL     1       0.449  -0.273  -4.101  0.00  0.00    +0.008 A 
ATOM     19  C   UNL     1       0.577   0.617  -3.052  0.00  0.00    +0.023 A 
BRANCH  14  21
ATOM     20  C   UNL     1       0.852   2.481  -0.946  0.00  0.00    +0.129 C 
ATOM     21  N   UNL     1       0.717   1.047  -0.682  0.00  0.00    -0.336 N 
ATOM     22  C   UNL     1       0.723   0.553   0.698  0.00  0.00    +0.129 C 
ENDBRANCH  14  21
ENDBRANCH  13  17
BRANCH  13  23
ATOM     23  C   UNL     1       1.413  -2.553  -5.847  0.00  0.00    +0.239 C 
ATOM     24  O   UNL     1       1.337  -2.241  -7.016  0.00  0.00    -0.273 OA
ATOM     25  N   UNL     1       2.610  -2.862  -5.309  0.00  0.00    -0.311 N 
ATOM     26  H   UNL     1       2.671  -3.111  -4.373  0.00  0.00    +0.149 HD
BRANCH  25  27
ATOM     27  C   UNL     1       3.818  -2.822  -6.137  0.00  0.00    +0.135 C 
BRANCH  27  28
ATOM     28  C   UNL     1       5.030  -3.213  -5.290  0.00  0.00    +0.135 C 
ATOM     29  C   UNL     1       6.325  -3.143  -6.138  0.00  0.00    +0.035 C 
ATOM     30  C   UNL     1       7.391  -2.922  -5.032  0.00  0.00    +0.031 C 
ATOM     31  C   UNL     1       6.625  -2.061  -4.005  0.00  0.00    +0.160 C 
ATOM     32  O   UNL     1       5.224  -2.264  -4.228  0.00  0.00    -0.375 OA
ENDBRANCH  27  28
ENDBRANCH  25  27
ENDBRANCH  13  23
ENDBRANCH   1  13
BRANCH   2  33
ATOM     33  C   UNL     1      -2.656  -2.695  -7.572  0.00  0.00    +0.242 C 
BRANCH  33  34
ATOM     34  N   UNL     1      -2.952  -3.778  -8.513  0.00  0.00    -0.235 N 
ATOM     35  C   UNL     1      -2.514  -3.882  -9.812  0.00  0.00    +0.090 A 
ATOM     36  C   UNL     1      -1.714  -3.090 -10.629  0.00  0.00    +0.029 A 
ATOM     37  C   UNL     1      -1.457  -3.481 -11.913  0.00  0.00    +0.002 A 
ATOM     38  C   UNL     1      -1.987  -4.665 -12.411  0.00  0.00    +0.002 A 
ATOM     39  C   UNL     1      -2.773  -5.460 -11.630  0.00  0.00    +0.032 A 
ATOM     40  C   UNL     1      -3.053  -5.081 -10.309  0.00  0.00    +0.113 A 
ATOM     41  N   UNL     1      -3.778  -5.645  -9.323  0.00  0.00    -0.129 NA
ATOM     42  N   UNL     1      -3.735  -4.915  -8.264  0.00  0.00    -0.064 NA
ENDBRANCH  33  34
ENDBRANCH   2  33
TORSDOF 9
