REMARK  Name = ZINC49204098
REMARK  7 active torsions:
REMARK  status: ('A' for Active; 'I' for Inactive)
REMARK    1  A    between atoms: C_1  and  C_2
REMARK    2  A    between atoms: C_2  and  C_4
REMARK    3  A    between atoms: C_2  and  O_21
REMARK    4  A    between atoms: C_4  and  N_5
REMARK    5  A    between atoms: N_8  and  C_9
REMARK    6  A    between atoms: C_12  and  C_19
REMARK    7  A    between atoms: C_14  and  C_15
REMARK                            x       y       z     vdW  Elec       q    Type
REMARK                         _______ _______ _______ _____ _____    ______ ____
ROOT
ATOM      1  C   UNL     1       1.613  -4.638  -3.537  0.00  0.00    +0.046 A 
ATOM      2  C   UNL     1       1.696  -3.984  -4.762  0.00  0.00    +0.025 A 
ATOM      3  C   UNL     1       2.182  -4.647  -5.867  0.00  0.00    +0.021 A 
ATOM      4  C   UNL     1       2.591  -5.979  -5.756  0.00  0.00    +0.052 A 
ATOM      5  C   UNL     1       2.506  -6.632  -4.524  0.00  0.00    +0.033 A 
ATOM      6  C   UNL     1       2.025  -5.961  -3.422  0.00  0.00    +0.077 A 
ENDROOT
BRANCH   1  10
ATOM      7  N   UNL     1       0.621  -1.958  -1.333  0.00  0.00    -0.297 N 
ATOM      8  C   UNL     1       1.196  -2.618  -2.357  0.00  0.00    +0.304 C 
ATOM      9  O   UNL     1       1.783  -2.001  -3.225  0.00  0.00    -0.253 OA
ATOM     10  N   UNL     1       1.121  -3.962  -2.420  0.00  0.00    -0.269 N 
ATOM     11  H   UNL     1       0.153  -2.450  -0.641  0.00  0.00    +0.150 HD
ATOM     12  H   UNL     1       0.725  -4.460  -1.688  0.00  0.00    +0.156 HD
BRANCH   7  13
ATOM     13  C   UNL     1       0.703  -0.496  -1.266  0.00  0.00    +0.136 C 
BRANCH  13  15
ATOM     14  C   UNL     1      -0.049   1.528  -0.008  0.00  0.00    +0.039 C 
ATOM     15  C   UNL     1      -0.026  -0.002  -0.015  0.00  0.00    +0.129 C 
BRANCH  15  16
ATOM     16  O   UNL     1       0.654  -0.473   1.151  0.00  0.00    -0.391 OA
ATOM     17  H   UNL     1       0.246  -0.197   1.983  0.00  0.00    +0.210 HD
ENDBRANCH  15  16
ENDBRANCH  13  15
ENDBRANCH   7  13
ENDBRANCH   1  10
BRANCH   6  18
ATOM     18  C   UNL     1       1.938  -6.663  -2.092  0.00  0.00    +0.419 C 
ATOM     19  F   UNL     1       2.405  -7.975  -2.225  0.00  0.00    -0.166 F 
ATOM     20  F   UNL     1       2.721  -5.983  -1.153  0.00  0.00    -0.166 F 
ATOM     21  F   UNL     1       0.607  -6.684  -1.661  0.00  0.00    -0.166 F 
ENDBRANCH   6  18
BRANCH   4  22
ATOM     22  C   UNL     1       3.096  -6.672  -6.903  0.00  0.00    +0.099 C 
ATOM     23  N   UNL     1       3.497  -7.222  -7.813  0.00  0.00    -0.191 NA
ENDBRANCH   4  22
TORSDOF 6
