REMARK  Name = ZINC09011957
REMARK  2 active torsions:
REMARK  status: ('A' for Active; 'I' for Inactive)
REMARK    1  A    between atoms: C_1  and  C_2
REMARK    2  A    between atoms: C_7  and  C_22
REMARK                            x       y       z     vdW  Elec       q    Type
REMARK                         _______ _______ _______ _____ _____    ______ ____
ROOT
ATOM      1  C   UNL     1      -0.019   1.526   0.010  0.00  0.00    +0.008 C 
ATOM      2  C   UNL     1       0.002  -0.004   0.002  0.00  0.00    -0.001 C 
ATOM      3  C   UNL     1       0.726  -0.501  -1.252  0.00  0.00    +0.055 C 
ATOM      4  C   UNL     1       0.798  -2.006  -1.230  0.00  0.00    +0.020 C 
ATOM      5  C   UNL     1       0.853  -2.688  -0.065  0.00  0.00    +0.041 C 
ATOM      6  C   UNL     1       0.920  -4.194  -0.067  0.00  0.00    +0.173 C 
ATOM      7  N   UNL     1       1.317  -4.706  -1.372  0.00  0.00    -0.243 NA
ATOM      8  C   UNL     1       1.256  -3.994  -2.450  0.00  0.00    +0.188 C 
ATOM      9  N   UNL     1       0.813  -2.690  -2.417  0.00  0.00    -0.290 N 
ATOM     10  N   UNL     1       1.641  -4.548  -3.652  0.00  0.00    -0.241 N 
ATOM     11  C   UNL     1       2.087  -5.854  -3.698  0.00  0.00    +0.295 A 
ATOM     12  N   UNL     1       2.178  -6.651  -2.666  0.00  0.00    -0.195 NA
ATOM     13  C   UNL     1       2.654  -7.856  -3.085  0.00  0.00    +0.111 A 
ATOM     14  C   UNL     1       2.946  -9.056  -2.435  0.00  0.00    +0.031 A 
ATOM     15  C   UNL     1       3.429 -10.124  -3.158  0.00  0.00    +0.002 A 
ATOM     16  C   UNL     1       3.627 -10.014  -4.526  0.00  0.00    +0.004 A 
ATOM     17  C   UNL     1       3.342  -8.833  -5.181  0.00  0.00    +0.048 A 
ATOM     18  C   UNL     1       2.856  -7.748  -4.469  0.00  0.00    +0.157 A 
ATOM     19  O   UNL     1       2.487  -6.493  -4.812  0.00  0.00    -0.424 OA
ATOM     20  C   UNL     1       0.843  -2.016   1.169  0.00  0.00    +0.163 C 
ATOM     21  O   UNL     1       0.908  -2.657   2.199  0.00  0.00    -0.292 OA
ATOM     22  C   UNL     1       0.751  -0.515   1.237  0.00  0.00    +0.083 C 
ATOM     23  H   UNL     1       0.512  -2.257  -3.231  0.00  0.00    +0.154 HD
ATOM     24  H   UNL     1       1.599  -4.021  -4.465  0.00  0.00    +0.159 HD
ENDROOT
BRANCH   6  25
ATOM     25  C   UNL     1      -0.435  -4.749   0.287  0.00  0.00    -0.013 A 
ATOM     26  C   UNL     1      -1.423  -4.826  -0.675  0.00  0.00    +0.044 A 
ATOM     27  C   UNL     1      -2.670  -5.335  -0.350  0.00  0.00    +0.126 A 
ATOM     28  C   UNL     1      -2.925  -5.767   0.940  0.00  0.00    +0.076 A 
ATOM     29  C   UNL     1      -1.934  -5.690   1.903  0.00  0.00    +0.126 A 
ATOM     30  C   UNL     1      -0.687  -5.185   1.575  0.00  0.00    +0.044 A 
ATOM     31  F   UNL     1      -2.182  -6.111   3.163  0.00  0.00    -0.205 F 
ATOM     32  F   UNL     1      -3.636  -5.410  -1.292  0.00  0.00    -0.205 F 
ENDBRANCH   6  25
TORSDOF 1
