REMARK  Name = ZINC14023391
REMARK  9 active torsions:
REMARK  status: ('A' for Active; 'I' for Inactive)
REMARK    1  A    between atoms: C_1  and  C_2
REMARK    2  A    between atoms: C_2  and  C_3
REMARK    3  A    between atoms: C_3  and  N_66
REMARK    4  A    between atoms: C_9  and  N_14
REMARK    5  A    between atoms: C_10  and  C_11
REMARK    6  A    between atoms: C_15  and  C_17
REMARK    7  A    between atoms: N_22  and  S_24
REMARK    8  A    between atoms: S_24  and  C_27
REMARK    9  A    between atoms: C_30  and  C_33
REMARK                            x       y       z     vdW  Elec       q    Type
REMARK                         _______ _______ _______ _____ _____    ______ ____
ROOT
ATOM      1  N   UNL     1       4.756   4.183  -0.294  0.00  0.00    -0.279 N 
ATOM      2  C   UNL     1       4.509   5.464  -0.629  0.00  0.00    +0.222 C 
ATOM      3  O   UNL     1       3.368   5.835  -0.807  0.00  0.00    -0.275 OA
ATOM      4  H   UNL     1       5.668   3.886  -0.151  0.00  0.00    +0.155 HD
ENDROOT
BRANCH   1  10
ATOM      5  C   UNL     1       0.918  -0.518   1.030  0.00  0.00    -0.074 C 
ATOM      6  C   UNL     1       2.370  -0.253   0.622  0.00  0.00    +0.018 C 
ATOM      7  C   UNL     1       2.501   1.223   0.266  0.00  0.00    -0.027 A 
ATOM      8  C   UNL     1       1.397   1.958  -0.001  0.00  0.00    -0.021 A 
ATOM      9  S   UNL     1       2.009   3.579  -0.354  0.00  0.00    -0.079 S 
ATOM     10  C   UNL     1       3.706   3.288  -0.152  0.00  0.00    +0.084 A 
ATOM     11  C   UNL     1       3.759   1.942   0.183  0.00  0.00    +0.068 A 
ATOM     12  C   UNL     1      -0.018   1.471   0.010  0.00  0.00    -0.035 C 
ATOM     13  N   UNL     1       0.012  -0.012  -0.022  0.00  0.00    +0.383 N 
ATOM     14  H   UNL     1       0.360  -0.319  -0.938  0.00  0.00    -0.081 HD
BRANCH  11  15
ATOM     15  C   UNL     1       5.037   1.272   0.446  0.00  0.00    +0.244 C 
ATOM     16  O   UNL     1       5.644   0.742  -0.465  0.00  0.00    -0.270 OA
ATOM     17  N   UNL     1       5.538   1.245   1.697  0.00  0.00    -0.325 N 
ATOM     18  H   UNL     1       5.053   1.667   2.423  0.00  0.00    +0.145 HD
ATOM     19  H   UNL     1       6.383   0.802   1.871  0.00  0.00    +0.145 HD
ENDBRANCH  11  15
BRANCH  13  20
ATOM     20  C   UNL     1      -1.350  -0.550   0.181  0.00  0.00    -0.079 C 
BRANCH  20  22
ATOM     21  C   UNL     1      -3.268  -0.769   1.767  0.00  0.00    +0.002 C 
ATOM     22  C   UNL     1      -1.860  -0.201   1.580  0.00  0.00    -0.022 C 
ENDBRANCH  20  22
ENDBRANCH  13  20
ENDBRANCH   1  10
BRANCH   2  23
ATOM     23  C   UNL     1       5.650   6.436  -0.783  0.00  0.00    +0.091 C 
ATOM     24  C   UNL     1       6.411   6.544   0.540  0.00  0.00    +0.015 C 
ATOM     25  C   UNL     1       7.590   7.506   0.376  0.00  0.00    +0.018 C 
ATOM     26  C   UNL     1       7.062   8.896   0.007  0.00  0.00    +0.109 C 
ATOM     27  N   UNL     1       6.209   8.778  -1.184  0.00  0.00    -0.176 NA
ATOM     28  C   UNL     1       5.100   7.814  -1.165  0.00  0.00    +0.122 C 
BRANCH  27  29
ATOM     29  S   UNL     1       6.493   9.712  -2.521  0.00  0.00    +0.061 S 
ATOM     30  O   UNL     1       7.863  10.085  -2.473  0.00  0.00    -0.153 OA
ATOM     31  O   UNL     1       5.930   9.020  -3.627  0.00  0.00    -0.153 OA
BRANCH  29  32
ATOM     32  C   UNL     1       5.560  11.195  -2.328  0.00  0.00    +0.105 A 
ATOM     33  C   UNL     1       4.267  11.266  -2.812  0.00  0.00    +0.029 A 
ATOM     34  C   UNL     1       3.534  12.428  -2.656  0.00  0.00    +0.005 A 
ATOM     35  C   UNL     1       4.097  13.521  -2.025  0.00  0.00    -0.050 A 
ATOM     36  C   UNL     1       5.392  13.451  -1.545  0.00  0.00    +0.005 A 
ATOM     37  C   UNL     1       6.123  12.288  -1.697  0.00  0.00    +0.029 A 
ATOM     38  C   UNL     1       3.299  14.788  -1.859  0.00  0.00    +0.044 C 
ENDBRANCH  29  32
ENDBRANCH  27  29
ENDBRANCH   2  23
TORSDOF 7
