REMARK  Name = ZINC13502589
REMARK  8 active torsions:
REMARK  status: ('A' for Active; 'I' for Inactive)
REMARK    1  A    between atoms: C_1  and  C_2
REMARK    2  A    between atoms: C_2  and  C_3
REMARK    3  A    between atoms: N_5  and  N_6
REMARK    4  A    between atoms: C_7  and  C_9
REMARK    5  A    between atoms: C_9  and  S_10
REMARK    6  A    between atoms: S_10  and  C_11
REMARK    7  A    between atoms: C_16  and  C_29
REMARK    8  A    between atoms: C_24  and  C_28
REMARK                            x       y       z     vdW  Elec       q    Type
REMARK                         _______ _______ _______ _____ _____    ______ ____
ROOT
ATOM      1  C   UNL     1       5.668   4.717   1.217  0.00  0.00    +0.198 A 
ATOM      2  N   UNL     1       4.783   4.997   0.288  0.00  0.00    -0.122 NA
ATOM      3  N   UNL     1       3.853   4.107   0.274  0.00  0.00    -0.128 NA
ATOM      4  C   UNL     1       4.092   3.205   1.194  0.00  0.00    +0.173 A 
ATOM      5  N   UNL     1       5.262   3.563   1.829  0.00  0.00    -0.257 N 
ATOM      6  C   UNL     1       5.763   2.800   2.842  0.00  0.00    +0.122 A 
ATOM      7  N   UNL     1       5.157   1.717   3.240  0.00  0.00    -0.226 NA
ATOM      8  C   UNL     1       4.024   1.292   2.688  0.00  0.00    +0.114 A 
ATOM      9  C   UNL     1       3.396   1.978   1.638  0.00  0.00    +0.056 A 
ATOM     10  C   UNL     1       2.192   1.419   1.141  0.00  0.00    -0.024 A 
ATOM     11  C   UNL     1       1.746   0.276   1.713  0.00  0.00    -0.004 A 
ATOM     12  S   UNL     1       2.949  -0.095   2.962  0.00  0.00    -0.073 S 
ATOM     13  C   UNL     1       0.513  -0.497   1.364  0.00  0.00    +0.046 C 
ATOM     14  C   UNL     1       0.002  -0.004   0.002  0.00  0.00    -0.009 C 
ATOM     15  C   UNL     1      -0.019   1.527   0.010  0.00  0.00    +0.008 C 
ATOM     16  C   UNL     1       1.411   2.068  -0.000  0.00  0.00    +0.037 C 
ATOM     17  C   UNL     1      -1.413  -0.535  -0.238  0.00  0.00    +0.008 C 
ENDROOT
BRANCH   6  18
ATOM     18  C   UNL     1       7.044   3.217   3.517  0.00  0.00    +0.056 C 
ATOM     19  C   UNL     1       7.676   2.234   4.504  0.00  0.00    +0.012 C 
ATOM     20  C   UNL     1       6.992   3.502   5.019  0.00  0.00    +0.012 C 
ENDBRANCH   6  18
BRANCH   1  21
ATOM     21  S   UNL     1       7.112   5.652   1.602  0.00  0.00    -0.076 S 
BRANCH  21  22
ATOM     22  C   UNL     1       7.059   7.040   0.436  0.00  0.00    +0.174 C 
BRANCH  22  24
ATOM     23  N   UNL     1       8.425   9.033  -0.097  0.00  0.00    -0.234 N 
ATOM     24  C   UNL     1       8.254   7.931   0.660  0.00  0.00    +0.239 C 
ATOM     25  O   UNL     1       9.061   7.655   1.522  0.00  0.00    -0.273 OA
ATOM     26  H   UNL     1       7.779   9.253  -0.786  0.00  0.00    +0.173 HD
BRANCH  23  29
ATOM     27  C   UNL     1       9.707  10.962  -0.644  0.00  0.00    +0.229 C 
ATOM     28  O   UNL     1       8.899  11.238  -1.506  0.00  0.00    -0.274 OA
ATOM     29  N   UNL     1       9.536   9.860   0.112  0.00  0.00    -0.234 N 
ATOM     30  H   UNL     1      10.181   9.640   0.802  0.00  0.00    +0.173 HD
BRANCH  27  32
ATOM     31  C   UNL     1      10.857  13.024  -1.403  0.00  0.00    +0.013 C 
ATOM     32  C   UNL     1      10.901  11.853  -0.420  0.00  0.00    +0.094 C 
ENDBRANCH  27  32
ENDBRANCH  23  29
ENDBRANCH  22  24
ENDBRANCH  21  22
ENDBRANCH   1  21
TORSDOF 6
