REMARK  Name = ZINC36576218
REMARK  9 active torsions:
REMARK  status: ('A' for Active; 'I' for Inactive)
REMARK    1  A    between atoms: C_1  and  C_2
REMARK    2  A    between atoms: C_2  and  C_3
REMARK    3  A    between atoms: C_3  and  C_5
REMARK    4  A    between atoms: C_3  and  C_6
REMARK    5  A    between atoms: C_6  and  C_8
REMARK    6  A    between atoms: C_6  and  N_12
REMARK    7  A    between atoms: C_8  and  O_10
REMARK    8  A    between atoms: O_10  and  C_11
REMARK    9  A    between atoms: C_24  and  C_26
REMARK                            x       y       z     vdW  Elec       q    Type
REMARK                         _______ _______ _______ _____ _____    ______ ____
ROOT
ATOM      1  N   UNL     1      -2.822   1.215   2.281  0.00  0.00    -0.286 N 
ATOM      2  C   UNL     1      -1.795   1.894   2.829  0.00  0.00    +0.304 C 
ATOM      3  O   UNL     1      -0.651   1.624   2.516  0.00  0.00    -0.253 OA
ATOM      4  N   UNL     1      -2.036   2.872   3.725  0.00  0.00    -0.273 N 
ATOM      5  C   UNL     1      -3.401   3.135   4.204  0.00  0.00    +0.116 C 
ATOM      6  C   UNL     1      -3.470   2.840   5.708  0.00  0.00    +0.074 C 
ATOM      7  C   UNL     1      -2.265   3.446   6.377  0.00  0.00    +0.040 A 
ATOM      8  C   UNL     1      -1.138   3.828   5.739  0.00  0.00    +0.062 A 
ATOM      9  N   UNL     1      -0.290   4.314   6.647  0.00  0.00    -0.348 N 
ATOM     10  C   UNL     1      -0.847   4.253   7.829  0.00  0.00    +0.171 A 
ATOM     11  N   UNL     1      -2.083   3.717   7.700  0.00  0.00    -0.349 N 
ATOM     12  H   UNL     1      -2.719   3.556   8.414  0.00  0.00    +0.166 HD
ATOM     13  C   UNL     1      -0.936   3.701   4.251  0.00  0.00    +0.159 C 
ATOM     14  H   UNL     1      -3.735   1.477   2.474  0.00  0.00    +0.151 HD
ATOM     15  H   UNL     1       0.598   4.658   6.461  0.00  0.00    +0.167 HD
ENDROOT
BRANCH  13  16
ATOM     16  C   UNL     1      -0.973   5.066   3.615  0.00  0.00    +0.014 A 
ATOM     17  C   UNL     1      -1.434   6.152   4.335  0.00  0.00    +0.010 A 
ATOM     18  C   UNL     1      -1.468   7.405   3.752  0.00  0.00    +0.016 A 
ATOM     19  C   UNL     1      -1.040   7.573   2.447  0.00  0.00    +0.021 A 
ATOM     20  C   UNL     1      -0.578   6.488   1.725  0.00  0.00    +0.054 A 
ATOM     21  C   UNL     1      -0.539   5.234   2.311  0.00  0.00    +0.130 A 
ATOM     22  F   UNL     1      -0.083   4.174   1.609  0.00  0.00    -0.205 F 
ATOM     23 BR   UNL     1      -1.087   9.288   1.650  0.00  0.00    -0.050 Br
ENDBRANCH  13  16
BRANCH   1  24
ATOM     24  C   UNL     1      -2.558   0.080   1.392  0.00  0.00    +0.186 C 
BRANCH  24  25
ATOM     25  C   UNL     1      -2.306   0.592  -0.027  0.00  0.00    +0.017 C 
ATOM     26  C   UNL     1      -3.582   1.237  -0.571  0.00  0.00    +0.010 C 
BRANCH  25  28
ATOM     27  C   UNL     1      -0.559  -1.142  -0.460  0.00  0.00    +0.004 C 
ATOM     28  C   UNL     1      -1.903  -0.578  -0.927  0.00  0.00    +0.002 C 
ENDBRANCH  25  28
ENDBRANCH  24  25
BRANCH  24  29
ATOM     29  C   UNL     1      -3.749  -0.843   1.389  0.00  0.00    +0.328 C 
ATOM     30  O   UNL     1      -4.836  -0.428   1.717  0.00  0.00    -0.249 OA
BRANCH  29  31
ATOM     31  O   UNL     1      -3.603  -2.126   1.022  0.00  0.00    -0.467 OA
ATOM     32  C   UNL     1      -4.775  -2.944   1.043  0.00  0.00    +0.280 C 
ENDBRANCH  29  31
ENDBRANCH  24  29
ENDBRANCH   1  24
TORSDOF 6
