REMARK  Name = ZINC13639588
REMARK  6 active torsions:
REMARK  status: ('A' for Active; 'I' for Inactive)
REMARK    1  A    between atoms: C_1  and  C_2
REMARK    2  A    between atoms: C_2  and  C_3
REMARK    3  A    between atoms: C_3  and  C_4
REMARK    4  A    between atoms: C_6  and  O_19
REMARK    5  A    between atoms: O_19  and  C_20
REMARK    6  A    between atoms: C_20  and  C_22
REMARK                            x       y       z     vdW  Elec       q    Type
REMARK                         _______ _______ _______ _____ _____    ______ ____
ROOT
ATOM      1  C   UNL     1       1.350  -0.414  -0.024  0.00  0.00    +0.067 A 
ATOM      2  C   UNL     1       0.011  -0.010   0.005  0.00  0.00    +0.093 A 
ATOM      3  C   UNL     1      -0.016   1.349  -0.001  0.00  0.00    +0.230 A 
ATOM      4  N   UNL     1       1.275   1.783  -0.033  0.00  0.00    -0.166 N 
ATOM      5  N   UNL     1       2.105   0.654  -0.047  0.00  0.00    -0.166 NA
ATOM      6  C   UNL     1       1.694   3.108  -0.049  0.00  0.00    +0.233 A 
ATOM      7  N   UNL     1       2.989   3.519  -0.179  0.00  0.00    -0.322 N 
ATOM      8  H   UNL     1       3.791   2.930  -0.277  0.00  0.00    +0.169 HD
ATOM      9  C   UNL     1       2.985   4.902  -0.149  0.00  0.00    +0.068 A 
ATOM     10  C   UNL     1       3.976   5.869  -0.234  0.00  0.00    +0.028 A 
ATOM     11  C   UNL     1       3.639   7.205  -0.169  0.00  0.00    +0.002 A 
ATOM     12  C   UNL     1       2.314   7.589  -0.019  0.00  0.00    +0.002 A 
ATOM     13  C   UNL     1       1.318   6.643   0.067  0.00  0.00    +0.030 A 
ATOM     14  C   UNL     1       1.642   5.285   0.003  0.00  0.00    +0.091 A 
ATOM     15  N   UNL     1       0.905   4.146   0.052  0.00  0.00    -0.211 NA
ENDROOT
BRANCH   1  16
ATOM     16  C   UNL     1       1.840  -1.839  -0.029  0.00  0.00    +0.057 C 
BRANCH  16  18
ATOM     17  C   UNL     1       3.258  -3.504  -1.236  0.00  0.00    +0.004 C 
ATOM     18  C   UNL     1       2.761  -2.057  -1.231  0.00  0.00    +0.003 C 
ENDBRANCH  16  18
ENDBRANCH   1  16
BRANCH   3  19
ATOM     19  O   UNL     1      -1.125   2.130   0.016  0.00  0.00    -0.403 OA
BRANCH  19  20
ATOM     20  C   UNL     1      -2.315   1.506  -0.086  0.00  0.00    +0.346 C 
ATOM     21  O   UNL     1      -2.365   0.292  -0.088  0.00  0.00    -0.244 OA
BRANCH  20  22
ATOM     22  C   UNL     1      -3.557   2.297  -0.195  0.00  0.00    +0.061 A 
ATOM     23  C   UNL     1      -4.780   1.657  -0.406  0.00  0.00    +0.015 A 
ATOM     24  C   UNL     1      -5.937   2.401  -0.507  0.00  0.00    +0.002 A 
ATOM     25  C   UNL     1      -5.888   3.780  -0.399  0.00  0.00    +0.020 A 
ATOM     26  C   UNL     1      -4.680   4.422  -0.189  0.00  0.00    +0.042 A 
ATOM     27  C   UNL     1      -3.515   3.688  -0.081  0.00  0.00    +0.035 A 
ATOM     28 CL   UNL     1      -4.630   6.152  -0.053  0.00  0.00    -0.084 Cl
ENDBRANCH  20  22
ENDBRANCH  19  20
ENDBRANCH   3  19
TORSDOF 5
