REMARK  Name = ZINC37622736
REMARK  5 active torsions:
REMARK  status: ('A' for Active; 'I' for Inactive)
REMARK    1  A    between atoms: C_4  and  N_6
REMARK    2  A    between atoms: N_6  and  C_7
REMARK    3  A    between atoms: C_7  and  C_8
REMARK    4  A    between atoms: N_10  and  C_11
REMARK    5  A    between atoms: C_14  and  O_17
REMARK                            x       y       z     vdW  Elec       q    Type
REMARK                         _______ _______ _______ _____ _____    ______ ____
ROOT
ATOM      1  C   UNL     1       0.302  -3.306  -2.727  0.00  0.00    +0.196 C 
ATOM      2  O   UNL     1       0.620  -2.852  -3.805  0.00  0.00    -0.278 OA
ATOM      3  N   UNL     1      -0.250  -4.533  -2.648  0.00  0.00    -0.314 N 
ATOM      4  H   UNL     1      -0.504  -4.896  -1.785  0.00  0.00    +0.149 HD
ENDROOT
BRANCH   3   5
ATOM      5  C   UNL     1      -0.467  -5.318  -3.866  0.00  0.00    +0.073 C 
ATOM      6  C   UNL     1       0.813  -6.077  -4.218  0.00  0.00    +0.025 C 
ATOM      7  C   UNL     1       0.586  -6.897  -5.490  0.00  0.00    +0.033 C 
ATOM      8  C   UNL     1      -0.551  -7.894  -5.258  0.00  0.00    +0.115 C 
ATOM      9  C   UNL     1      -1.831  -7.135  -4.906  0.00  0.00    +0.033 C 
ATOM     10  C   UNL     1      -1.604  -6.315  -3.634  0.00  0.00    +0.025 C 
BRANCH   8  11
ATOM     11  O   UNL     1      -0.763  -8.660  -6.446  0.00  0.00    -0.392 OA
ATOM     12  H   UNL     1      -1.471  -9.314  -6.371  0.00  0.00    +0.210 HD
ENDBRANCH   8  11
ENDBRANCH   3   5
BRANCH   1  13
ATOM     13  C   UNL     1       0.526  -2.499  -1.474  0.00  0.00    +0.015 C 
BRANCH  13  14
ATOM     14  N   UNL     1       1.136  -1.209  -1.825  0.00  0.00    +0.387 N 
ATOM     15  H   UNL     1       0.521  -0.704  -2.445  0.00  0.00    -0.085 HD
ATOM     16  H   UNL     1       2.020  -1.369  -2.284  0.00  0.00    -0.085 HD
BRANCH  14  20
ATOM     17  C   UNL     1      -0.019   1.538   0.011  0.00  0.00    -0.002 C 
ATOM     18  C   UNL     1       1.477   1.939  -0.002  0.00  0.00    -0.002 C 
ATOM     19  C   UNL     1       2.107   0.881  -0.942  0.00  0.00    -0.016 C 
ATOM     20  C   UNL     1       1.353  -0.422  -0.604  0.00  0.00    -0.071 C 
ATOM     21  C   UNL     1       0.002  -0.004   0.002  0.00  0.00    -0.016 C 
ENDBRANCH  14  20
ENDBRANCH  13  14
ENDBRANCH   1  13
TORSDOF 5
