REMARK  Name = ZINC40105024
REMARK  11 active torsions:
REMARK  status: ('A' for Active; 'I' for Inactive)
REMARK    1  A    between atoms: C_1  and  C_2
REMARK    2  A    between atoms: C_2  and  C_3
REMARK    3  A    between atoms: C_3  and  C_4
REMARK    4  A    between atoms: C_3  and  C_6
REMARK    5  A    between atoms: C_4  and  C_5
REMARK    6  A    between atoms: C_6  and  C_8
REMARK    7  A    between atoms: C_6  and  N_26
REMARK    8  A    between atoms: C_8  and  N_9
REMARK    9  A    between atoms: N_12  and  C_13
REMARK   10  A    between atoms: C_16  and  N_20
REMARK   11  A    between atoms: C_18  and  C_19
REMARK                            x       y       z     vdW  Elec       q    Type
REMARK                         _______ _______ _______ _____ _____    ______ ____
ROOT
ATOM      1  N   UNL     1      -3.081   1.778   2.490  0.00  0.00    -0.301 N 
ATOM      2  C   UNL     1      -3.257   3.106   2.643  0.00  0.00    +0.304 C 
ATOM      3  O   UNL     1      -2.771   3.880   1.841  0.00  0.00    -0.253 OA
ATOM      4  N   UNL     1      -3.972   3.575   3.685  0.00  0.00    -0.269 N 
ATOM      5  H   UNL     1      -3.469   1.161   3.130  0.00  0.00    +0.150 HD
ATOM      6  H   UNL     1      -4.299   2.964   4.364  0.00  0.00    +0.156 HD
ENDROOT
BRANCH   4   7
ATOM      7  C   UNL     1      -4.244   4.947   3.787  0.00  0.00    +0.038 A 
ATOM      8  C   UNL     1      -3.362   5.872   3.244  0.00  0.00    +0.025 A 
ATOM      9  C   UNL     1      -3.630   7.222   3.344  0.00  0.00    +0.025 A 
ATOM     10  C   UNL     1      -4.782   7.656   3.987  0.00  0.00    +0.030 A 
ATOM     11  C   UNL     1      -5.663   6.731   4.530  0.00  0.00    +0.028 A 
ATOM     12  C   UNL     1      -5.398   5.380   4.426  0.00  0.00    -0.027 A 
ATOM     13  C   UNL     1      -6.358   4.376   5.009  0.00  0.00    +0.046 C 
BRANCH  10  14
ATOM     14  N   UNL     1      -5.053   9.025   4.089  0.00  0.00    -0.326 N 
ATOM     15  C   UNL     1      -6.199   9.514   4.872  0.00  0.00    +0.133 C 
ATOM     16  C   UNL     1      -5.702  10.606   5.827  0.00  0.00    +0.178 C 
ATOM     17  O   UNL     1      -4.977  11.587   5.082  0.00  0.00    -0.377 OA
ATOM     18  C   UNL     1      -3.801  11.085   4.442  0.00  0.00    +0.178 C 
ATOM     19  C   UNL     1      -4.197  10.019   3.422  0.00  0.00    +0.133 C 
ENDBRANCH  10  14
ENDBRANCH   4   7
BRANCH   1  20
ATOM     20  C   UNL     1      -2.304   1.268   1.358  0.00  0.00    +0.091 C 
BRANCH  20  21
ATOM     21  C   UNL     1      -2.381  -0.260   1.334  0.00  0.00    -0.048 C 
BRANCH  21  22
ATOM     22  N   UNL     1      -3.747  -0.675   0.986  0.00  0.00    +0.383 N 
ATOM     23  C   UNL     1      -3.818  -2.154   0.867  0.00  0.00    -0.078 C 
ATOM     24  C   UNL     1      -5.324  -2.454   1.068  0.00  0.00    -0.020 C 
ATOM     25  C   UNL     1      -5.739  -1.431   2.150  0.00  0.00    -0.020 C 
ATOM     26  C   UNL     1      -4.683  -0.313   2.072  0.00  0.00    -0.078 C 
ATOM     27  H   UNL     1      -4.033  -0.242   0.121  0.00  0.00    -0.081 HD
ENDBRANCH  21  22
BRANCH  21  28
ATOM     28  C   UNL     1      -1.402  -0.804   0.292  0.00  0.00    -0.024 C 
BRANCH  28  30
ATOM     29  C   UNL     1      -2.831  -0.160  -1.653  0.00  0.00    +0.004 C 
ATOM     30  C   UNL     1      -1.476   0.052  -0.974  0.00  0.00    -0.002 C 
ENDBRANCH  28  30
BRANCH  28  31
ATOM     31  C   UNL     1       0.020  -0.757   0.856  0.00  0.00    -0.002 C 
ATOM     32  C   UNL     1       0.124  -1.700   2.057  0.00  0.00    +0.004 C 
ENDBRANCH  28  31
ENDBRANCH  21  28
ENDBRANCH  20  21
ENDBRANCH   1  20
TORSDOF 8
