REMARK  Name = ZINC41586807
REMARK  5 active torsions:
REMARK  status: ('A' for Active; 'I' for Inactive)
REMARK    1  A    between atoms: C_1  and  C_2
REMARK    2  A    between atoms: C_10  and  C_11
REMARK    3  A    between atoms: N_21  and  C_24
REMARK    4  A    between atoms: C_24  and  C_25
REMARK    5  A    between atoms: C_24  and  C_26
REMARK                            x       y       z     vdW  Elec       q    Type
REMARK                         _______ _______ _______ _____ _____    ______ ____
ROOT
ATOM      1  C   UNL     1       0.074   1.497   0.006  0.00  0.00    +0.051 C 
ATOM      2  C   UNL     1       0.088  -0.010   0.000  0.00  0.00    +0.034 A 
ATOM      3  C   UNL     1       0.109  -0.697  -1.206  0.00  0.00    +0.133 A 
ATOM      4  C   UNL     1       0.123  -2.088  -1.224  0.00  0.00    +0.010 A 
ATOM      5  C   UNL     1       0.113  -2.789  -0.049  0.00  0.00    +0.024 A 
ATOM      6  C   UNL     1       0.091  -2.111   1.169  0.00  0.00    +0.068 A 
ATOM      7  C   UNL     1       0.085  -0.707   1.201  0.00  0.00    +0.146 A 
ATOM      8  O   UNL     1       0.073  -0.280   2.482  0.00  0.00    -0.451 OA
ATOM      9  C   UNL     1       0.073  -1.312   3.357  0.00  0.00    +0.176 C 
ATOM     10  C   UNL     1       0.062  -1.216   4.710  0.00  0.00    +0.058 C 
ATOM     11  C   UNL     1       0.075  -2.558   2.574  0.00  0.00    +0.231 C 
ATOM     12  O   UNL     1       0.078  -3.703   2.993  0.00  0.00    -0.283 OA
ATOM     13  C   UNL     1       0.153  -2.842  -2.529  0.00  0.00    +0.126 C 
ATOM     14  N   UNL     1      -0.252  -1.949  -3.623  0.00  0.00    -0.264 NA
ATOM     15  C   UNL     1       0.501  -0.686  -3.553  0.00  0.00    +0.319 C 
ATOM     16  O   UNL     1       0.114   0.011  -2.366  0.00  0.00    -0.476 OA
ENDROOT
BRANCH  10  17
ATOM     17  C   UNL     1       0.163   0.100   5.354  0.00  0.00    -0.021 A 
ATOM     18  C   UNL     1       0.286   0.195   6.746  0.00  0.00    +0.009 A 
ATOM     19  C   UNL     1       0.381   1.434   7.343  0.00  0.00    +0.020 A 
ATOM     20  C   UNL     1       0.355   2.583   6.569  0.00  0.00    +0.041 A 
ATOM     21  C   UNL     1       0.234   2.497   5.191  0.00  0.00    +0.020 A 
ATOM     22  C   UNL     1       0.143   1.266   4.580  0.00  0.00    +0.009 A 
ATOM     23 CL   UNL     1       0.475   4.139   7.330  0.00  0.00    -0.084 Cl
ENDBRANCH  10  17
BRANCH  14  24
ATOM     24  C   UNL     1      -0.070  -2.599  -4.928  0.00  0.00    +0.054 C 
ATOM     25  C   UNL     1      -0.617  -1.690  -6.031  0.00  0.00    +0.024 C 
ATOM     26  C   UNL     1       1.420  -2.852  -5.168  0.00  0.00    +0.024 C 
ENDBRANCH  14  24
TORSDOF 2
