REMARK  Name = ZINC37289618
REMARK  10 active torsions:
REMARK  status: ('A' for Active; 'I' for Inactive)
REMARK    1  A    between atoms: C_1  and  C_2
REMARK    2  A    between atoms: C_2  and  C_3
REMARK    3  A    between atoms: C_3  and  C_5
REMARK    4  A    between atoms: C_3  and  N_6
REMARK    5  A    between atoms: C_7  and  C_9
REMARK    6  A    between atoms: C_9  and  C_11
REMARK    7  A    between atoms: C_9  and  O_12
REMARK    8  A    between atoms: O_12  and  C_13
REMARK    9  A    between atoms: C_16  and  N_22
REMARK   10  A    between atoms: C_18  and  C_19
REMARK                            x       y       z     vdW  Elec       q    Type
REMARK                         _______ _______ _______ _____ _____    ______ ____
ROOT
ATOM      1  C   UNL     1      -6.230  -0.145   3.548  0.00  0.00    +0.136 A 
ATOM      2  C   UNL     1      -5.598  -0.379   4.760  0.00  0.00    +0.048 A 
ATOM      3  C   UNL     1      -6.329  -0.795   5.854  0.00  0.00    +0.026 A 
ATOM      4  C   UNL     1      -7.704  -0.984   5.751  0.00  0.00    +0.026 A 
ATOM      5  C   UNL     1      -8.349  -0.755   4.548  0.00  0.00    +0.041 A 
ATOM      6  C   UNL     1      -7.616  -0.327   3.437  0.00  0.00    +0.106 A 
ENDROOT
BRANCH   6   7
ATOM      7  C   UNL     1      -8.295  -0.075   2.155  0.00  0.00    +0.390 C 
ATOM      8  O   UNL     1      -9.504  -0.235   2.062  0.00  0.00    -0.240 OA
ATOM      9  O   UNL     1      -7.650   0.294   1.184  0.00  0.00    -0.240 OA
ENDBRANCH   6   7
BRANCH   4  10
ATOM     10  N   UNL     1      -8.437  -1.407   6.866  0.00  0.00    -0.358 N 
ATOM     11  H   UNL     1      -7.986  -1.568   7.710  0.00  0.00    +0.142 HD
ATOM     12  H   UNL     1      -9.395  -1.539   6.795  0.00  0.00    +0.142 HD
ENDBRANCH   4  10
BRANCH   1  13
ATOM     13  O   UNL     1      -5.509   0.264   2.473  0.00  0.00    -0.479 OA
BRANCH  13  14
ATOM     14  C   UNL     1      -4.090   0.321   2.627  0.00  0.00    +0.255 C 
ATOM     15  C   UNL     1      -3.697   1.659   3.255  0.00  0.00    +0.062 C 
BRANCH  14  17
ATOM     16  N   UNL     1      -2.090   0.110   1.187  0.00  0.00    -0.310 N 
ATOM     17  C   UNL     1      -3.432   0.186   1.278  0.00  0.00    +0.254 C 
ATOM     18  O   UNL     1      -4.111   0.147   0.274  0.00  0.00    -0.272 OA
ATOM     19  H   UNL     1      -1.546   0.142   1.990  0.00  0.00    +0.149 HD
BRANCH  16  20
ATOM     20  C   UNL     1      -1.450  -0.020  -0.124  0.00  0.00    +0.070 C 
ATOM     21  C   UNL     1      -1.415  -1.495  -0.530  0.00  0.00    +0.028 C 
BRANCH  20  23
ATOM     22  C   UNL     1      -0.062   2.027   0.231  0.00  0.00    +0.005 C 
ATOM     23  C   UNL     1      -0.022   0.524  -0.052  0.00  0.00    +0.018 C 
ENDBRANCH  20  23
ENDBRANCH  16  20
ENDBRANCH  14  17
ENDBRANCH  13  14
ENDBRANCH   1  13
TORSDOF 7
