REMARK  Name = ZINC39582245
REMARK  9 active torsions:
REMARK  status: ('A' for Active; 'I' for Inactive)
REMARK    1  A    between atoms: C_1  and  O_2
REMARK    2  A    between atoms: O_2  and  C_3
REMARK    3  A    between atoms: C_3  and  C_5
REMARK    4  A    between atoms: C_7  and  N_15
REMARK    5  A    between atoms: C_16  and  C_18
REMARK    6  A    between atoms: C_18  and  N_19
REMARK    7  A    between atoms: N_22  and  C_25
REMARK    8  A    between atoms: C_25  and  C_26
REMARK    9  A    between atoms: C_25  and  C_32
REMARK                            x       y       z     vdW  Elec       q    Type
REMARK                         _______ _______ _______ _____ _____    ______ ____
ROOT
ATOM      1  C   UNL     1       4.067  -2.452  -2.922  0.00  0.00    +0.180 C 
ENDROOT
BRANCH   1   2
ATOM      2  N   UNL     1       5.111  -3.368  -3.400  0.00  0.00    -0.292 NA
ATOM      3  C   UNL     1       4.628  -4.756  -3.413  0.00  0.00    +0.100 C 
ATOM      4  C   UNL     1       5.767  -5.685  -3.839  0.00  0.00    +0.100 C 
ATOM      5  N   UNL     1       6.251  -5.286  -5.168  0.00  0.00    -0.289 NA
ATOM      6  C   UNL     1       6.734  -3.898  -5.155  0.00  0.00    +0.100 C 
ATOM      7  C   UNL     1       5.595  -2.969  -4.729  0.00  0.00    +0.100 C 
BRANCH   5   8
ATOM      8  C   UNL     1       7.295  -6.202  -5.646  0.00  0.00    +0.117 C 
BRANCH   8   9
ATOM      9  C   UNL     1       6.764  -7.612  -5.648  0.00  0.00    -0.026 A 
ATOM     10  C   UNL     1       5.510  -7.877  -6.166  0.00  0.00    +0.005 A 
ATOM     11  C   UNL     1       5.023  -9.171  -6.168  0.00  0.00    +0.000 A 
ATOM     12  C   UNL     1       5.789 -10.199  -5.652  0.00  0.00    +0.000 A 
ATOM     13  C   UNL     1       7.044  -9.934  -5.135  0.00  0.00    +0.000 A 
ATOM     14  C   UNL     1       7.533  -8.641  -5.137  0.00  0.00    +0.005 A 
ENDBRANCH   8   9
BRANCH   8  15
ATOM     15  C   UNL     1       7.701  -5.816  -7.045  0.00  0.00    -0.026 A 
ATOM     16  C   UNL     1       6.737  -5.467  -7.973  0.00  0.00    +0.005 A 
ATOM     17  C   UNL     1       7.109  -5.112  -9.256  0.00  0.00    +0.000 A 
ATOM     18  C   UNL     1       8.445  -5.107  -9.611  0.00  0.00    +0.000 A 
ATOM     19  C   UNL     1       9.409  -5.455  -8.684  0.00  0.00    +0.000 A 
ATOM     20  C   UNL     1       9.037  -5.805  -7.399  0.00  0.00    +0.005 A 
ENDBRANCH   8  15
ENDBRANCH   5   8
ENDBRANCH   1   2
BRANCH   1  22
ATOM     21  N   UNL     1       2.839  -2.017  -0.819  0.00  0.00    -0.285 N 
ATOM     22  C   UNL     1       3.771  -2.739  -1.473  0.00  0.00    +0.231 C 
ATOM     23  O   UNL     1       4.370  -3.620  -0.895  0.00  0.00    -0.274 OA
ATOM     24  H   UNL     1       2.320  -1.351  -1.296  0.00  0.00    +0.155 HD
BRANCH  21  26
ATOM     25  C   UNL     1       3.276  -3.271   1.387  0.00  0.00    +0.234 C 
ATOM     26  C   UNL     1       2.627  -2.223   0.511  0.00  0.00    +0.053 C 
ATOM     27  C   UNL     1       1.773  -1.516   1.340  0.00  0.00    +0.018 A 
ATOM     28  C   UNL     1       0.900  -0.427   1.107  0.00  0.00    +0.011 A 
ATOM     29  C   UNL     1       0.166   0.077   2.129  0.00  0.00    +0.001 A 
ATOM     30  C   UNL     1       0.246  -0.454   3.420  0.00  0.00    +0.002 A 
ATOM     31  C   UNL     1       1.059  -1.496   3.716  0.00  0.00    +0.026 A 
ATOM     32  C   UNL     1       1.861  -2.078   2.699  0.00  0.00    +0.045 A 
ATOM     33  N   UNL     1       2.718  -3.079   2.730  0.00  0.00    -0.367 N 
ATOM     34  H   UNL     1       2.944  -3.605   3.513  0.00  0.00    +0.161 HD
BRANCH  25  35
ATOM     35  C   UNL     1       2.944  -4.651   0.879  0.00  0.00    +0.335 C 
ATOM     36  O   UNL     1       1.837  -5.105   1.044  0.00  0.00    -0.248 OA
BRANCH  35  38
ATOM     37  C   UNL     1       3.495  -6.674  -0.211  0.00  0.00    +0.280 C 
ATOM     38  O   UNL     1       3.879  -5.375   0.243  0.00  0.00    -0.466 OA
ENDBRANCH  35  38
ENDBRANCH  25  35
ENDBRANCH  21  26
ENDBRANCH   1  22
TORSDOF 8
