REMARK  Name = ZINC63908404
REMARK  5 active torsions:
REMARK  status: ('A' for Active; 'I' for Inactive)
REMARK    1  A    between atoms: C_4  and  C_7
REMARK    2  A    between atoms: C_7  and  C_9
REMARK    3  A    between atoms: C_7  and  C_25
REMARK    4  A    between atoms: C_9  and  N_10
REMARK    5  A    between atoms: C_11  and  C_13
REMARK                            x       y       z     vdW  Elec       q    Type
REMARK                         _______ _______ _______ _____ _____    ______ ____
ROOT
ATOM      1  C   UNL     1       3.817  -1.592   1.206  0.00  0.00    +0.117 C 
ENDROOT
BRANCH   1   2
ATOM      2  N   UNL     1       3.861  -0.748   2.403  0.00  0.00    -0.310 N 
ATOM      3  C   UNL     1       3.954  -1.314   3.623  0.00  0.00    +0.244 C 
ATOM      4  O   UNL     1       4.003  -2.524   3.730  0.00  0.00    -0.270 OA
ATOM      5  H   UNL     1       3.822   0.217   2.318  0.00  0.00    +0.149 HD
BRANCH   3   6
ATOM      6  C   UNL     1       3.998  -0.464   4.828  0.00  0.00    +0.039 A 
ATOM      7  C   UNL     1       3.937   0.927   4.705  0.00  0.00    +0.014 A 
ATOM      8  C   UNL     1       3.979   1.723   5.829  0.00  0.00    +0.017 A 
ATOM      9  C   UNL     1       4.081   1.140   7.086  0.00  0.00    +0.029 A 
ATOM     10  C   UNL     1       4.141  -0.250   7.216  0.00  0.00    +0.048 A 
ATOM     11  C   UNL     1       4.096  -1.052   6.094  0.00  0.00    +0.037 A 
ATOM     12  N   UNL     1       4.240  -0.818   8.496  0.00  0.00    -0.285 N 
ATOM     13  C   UNL     1       3.390  -0.455   9.465  0.00  0.00    +0.218 C 
ATOM     14  O   UNL     1       3.605  -0.803  10.607  0.00  0.00    -0.275 OA
ATOM     15  C   UNL     1       2.177   0.375   9.165  0.00  0.00    +0.107 C 
ATOM     16  C   UNL     1       2.503   1.872   9.297  0.00  0.00    +0.083 C 
ATOM     17  S   UNL     1       4.140   2.143   8.536  0.00  0.00    -0.123 S 
ATOM     18  H   UNL     1       4.928  -1.477   8.680  0.00  0.00    +0.155 HD
ENDBRANCH   3   6
ENDBRANCH   1   2
BRANCH   1  19
ATOM     19  C   UNL     1       3.711  -0.707  -0.038  0.00  0.00    +0.064 C 
BRANCH  19  20
ATOM     20  C   UNL     1       3.790  -1.566  -1.273  0.00  0.00    -0.033 C 
ATOM     21  C   UNL     1       4.716  -1.494  -2.256  0.00  0.00    -0.000 A 
ATOM     22  C   UNL     1       5.883  -0.628  -2.461  0.00  0.00    +0.010 A 
ATOM     23  C   UNL     1       6.640  -0.798  -3.569  0.00  0.00    +0.001 A 
ATOM     24  C   UNL     1       6.338  -1.778  -4.524  0.00  0.00    +0.002 A 
ATOM     25  C   UNL     1       5.284  -2.612  -4.405  0.00  0.00    +0.026 A 
ATOM     26  C   UNL     1       4.420  -2.522  -3.279  0.00  0.00    +0.043 A 
ATOM     27  N   UNL     1       3.352  -3.203  -2.942  0.00  0.00    -0.380 N 
ATOM     28  C   UNL     1       2.853  -2.687  -1.662  0.00  0.00    +0.145 C 
ATOM     29  H   UNL     1       2.959  -3.929  -3.451  0.00  0.00    +0.160 HD
ENDBRANCH  19  20
BRANCH  19  33
ATOM     30  C   UNL     1      -0.017   1.378   0.010  0.00  0.00    +0.000 A 
ATOM     31  C   UNL     1       1.171   2.086   0.002  0.00  0.00    +0.000 A 
ATOM     32  C   UNL     1       2.377   1.411  -0.013  0.00  0.00    +0.004 A 
ATOM     33  C   UNL     1       2.396   0.029  -0.020  0.00  0.00    -0.039 A 
ATOM     34  C   UNL     1       1.208  -0.679  -0.012  0.00  0.00    +0.004 A 
ATOM     35  C   UNL     1       0.002  -0.004   0.002  0.00  0.00    +0.000 A 
ENDBRANCH  19  33
ENDBRANCH   1  19
TORSDOF 5
