REMARK  Name = ZINC37558677
REMARK  9 active torsions:
REMARK  status: ('A' for Active; 'I' for Inactive)
REMARK    1  A    between atoms: C_1  and  C_2
REMARK    2  A    between atoms: C_2  and  C_3
REMARK    3  A    between atoms: C_2  and  C_4
REMARK    4  A    between atoms: C_7  and  N_10
REMARK    5  A    between atoms: N_15  and  C_18
REMARK    6  A    between atoms: C_18  and  C_19
REMARK    7  A    between atoms: N_21  and  C_24
REMARK    8  A    between atoms: C_24  and  C_25
REMARK    9  A    between atoms: C_24  and  C_26
REMARK                            x       y       z     vdW  Elec       q    Type
REMARK                         _______ _______ _______ _____ _____    ______ ____
ROOT
ATOM      1  N   UNL     1      -5.321  -1.968   0.042  0.00  0.00    -0.245 N 
ATOM      2  C   UNL     1      -5.802  -2.688  -1.041  0.00  0.00    +0.173 A 
ATOM      3  C   UNL     1      -7.109  -3.159  -1.006  0.00  0.00    +0.152 A 
ATOM      4  C   UNL     1      -7.906  -2.891   0.127  0.00  0.00    +0.283 A 
ATOM      5  O   UNL     1      -9.055  -3.293   0.181  0.00  0.00    -0.265 OA
ATOM      6  N   UNL     1      -7.382  -2.185   1.150  0.00  0.00    -0.255 N 
ATOM      7  C   UNL     1      -6.114  -1.740   1.106  0.00  0.00    +0.338 A 
ATOM      8  O   UNL     1      -5.674  -1.111   2.050  0.00  0.00    -0.246 OA
ATOM      9  N   UNL     1      -7.310  -3.827  -2.197  0.00  0.00    -0.322 N 
ATOM     10  C   UNL     1      -6.160  -3.745  -2.894  0.00  0.00    +0.202 A 
ATOM     11  N   UNL     1      -5.274  -3.071  -2.206  0.00  0.00    -0.217 NA
ENDROOT
BRANCH   1  15
ATOM     12  C   UNL     1      -1.412  -0.525   0.011  0.00  0.00    -0.045 A 
ATOM     13  C   UNL     1      -1.679  -1.783   0.520  0.00  0.00    +0.006 A 
ATOM     14  C   UNL     1      -2.974  -2.264   0.532  0.00  0.00    +0.026 A 
ATOM     15  C   UNL     1      -4.008  -1.483   0.032  0.00  0.00    +0.053 A 
ATOM     16  C   UNL     1      -3.736  -0.221  -0.478  0.00  0.00    +0.026 A 
ATOM     17  C   UNL     1      -2.440   0.257  -0.483  0.00  0.00    +0.006 A 
BRANCH  12  19
ATOM     18  C   UNL     1       0.537   0.050   1.432  0.00  0.00    +0.012 C 
ATOM     19  C   UNL     1       0.002  -0.003  -0.001  0.00  0.00    +0.013 C 
ATOM     20  C   UNL     1       0.881  -0.932  -0.840  0.00  0.00    +0.012 C 
ENDBRANCH  12  19
ENDBRANCH   1  15
BRANCH   9  21
ATOM     21  C   UNL     1      -8.540  -4.499  -2.622  0.00  0.00    +0.083 C 
ATOM     22  C   UNL     1      -9.047  -3.862  -3.918  0.00  0.00    +0.030 C 
ATOM     23  C   UNL     1      -8.255  -5.983  -2.861  0.00  0.00    +0.030 C 
ENDBRANCH   9  21
BRANCH   6  24
ATOM     24  C   UNL     1      -8.204  -1.904   2.329  0.00  0.00    +0.156 C 
BRANCH  24  25
ATOM     25  C   UNL     1      -8.036  -3.013   3.335  0.00  0.00    -0.013 C 
ATOM     26  C   UNL     1      -7.666  -2.736   4.561  0.00  0.00    +0.005 C 
ENDBRANCH  24  25
ENDBRANCH   6  24
TORSDOF 5
