REMARK  Name = ZINC16361680
REMARK  8 active torsions:
REMARK  status: ('A' for Active; 'I' for Inactive)
REMARK    1  A    between atoms: C_4  and  N_11
REMARK    2  A    between atoms: C_5  and  C_7
REMARK    3  A    between atoms: C_12  and  C_14
REMARK    4  A    between atoms: C_17  and  N_23
REMARK    5  A    between atoms: C_18  and  N_20
REMARK    6  A    between atoms: N_23  and  C_24
REMARK    7  A    between atoms: C_24  and  C_25
REMARK    8  A    between atoms: C_25  and  N_26
REMARK                            x       y       z     vdW  Elec       q    Type
REMARK                         _______ _______ _______ _____ _____    ______ ____
ROOT
ATOM      1  C   UNL     1       6.012  -0.763  -0.295  0.00  0.00    +0.039 A 
ATOM      2  C   UNL     1       6.121  -2.157  -0.291  0.00  0.00    +0.015 A 
ATOM      3  C   UNL     1       7.359  -2.749  -0.392  0.00  0.00    +0.026 A 
ATOM      4  C   UNL     1       8.502  -1.962  -0.498  0.00  0.00    +0.058 A 
ATOM      5  C   UNL     1       8.397  -0.574  -0.502  0.00  0.00    +0.148 A 
ATOM      6  C   UNL     1       7.161   0.025  -0.407  0.00  0.00    +0.047 A 
ENDROOT
BRANCH   1   8
ATOM      7  N   UNL     1       3.579  -0.886  -0.079  0.00  0.00    -0.281 N 
ATOM      8  C   UNL     1       4.686  -0.126  -0.187  0.00  0.00    +0.248 C 
ATOM      9  O   UNL     1       4.592   1.087  -0.196  0.00  0.00    -0.270 OA
ATOM     10  H   UNL     1       3.659  -1.849   0.014  0.00  0.00    +0.155 HD
BRANCH   7  14
ATOM     11  C   UNL     1      -0.187   0.893  -0.143  0.00  0.00    +0.001 A 
ATOM     12  C   UNL     1       0.887   1.528  -0.742  0.00  0.00    +0.002 A 
ATOM     13  C   UNL     1       2.136   0.940  -0.722  0.00  0.00    +0.024 A 
ATOM     14  C   UNL     1       2.315  -0.289  -0.100  0.00  0.00    +0.045 A 
ATOM     15  C   UNL     1       1.235  -0.923   0.500  0.00  0.00    +0.076 A 
ATOM     16  C   UNL     1      -0.012  -0.330   0.477  0.00  0.00    +0.014 A 
BRANCH  15  17
ATOM     17  C   UNL     1       1.424  -2.257   1.176  0.00  0.00    +0.419 C 
ATOM     18  F   UNL     1       0.202  -2.690   1.701  0.00  0.00    -0.166 F 
ATOM     19  F   UNL     1       1.888  -3.191   0.243  0.00  0.00    -0.166 F 
ATOM     20  F   UNL     1       2.357  -2.128   2.210  0.00  0.00    -0.166 F 
ENDBRANCH  15  17
ENDBRANCH   7  14
ENDBRANCH   1   8
BRANCH   5  21
ATOM     21  N   UNL     1       9.615   0.260  -0.615  0.00  0.00    +0.058 N 
ATOM     22  O   UNL     1       9.621   1.385  -0.171  0.00  0.00    -0.126 OA
ATOM     23  O   UNL     1      10.604  -0.184  -1.149  0.00  0.00    -0.126 OA
ENDBRANCH   5  21
BRANCH   4  24
ATOM     24  N   UNL     1       9.752  -2.563  -0.600  0.00  0.00    -0.341 N 
ATOM     25  H   UNL     1      10.554  -2.018  -0.596  0.00  0.00    +0.146 HD
BRANCH  24  26
ATOM     26  C   UNL     1       9.857  -4.020  -0.714  0.00  0.00    +0.121 C 
BRANCH  26  27
ATOM     27  C   UNL     1      11.330  -4.419  -0.811  0.00  0.00    +0.135 C 
BRANCH  27  28
ATOM     28  N   UNL     1      11.435  -5.876  -0.925  0.00  0.00    -0.240 N 
ATOM     29  C   UNL     1      11.535  -6.703   0.150  0.00  0.00    +0.226 C 
ATOM     30  O   UNL     1      11.340  -6.417   1.312  0.00  0.00    -0.275 OA
ATOM     31  C   UNL     1      11.933  -8.039  -0.393  0.00  0.00    +0.087 C 
ATOM     32  C   UNL     1      11.435  -9.296   0.286  0.00  0.00    +0.013 C 
ATOM     33  C   UNL     1      11.986 -10.477  -0.538  0.00  0.00    +0.001 C 
ATOM     34  C   UNL     1      11.550 -10.404  -1.997  0.00  0.00    +0.001 C 
ATOM     35  C   UNL     1      11.887  -9.044  -2.636  0.00  0.00    +0.013 C 
ATOM     36  C   UNL     1      11.246  -7.979  -1.790  0.00  0.00    +0.087 C 
ATOM     37  C   UNL     1      11.437  -6.533  -2.116  0.00  0.00    +0.226 C 
ATOM     38  O   UNL     1      11.569  -6.046  -3.218  0.00  0.00    -0.275 OA
ENDBRANCH  27  28
ENDBRANCH  26  27
ENDBRANCH  24  26
ENDBRANCH   4  24
TORSDOF 8
