REMARK  Name = ZINC35464497
REMARK  7 active torsions:
REMARK  status: ('A' for Active; 'I' for Inactive)
REMARK    1  A    between atoms: C_1  and  C_2
REMARK    2  A    between atoms: C_5  and  O_28
REMARK    3  A    between atoms: C_7  and  C_10
REMARK    4  A    between atoms: C_11  and  C_12
REMARK    5  A    between atoms: C_13  and  C_14
REMARK    6  A    between atoms: C_18  and  O_24
REMARK    7  A    between atoms: C_20  and  O_23
REMARK                            x       y       z     vdW  Elec       q    Type
REMARK                         _______ _______ _______ _____ _____    ______ ____
ROOT
ATOM      1  C   UNL     1       1.865  -6.510   4.641  0.00  0.00    +0.133 A 
ATOM      2  C   UNL     1       2.766  -7.190   5.410  0.00  0.00    +0.056 A 
ATOM      3  C   UNL     1       2.304  -8.350   6.170  0.00  0.00    +0.018 A 
ATOM      4  C   UNL     1       1.014  -8.864   5.867  0.00  0.00    +0.110 A 
ATOM      5  C   UNL     1       0.525  -9.975   6.556  0.00  0.00    +0.135 A 
ATOM      6  C   UNL     1       1.306 -10.561   7.538  0.00  0.00    +0.093 A 
ATOM      7  C   UNL     1       2.567 -10.054   7.839  0.00  0.00    +0.139 A 
ATOM      8  C   UNL     1       3.071  -8.954   7.162  0.00  0.00    +0.091 A 
ATOM      9 CL   UNL     1       4.647  -8.335   7.548  0.00  0.00    -0.079 Cl
ATOM     10  C   UNL     1       0.251  -8.175   4.821  0.00  0.00    +0.349 A 
ATOM     11  O   UNL     1      -0.620  -8.742   4.188  0.00  0.00    -0.244 OA
ATOM     12  O   UNL     1       0.562  -6.872   4.598  0.00  0.00    -0.422 OA
ENDROOT
BRANCH   1  14
ATOM     13  C   UNL     1       1.436  -4.677   3.094  0.00  0.00    +0.003 C 
ATOM     14  C   UNL     1       2.317  -5.363   3.854  0.00  0.00    +0.046 C 
BRANCH  13  16
ATOM     15  C   UNL     1       1.019  -2.851   1.555  0.00  0.00    +0.007 C 
ATOM     16  C   UNL     1       1.888  -3.529   2.306  0.00  0.00    -0.002 C 
BRANCH  15  21
ATOM     17  C   UNL     1      -0.019   1.526   0.010  0.00  0.00    +0.038 C 
ATOM     18  C   UNL     1       0.002  -0.004   0.002  0.00  0.00    +0.119 C 
ATOM     19  C   UNL     1       0.754  -0.525  -1.248  0.00  0.00    +0.065 C 
ATOM     20  C   UNL     1       1.214  -1.924  -0.755  0.00  0.00    +0.150 C 
ATOM     21  C   UNL     1       1.484  -1.669   0.744  0.00  0.00    +0.170 C 
ATOM     22  O   UNL     1       0.749  -0.499   1.125  0.00  0.00    -0.367 OA
BRANCH  20  23
ATOM     23  O   UNL     1       0.178  -2.892  -0.932  0.00  0.00    -0.389 OA
ATOM     24  H   UNL     1      -0.086  -3.021  -1.853  0.00  0.00    +0.210 HD
ENDBRANCH  20  23
ENDBRANCH  15  21
ENDBRANCH  13  16
ENDBRANCH   1  14
BRANCH   7  25
ATOM     25  O   UNL     1       3.312 -10.644   8.808  0.00  0.00    -0.505 OA
ATOM     26  H   UNL     1       3.888 -11.351   8.486  0.00  0.00    +0.292 HD
ENDBRANCH   7  25
BRANCH   5  27
ATOM     27  O   UNL     1      -0.702 -10.476   6.266  0.00  0.00    -0.506 OA
ATOM     28  H   UNL     1      -0.698 -11.154   5.578  0.00  0.00    +0.292 HD
ENDBRANCH   5  27
TORSDOF 6
