REMARK  Name = ZINC52841762
REMARK  4 active torsions:
REMARK  status: ('A' for Active; 'I' for Inactive)
REMARK    1  A    between atoms: C_3  and  O_8
REMARK    2  A    between atoms: O_8  and  C_9
REMARK    3  A    between atoms: C_12  and  N_16
REMARK    4  A    between atoms: C_14  and  N_15
REMARK                            x       y       z     vdW  Elec       q    Type
REMARK                         _______ _______ _______ _____ _____    ______ ____
ROOT
ATOM      1  C   UNL     1       4.709   1.402   0.069  0.00  0.00    +0.149 A 
ATOM      2  C   UNL     1       4.685   0.017   0.054  0.00  0.00    +0.050 A 
ATOM      3  C   UNL     1       5.867  -0.697   0.145  0.00  0.00    +0.036 A 
ATOM      4  C   UNL     1       7.074  -0.031   0.251  0.00  0.00    +0.128 A 
ATOM      5  C   UNL     1       7.106   1.351   0.266  0.00  0.00    +0.059 A 
ATOM      6  C   UNL     1       5.926   2.073   0.170  0.00  0.00    +0.070 A 
ENDROOT
BRANCH   6   7
ATOM      7  N   UNL     1       5.957   3.472   0.179  0.00  0.00    -0.355 N 
ATOM      8  H   UNL     1       5.130   3.976   0.115  0.00  0.00    +0.142 HD
ATOM      9  H   UNL     1       6.804   3.938   0.249  0.00  0.00    +0.142 HD
ENDBRANCH   6   7
BRANCH   4  10
ATOM     10  N   UNL     1       8.335  -0.800   0.349  0.00  0.00    +0.056 N 
ATOM     11  O   UNL     1       8.308  -2.009   0.337  0.00  0.00    -0.126 OA
ATOM     12  O   UNL     1       9.391  -0.220   0.442  0.00  0.00    -0.126 OA
ENDBRANCH   4  10
BRANCH   1  13
ATOM     13  O   UNL     1       3.548   2.104  -0.021  0.00  0.00    -0.454 OA
BRANCH  13  16
ATOM     14  C   UNL     1       0.391   0.650  -1.095  0.00  0.00    +0.005 A 
ATOM     15  C   UNL     1       1.579   1.355  -1.125  0.00  0.00    +0.046 A 
ATOM     16  C   UNL     1       2.380   1.412   0.006  0.00  0.00    +0.130 A 
ATOM     17  C   UNL     1       1.986   0.759   1.166  0.00  0.00    +0.060 A 
ATOM     18  C   UNL     1       0.797   0.055   1.191  0.00  0.00    +0.017 A 
ATOM     19  C   UNL     1       0.000   0.001   0.061  0.00  0.00    +0.014 A 
ATOM     20  I   UNL     1       0.201  -0.931   2.941  0.00  0.00    -0.044 I 
ENDBRANCH  13  16
ENDBRANCH   1  13
TORSDOF 4
