REMARK  Name = ZINC19009117
REMARK  10 active torsions:
REMARK  status: ('A' for Active; 'I' for Inactive)
REMARK    1  A    between atoms: C_1  and  C_2
REMARK    2  A    between atoms: C_2  and  C_3
REMARK    3  A    between atoms: C_3  and  C_4
REMARK    4  A    between atoms: C_4  and  N_5
REMARK    5  A    between atoms: C_6  and  N_32
REMARK    6  A    between atoms: C_7  and  N_14
REMARK    7  A    between atoms: N_14  and  C_15
REMARK    8  A    between atoms: C_20  and  C_22
REMARK    9  A    between atoms: C_22  and  O_23
REMARK   10  A    between atoms: O_23  and  C_24
REMARK                            x       y       z     vdW  Elec       q    Type
REMARK                         _______ _______ _______ _____ _____    ______ ____
ROOT
ATOM      1  N   UNL     1      -2.393   1.173  -0.064  0.00  0.00    -0.258 N 
ATOM      2  C   UNL     1      -3.554   1.858  -0.124  0.00  0.00    +0.258 C 
ATOM      3  O   UNL     1      -3.546   3.071  -0.091  0.00  0.00    -0.271 OA
ENDROOT
BRANCH   1   6
ATOM      4  N   UNL     1       0.360   3.332   1.060  0.00  0.00    -0.280 N 
ATOM      5  C   UNL     1      -0.842   2.663   1.055  0.00  0.00    +0.127 A 
ATOM      6  C   UNL     1      -1.165   1.869  -0.026  0.00  0.00    +0.140 A 
ATOM      7  C   UNL     1      -0.248   1.760  -1.089  0.00  0.00    +0.277 A 
ATOM      8  O   UNL     1      -0.507   1.062  -2.054  0.00  0.00    -0.266 OA
ATOM      9  N   UNL     1       0.915   2.438  -1.034  0.00  0.00    -0.273 N 
ATOM     10  H   UNL     1       1.566   2.365  -1.790  0.00  0.00    +0.173 HD
ATOM     11  C   UNL     1       1.212   3.211   0.026  0.00  0.00    +0.331 A 
ATOM     12  O   UNL     1       2.269   3.811   0.050  0.00  0.00    -0.246 OA
BRANCH   5  13
ATOM     13  N   UNL     1      -1.712   2.787   2.111  0.00  0.00    -0.343 N 
ATOM     14  H   UNL     1      -1.451   3.292   2.897  0.00  0.00    +0.144 HD
ATOM     15  H   UNL     1      -2.587   2.370   2.071  0.00  0.00    +0.144 HD
ENDBRANCH   5  13
BRANCH   4  16
ATOM     16  C   UNL     1       0.714   4.183   2.199  0.00  0.00    +0.128 C 
BRANCH  16  17
ATOM     17  C   UNL     1       0.212   5.606   1.948  0.00  0.00    +0.021 C 
BRANCH  17  19
ATOM     18  C   UNL     1       0.080   7.918   2.886  0.00  0.00    +0.004 C 
ATOM     19  C   UNL     1       0.582   6.495   3.137  0.00  0.00    -0.002 C 
ENDBRANCH  17  19
ENDBRANCH  16  17
ENDBRANCH   4  16
ENDBRANCH   1   6
BRANCH   1  20
ATOM     20  C   UNL     1      -2.406  -0.291  -0.039  0.00  0.00    +0.082 C 
ATOM     21  C   UNL     1      -2.982  -0.837  -1.362  0.00  0.00    +0.023 C 
ATOM     22  C   UNL     1      -3.806  -2.078  -0.932  0.00  0.00    +0.002 C 
ATOM     23  C   UNL     1      -4.439  -1.623   0.406  0.00  0.00    +0.002 C 
ATOM     24  C   UNL     1      -3.331  -0.791   1.085  0.00  0.00    +0.023 C 
ENDBRANCH   1  20
BRANCH   2  25
ATOM     25  C   UNL     1      -4.861   1.116  -0.230  0.00  0.00    +0.325 C 
BRANCH  25  26
ATOM     26  O   UNL     1      -5.926   2.050  -0.414  0.00  0.00    -0.480 OA
BRANCH  26  27
ATOM     27  C   UNL     1      -7.181   1.541  -0.530  0.00  0.00    +0.158 A 
ATOM     28  C   UNL     1      -7.686   1.211  -1.780  0.00  0.00    +0.084 A 
ATOM     29  C   UNL     1      -8.961   0.688  -1.893  0.00  0.00    +0.024 A 
ATOM     30  C   UNL     1      -9.737   0.505  -0.764  0.00  0.00    +0.003 A 
ATOM     31  C   UNL     1      -9.239   0.838   0.482  0.00  0.00    +0.024 A 
ATOM     32  C   UNL     1      -7.963   1.356   0.602  0.00  0.00    +0.084 A 
ATOM     33 CL   UNL     1      -7.340   1.776   2.167  0.00  0.00    -0.080 Cl
ATOM     34 CL   UNL     1      -6.714   1.448  -3.199  0.00  0.00    -0.080 Cl
ENDBRANCH  26  27
ENDBRANCH  25  26
ENDBRANCH   2  25
TORSDOF 9
