REMARK  Name = ZINC37424609
REMARK  15 active torsions:
REMARK  status: ('A' for Active; 'I' for Inactive)
REMARK    1  A    between atoms: C_1  and  C_2
REMARK    2  A    between atoms: C_2  and  C_3
REMARK    3  A    between atoms: C_3  and  N_4
REMARK    4  A    between atoms: C_5  and  C_7
REMARK    5  A    between atoms: C_7  and  N_8
REMARK    6  A    between atoms: C_11  and  C_22
REMARK    7  A    between atoms: N_13  and  C_14
REMARK    8  A    between atoms: C_19  and  C_20
REMARK    9  A    between atoms: C_20  and  C_21
REMARK   10  A    between atoms: C_22  and  C_23
REMARK   11  A    between atoms: C_22  and  C_24
REMARK   12  A    between atoms: C_22  and  C_25
REMARK   13  A    between atoms: C_26  and  C_32
REMARK   14  A    between atoms: C_35  and  O_38
REMARK   15  A    between atoms: O_38  and  C_39
REMARK                            x       y       z     vdW  Elec       q    Type
REMARK                         _______ _______ _______ _____ _____    ______ ____
ROOT
ATOM      1  N   UNL     1      -3.274  -3.174   2.357  0.00  0.00    -0.246 N 
ATOM      2  C   UNL     1      -4.277  -3.988   2.905  0.00  0.00    +0.136 A 
ATOM      3  C   UNL     1      -5.594  -3.679   2.883  0.00  0.00    +0.034 A 
ATOM      4  C   UNL     1      -6.289  -4.715   3.509  0.00  0.00    +0.075 A 
ATOM      5  N   UNL     1      -5.418  -5.616   3.898  0.00  0.00    -0.169 NA
ATOM      6  N   UNL     1      -4.135  -5.181   3.531  0.00  0.00    -0.217 N 
ATOM      7  C   UNL     1      -6.174  -2.424   2.283  0.00  0.00    +0.112 C 
ATOM      8  S   UNL     1      -6.100  -2.560   0.461  0.00  0.00    -0.138 S 
ATOM      9  C   UNL     1      -4.461  -3.320   0.207  0.00  0.00    +0.166 C 
ATOM     10  C   UNL     1      -3.446  -2.698   1.120  0.00  0.00    +0.231 C 
ATOM     11  O   UNL     1      -2.775  -1.764   0.734  0.00  0.00    -0.274 OA
ENDROOT
BRANCH   6  12
ATOM     12  C   UNL     1      -2.930  -5.855   3.768  0.00  0.00    +0.071 A 
ATOM     13  C   UNL     1      -1.942  -5.879   2.793  0.00  0.00    +0.028 A 
ATOM     14  C   UNL     1      -0.755  -6.545   3.029  0.00  0.00    +0.002 A 
ATOM     15  C   UNL     1      -0.551  -7.188   4.237  0.00  0.00    +0.000 A 
ATOM     16  C   UNL     1      -1.533  -7.166   5.210  0.00  0.00    +0.006 A 
ATOM     17  C   UNL     1      -2.719  -6.497   4.981  0.00  0.00    -0.022 A 
BRANCH  17  18
ATOM     18  C   UNL     1      -3.786  -6.468   6.045  0.00  0.00    +0.034 C 
ATOM     19  C   UNL     1      -4.837  -7.538   5.742  0.00  0.00    +0.009 C 
ENDBRANCH  17  18
ENDBRANCH   6  12
BRANCH   7  20
ATOM     20  C   UNL     1      -7.606  -2.266   2.724  0.00  0.00    -0.030 A 
ATOM     21  C   UNL     1      -7.909  -1.474   3.816  0.00  0.00    +0.008 A 
ATOM     22  C   UNL     1      -9.221  -1.328   4.223  0.00  0.00    +0.046 A 
ATOM     23  C   UNL     1     -10.235  -1.978   3.535  0.00  0.00    +0.120 A 
ATOM     24  C   UNL     1      -9.929  -2.772   2.439  0.00  0.00    +0.046 A 
ATOM     25  C   UNL     1      -8.616  -2.910   2.033  0.00  0.00    +0.008 A 
BRANCH  23  26
ATOM     26  O   UNL     1     -11.527  -1.836   3.934  0.00  0.00    -0.495 OA
ATOM     27  C   UNL     1     -12.519  -2.534   3.178  0.00  0.00    +0.277 C 
ENDBRANCH  23  26
ENDBRANCH   7  20
BRANCH   4  28
ATOM     28  C   UNL     1      -7.781  -4.787   3.704  0.00  0.00    +0.007 C 
ATOM     29  C   UNL     1      -8.468  -4.925   2.344  0.00  0.00    +0.017 C 
ATOM     30  C   UNL     1      -8.124  -5.998   4.574  0.00  0.00    +0.017 C 
ATOM     31  C   UNL     1      -8.267  -3.510   4.394  0.00  0.00    +0.017 C 
ENDBRANCH   4  28
BRANCH   1  32
ATOM     32  C   UNL     1      -2.070  -2.849   3.126  0.00  0.00    +0.210 C 
BRANCH  32  34
ATOM     33  N   UNL     1      -1.277  -1.022   4.593  0.00  0.00    -0.314 N 
ATOM     34  C   UNL     1      -2.261  -1.527   3.823  0.00  0.00    +0.231 C 
ATOM     35  O   UNL     1      -3.301  -0.916   3.692  0.00  0.00    -0.274 OA
ATOM     36  H   UNL     1      -0.445  -1.510   4.699  0.00  0.00    +0.149 HD
BRANCH  33  37
ATOM     37  C   UNL     1      -1.463   0.263   5.272  0.00  0.00    +0.104 C 
BRANCH  37  39
ATOM     38  C   UNL     1      -0.400   1.945   6.782  0.00  0.00    +0.005 C 
ATOM     39  C   UNL     1      -0.205   0.603   6.074  0.00  0.00    +0.015 C 
ENDBRANCH  37  39
ENDBRANCH  33  37
ENDBRANCH  32  34
ENDBRANCH   1  32
TORSDOF 9
