REMARK  Name = ZINC39637208
REMARK  5 active torsions:
REMARK  status: ('A' for Active; 'I' for Inactive)
REMARK    1  A    between atoms: C_1  and  C_2
REMARK    2  A    between atoms: C_7  and  N_12
REMARK    3  A    between atoms: C_9  and  C_11
REMARK    4  A    between atoms: C_13  and  C_15
REMARK    5  A    between atoms: C_26  and  C_28
REMARK                            x       y       z     vdW  Elec       q    Type
REMARK                         _______ _______ _______ _____ _____    ______ ____
ROOT
ATOM      1  C   UNL     1       2.094  -4.484   3.540  0.00  0.00    +0.100 C 
ATOM      2  C   UNL     1       3.637  -4.573   3.538  0.00  0.00    +0.121 C 
ATOM      3  N   UNL     1       3.943  -5.776   4.347  0.00  0.00    -0.296 N 
ATOM      4  C   UNL     1       2.902  -6.757   3.956  0.00  0.00    +0.115 C 
ATOM      5  C   UNL     1       1.616  -5.920   3.813  0.00  0.00    -0.004 C 
ATOM      6  C   UNL     1       0.781  -6.431   2.643  0.00  0.00    -0.010 C 
ATOM      7  C   UNL     1       0.269  -7.838   2.963  0.00  0.00    -0.082 C 
ATOM      8  N   UNL     1      -0.540  -7.799   4.187  0.00  0.00    +0.379 N 
ATOM      9  C   UNL     1       0.293  -7.396   5.326  0.00  0.00    -0.082 C 
ATOM     10  C   UNL     1       0.807  -5.970   5.106  0.00  0.00    -0.010 C 
ATOM     11  C   UNL     1       4.942  -5.941   5.237  0.00  0.00    +0.247 C 
ATOM     12  O   UNL     1       5.654  -5.002   5.533  0.00  0.00    -0.270 OA
ATOM     13  H   UNL     1      -1.292  -7.136   4.071  0.00  0.00    -0.086 HD
ATOM     14  H   UNL     1      -0.927  -8.714   4.363  0.00  0.00    -0.086 HD
ENDROOT
BRANCH  11  15
ATOM     15  C   UNL     1       5.172  -7.266   5.853  0.00  0.00    +0.040 A 
ATOM     16  C   UNL     1       4.697  -8.421   5.229  0.00  0.00    +0.033 A 
ATOM     17  C   UNL     1       4.914  -9.655   5.809  0.00  0.00    +0.043 A 
ATOM     18  C   UNL     1       5.602  -9.748   7.007  0.00  0.00    +0.040 A 
ATOM     19  C   UNL     1       6.075  -8.606   7.630  0.00  0.00    +0.043 A 
ATOM     20  C   UNL     1       5.869  -7.367   7.057  0.00  0.00    +0.033 A 
ATOM     21 CL   UNL     1       6.936  -8.733   9.133  0.00  0.00    -0.083 Cl
ATOM     22 CL   UNL     1       4.324 -11.092   5.035  0.00  0.00    -0.083 Cl
ENDBRANCH  11  15
BRANCH   1  24
ATOM     23  N   UNL     1       0.442  -3.318   2.115  0.00  0.00    -0.312 N 
ATOM     24  C   UNL     1       1.595  -4.011   2.199  0.00  0.00    +0.218 C 
ATOM     25  O   UNL     1       2.230  -4.254   1.195  0.00  0.00    -0.275 OA
ATOM     26  H   UNL     1      -0.067  -3.124   2.918  0.00  0.00    +0.149 HD
BRANCH  23  32
ATOM     27  C   UNL     1      -3.588  -2.023  -0.440  0.00  0.00    +0.008 C 
ATOM     28  C   UNL     1      -2.070  -2.201  -0.495  0.00  0.00    -0.009 C 
ATOM     29  C   UNL     1      -1.412  -0.864  -0.842  0.00  0.00    +0.003 C 
ATOM     30  C   UNL     1       0.107  -1.042  -0.897  0.00  0.00    +0.002 C 
ATOM     31  C   UNL     1       0.614  -1.522   0.465  0.00  0.00    +0.022 C 
ATOM     32  C   UNL     1      -0.044  -2.859   0.811  0.00  0.00    +0.076 C 
ATOM     33  C   UNL     1      -1.562  -2.681   0.867  0.00  0.00    +0.009 C 
ATOM     34  C   UNL     1      -2.220  -4.018   1.214  0.00  0.00    +0.009 C 
ENDBRANCH  23  32
ENDBRANCH   1  24
TORSDOF 3
