REMARK  Name = ZINC12833065
REMARK  13 active torsions:
REMARK  status: ('A' for Active; 'I' for Inactive)
REMARK    1  A    between atoms: C_1  and  C_2
REMARK    2  A    between atoms: C_2  and  O_3
REMARK    3  A    between atoms: O_3  and  C_4
REMARK    4  A    between atoms: C_4  and  C_6
REMARK    5  A    between atoms: C_6  and  N_7
REMARK    6  A    between atoms: C_8  and  C_12
REMARK    7  A    between atoms: C_12  and  N_13
REMARK    8  A    between atoms: N_13  and  C_14
REMARK    9  A    between atoms: N_13  and  C_20
REMARK   10  A    between atoms: C_14  and  C_15
REMARK   11  A    between atoms: C_20  and  C_21
REMARK   12  A    between atoms: C_25  and  C_34
REMARK   13  A    between atoms: C_27  and  C_33
REMARK                            x       y       z     vdW  Elec       q    Type
REMARK                         _______ _______ _______ _____ _____    ______ ____
ROOT
ATOM      1  N   UNL     1      -1.552  -4.030   2.614  0.00  0.00    +0.390 N 
ATOM      2  H   UNL     1      -1.296  -3.526   1.778  0.00  0.00    -0.080 HD
ENDROOT
BRANCH   1   3
ATOM      3  C   UNL     1      -0.390  -4.117   3.509  0.00  0.00    +0.001 C 
BRANCH   3   5
ATOM      4  N   UNL     1       1.706  -4.075   2.056  0.00  0.00    -0.220 N 
ATOM      5  C   UNL     1       0.770  -4.731   2.768  0.00  0.00    +0.136 A 
ATOM      6  N   UNL     1       1.064  -6.006   2.692  0.00  0.00    -0.115 NA
ATOM      7  N   UNL     1       2.125  -6.127   1.972  0.00  0.00    -0.023 NA
ATOM      8  N   UNL     1       2.513  -4.963   1.581  0.00  0.00    -0.043 NA
BRANCH   4   9
ATOM      9  C   UNL     1       1.790  -2.627   1.854  0.00  0.00    +0.267 C 
BRANCH   9  10
ATOM     10  C   UNL     1       1.008  -2.246   0.623  0.00  0.00    +0.329 C 
ATOM     11  O   UNL     1       0.440  -3.096  -0.019  0.00  0.00    -0.249 OA
BRANCH  10  12
ATOM     12  O   UNL     1       0.944  -0.961   0.240  0.00  0.00    -0.464 OA
BRANCH  12  14
ATOM     13  C   UNL     1       0.227   0.833  -1.212  0.00  0.00    +0.048 C 
ATOM     14  C   UNL     1       0.185  -0.671  -0.935  0.00  0.00    +0.229 C 
ENDBRANCH  12  14
ENDBRANCH  10  12
ENDBRANCH   9  10
ENDBRANCH   4   9
ENDBRANCH   3   5
ENDBRANCH   1   3
BRANCH   1  15
ATOM     15  C   UNL     1      -1.993  -5.384   2.252  0.00  0.00    -0.035 C 
BRANCH  15  16
ATOM     16  C   UNL     1      -3.092  -5.296   1.224  0.00  0.00    -0.027 A 
ATOM     17  C   UNL     1      -2.993  -5.170  -0.122  0.00  0.00    +0.009 A 
ATOM     18  C   UNL     1      -4.149  -5.109  -0.876  0.00  0.00    +0.008 A 
ATOM     19  C   UNL     1      -5.348  -5.176  -0.247  0.00  0.00    +0.045 A 
ATOM     20  S   UNL     1      -4.861  -5.338   1.462  0.00  0.00    -0.103 S 
ENDBRANCH  15  16
ENDBRANCH   1  15
BRANCH   1  21
ATOM     21  C   UNL     1      -2.644  -3.324   3.296  0.00  0.00    -0.036 C 
BRANCH  21  22
ATOM     22  C   UNL     1      -2.241  -1.893   3.543  0.00  0.00    +0.001 A 
ATOM     23  C   UNL     1      -2.579  -0.932   2.648  0.00  0.00    +0.017 A 
ATOM     24  C   UNL     1      -2.173   0.448   2.917  0.00  0.00    -0.001 A 
ATOM     25  C   UNL     1      -2.493   1.482   2.032  0.00  0.00    +0.013 A 
ATOM     26  C   UNL     1      -2.099   2.760   2.312  0.00  0.00    -0.050 A 
ATOM     27  C   UNL     1      -1.384   3.042   3.468  0.00  0.00    +0.008 A 
ATOM     28  C   UNL     1      -1.057   2.038   4.355  0.00  0.00    -0.026 A 
ATOM     29  C   UNL     1      -1.448   0.730   4.091  0.00  0.00    +0.052 A 
ATOM     30  N   UNL     1      -1.136  -0.293   4.961  0.00  0.00    -0.322 N 
ATOM     31  H   UNL     1      -0.636  -0.098   5.769  0.00  0.00    +0.169 HD
ATOM     32  C   UNL     1      -1.518  -1.557   4.708  0.00  0.00    +0.251 A 
ATOM     33  O   UNL     1      -1.229  -2.436   5.502  0.00  0.00    -0.268 OA
ATOM     34  C   UNL     1      -0.280   2.358   5.606  0.00  0.00    +0.046 C 
ATOM     35  C   UNL     1      -2.444   3.874   1.357  0.00  0.00    +0.044 C 
ENDBRANCH  21  22
ENDBRANCH   1  21
TORSDOF 10
