REMARK  Name = ZINC12152043
REMARK  13 active torsions:
REMARK  status: ('A' for Active; 'I' for Inactive)
REMARK    1  A    between atoms: C_1  and  C_2
REMARK    2  A    between atoms: C_7  and  C_8
REMARK    3  A    between atoms: C_8  and  C_9
REMARK    4  A    between atoms: N_11  and  C_12
REMARK    5  A    between atoms: C_16  and  C_25
REMARK    6  A    between atoms: C_20  and  C_21
REMARK    7  A    between atoms: C_21  and  O_23
REMARK    8  A    between atoms: O_23  and  C_24
REMARK    9  A    between atoms: C_25  and  N_60
REMARK   10  A    between atoms: C_26  and  N_60
REMARK   11  A    between atoms: C_27  and  C_29
REMARK   12  A    between atoms: C_27  and  C_30
REMARK   13  A    between atoms: C_27  and  N_60
REMARK                            x       y       z     vdW  Elec       q    Type
REMARK                         _______ _______ _______ _____ _____    ______ ____
ROOT
ATOM      1  C   UNL     1       1.522  -2.533  -2.031  0.00  0.00    +0.064 A 
ATOM      2  C   UNL     1       1.648  -3.951  -1.735  0.00  0.00    +0.030 A 
ATOM      3  C   UNL     1       2.228  -4.972  -2.528  0.00  0.00    +0.014 A 
ATOM      4  C   UNL     1       2.241  -6.261  -2.050  0.00  0.00    +0.022 A 
ATOM      5  C   UNL     1       1.694  -6.554  -0.809  0.00  0.00    +0.026 A 
ATOM      6  N   UNL     1       1.155  -5.601  -0.074  0.00  0.00    -0.246 NA
ATOM      7  C   UNL     1       1.118  -4.353  -0.488  0.00  0.00    +0.111 A 
ATOM      8  S   UNL     1       0.497  -2.847   0.218  0.00  0.00    -0.060 S 
ATOM      9  C   UNL     1       0.914  -1.721  -1.099  0.00  0.00    +0.120 A 
ENDROOT
BRANCH   1  12
ATOM     10  C   UNL     1       1.918  -2.731  -4.362  0.00  0.00    +0.222 C 
ATOM     11  O   UNL     1       1.355  -3.805  -4.356  0.00  0.00    -0.275 OA
ATOM     12  N   UNL     1       2.002  -2.009  -3.227  0.00  0.00    -0.284 N 
ATOM     13  H   UNL     1       2.398  -1.123  -3.244  0.00  0.00    +0.155 HD
BRANCH  10  14
ATOM     14  C   UNL     1       2.524  -2.204  -5.637  0.00  0.00    +0.131 C 
BRANCH  14  21
ATOM     15  C   UNL     1       0.046  -2.161  -7.122  0.00  0.00    +0.044 C 
ATOM     16  C   UNL     1       1.109  -3.174  -7.459  0.00  0.00    -0.047 A 
ATOM     17  C   UNL     1       0.898  -4.083  -8.480  0.00  0.00    +0.003 A 
ATOM     18  C   UNL     1       1.873  -5.013  -8.790  0.00  0.00    +0.000 A 
ATOM     19  C   UNL     1       3.059  -5.034  -8.079  0.00  0.00    +0.000 A 
ATOM     20  C   UNL     1       3.272  -4.122  -7.062  0.00  0.00    +0.004 A 
ATOM     21  C   UNL     1       2.294  -3.195  -6.749  0.00  0.00    -0.036 A 
ENDBRANCH  14  21
ENDBRANCH  10  14
ENDBRANCH   1  12
BRANCH   9  22
ATOM     22  C   UNL     1       0.681  -0.324  -1.168  0.00  0.00    +0.348 C 
ATOM     23  O   UNL     1       1.117   0.320  -2.104  0.00  0.00    -0.244 OA
BRANCH  22  24
ATOM     24  O   UNL     1      -0.024   0.291  -0.195  0.00  0.00    -0.464 OA
ATOM     25  C   UNL     1      -0.220   1.700  -0.329  0.00  0.00    +0.280 C 
ENDBRANCH  22  24
ENDBRANCH   9  22
BRANCH   5  26
ATOM     26  C   UNL     1       1.717  -7.972  -0.297  0.00  0.00    -0.022 C 
BRANCH  26  28
ATOM     27  C   UNL     1       2.786  -7.352   1.785  0.00  0.00    -0.095 C 
ATOM     28  N   UNL     1       2.914  -8.154   0.550  0.00  0.00    +0.387 N 
ATOM     29  H   UNL     1       3.741  -7.836   0.031  0.00  0.00    -0.081 HD
BRANCH  28  30
ATOM     30  C   UNL     1       3.080  -9.583   0.890  0.00  0.00    -0.018 C 
ATOM     31  C   UNL     1       4.269  -9.734   1.841  0.00  0.00    -0.007 C 
BRANCH  30  32
ATOM     32  C   UNL     1       3.347 -10.357  -0.375  0.00  0.00    +0.070 A 
ATOM     33  C   UNL     1       3.090 -11.729  -0.599  0.00  0.00    +0.065 A 
ATOM     34  C   UNL     1       3.498 -11.935  -1.874  0.00  0.00    +0.230 A 
ATOM     35  O   UNL     1       3.958 -10.757  -2.320  0.00  0.00    -0.363 OA
ATOM     36  N   UNL     1       3.866  -9.896  -1.477  0.00  0.00    -0.085 NA
ENDBRANCH  30  32
ENDBRANCH  28  30
ENDBRANCH  26  28
ENDBRANCH   5  26
TORSDOF 9
