REMARK  Name = ZINC13149866
REMARK  9 active torsions:
REMARK  status: ('A' for Active; 'I' for Inactive)
REMARK    1  A    between atoms: C_1  and  C_2
REMARK    2  A    between atoms: C_6  and  N_9
REMARK    3  A    between atoms: C_7  and  C_8
REMARK    4  A    between atoms: C_10  and  C_12
REMARK    5  A    between atoms: C_12  and  N_13
REMARK    6  A    between atoms: N_13  and  C_14
REMARK    7  A    between atoms: C_14  and  C_15
REMARK    8  A    between atoms: C_21  and  C_23
REMARK    9  A    between atoms: C_24  and  C_25
REMARK                            x       y       z     vdW  Elec       q    Type
REMARK                         _______ _______ _______ _____ _____    ______ ____
ROOT
ATOM      1  N   UNL     1      -0.686   1.561   1.202  0.00  0.00    -0.287 N 
ATOM      2  C   UNL     1      -1.656   0.810   1.761  0.00  0.00    +0.240 C 
ATOM      3  O   UNL     1      -2.221   1.198   2.767  0.00  0.00    -0.271 OA
ENDROOT
BRANCH   2   4
ATOM      4  C   UNL     1      -2.029  -0.469   1.159  0.00  0.00    +0.068 C 
ATOM      5  C   UNL     1      -3.001  -1.221   1.720  0.00  0.00    +0.013 C 
BRANCH   5   6
ATOM      6  C   UNL     1      -3.376  -2.507   1.115  0.00  0.00    -0.021 A 
ATOM      7  C   UNL     1      -2.731  -2.952  -0.045  0.00  0.00    +0.012 A 
ATOM      8  C   UNL     1      -3.081  -4.161  -0.605  0.00  0.00    +0.050 A 
ATOM      9  C   UNL     1      -4.080  -4.936  -0.031  0.00  0.00    +0.166 A 
ATOM     10  C   UNL     1      -4.731  -4.495   1.122  0.00  0.00    +0.167 A 
ATOM     11  C   UNL     1      -4.383  -3.288   1.694  0.00  0.00    +0.057 A 
ATOM     12  O   UNL     1      -5.661  -5.429   1.480  0.00  0.00    -0.453 OA
ATOM     13  C   UNL     1      -5.856  -6.245   0.310  0.00  0.00    +0.466 C 
ATOM     14  O   UNL     1      -4.603  -6.143  -0.392  0.00  0.00    -0.453 OA
ENDBRANCH   5   6
ENDBRANCH   2   4
BRANCH   1  15
ATOM     15  C   UNL     1      -0.312   2.842   1.804  0.00  0.00    +0.204 C 
BRANCH  15  17
ATOM     16  N   UNL     1      -0.986   5.215   1.617  0.00  0.00    -0.284 N 
ATOM     17  C   UNL     1      -1.155   3.942   1.211  0.00  0.00    +0.235 C 
ATOM     18  O   UNL     1      -1.987   3.680   0.368  0.00  0.00    -0.274 OA
ATOM     19  H   UNL     1      -0.379   5.415   2.347  0.00  0.00    +0.155 HD
BRANCH  16  25
ATOM     20  C   UNL     1      -2.893   9.744   1.774  0.00  0.00    +0.044 C 
ATOM     21  C   UNL     1      -2.623   8.456   1.039  0.00  0.00    -0.046 A 
ATOM     22  C   UNL     1      -3.068   8.296  -0.261  0.00  0.00    +0.004 A 
ATOM     23  C   UNL     1      -2.824   7.116  -0.938  0.00  0.00    +0.002 A 
ATOM     24  C   UNL     1      -2.128   6.095  -0.320  0.00  0.00    +0.023 A 
ATOM     25  C   UNL     1      -1.685   6.250   0.987  0.00  0.00    +0.037 A 
ATOM     26  C   UNL     1      -1.933   7.437   1.664  0.00  0.00    -0.026 A 
ATOM     27  C   UNL     1      -1.448   7.612   3.080  0.00  0.00    +0.046 C 
ENDBRANCH  16  25
ENDBRANCH  15  17
ENDBRANCH   1  15
BRANCH   1  28
ATOM     28  C   UNL     1      -0.006   1.094  -0.009  0.00  0.00    +0.140 C 
BRANCH  28  29
ATOM     29  C   UNL     1      -0.755   1.601  -1.243  0.00  0.00    +0.136 C 
ATOM     30  C   UNL     1      -0.129   1.019  -2.529  0.00  0.00    +0.035 C 
ATOM     31  C   UNL     1      -0.220   2.177  -3.548  0.00  0.00    +0.031 C 
ATOM     32  C   UNL     1      -0.890   3.322  -2.757  0.00  0.00    +0.160 C 
ATOM     33  O   UNL     1      -0.601   3.031  -1.372  0.00  0.00    -0.375 OA
ENDBRANCH  28  29
ENDBRANCH   1  28
TORSDOF 7
