REMARK  Name = ZINC20286576
REMARK  7 active torsions:
REMARK  status: ('A' for Active; 'I' for Inactive)
REMARK    1  A    between atoms: C_1  and  N_2
REMARK    2  A    between atoms: C_6  and  S_15
REMARK    3  A    between atoms: N_11  and  C_14
REMARK    4  A    between atoms: S_15  and  N_18
REMARK    5  A    between atoms: N_18  and  C_19
REMARK    6  A    between atoms: C_19  and  C_21
REMARK    7  A    between atoms: C_19  and  C_27
REMARK                            x       y       z     vdW  Elec       q    Type
REMARK                         _______ _______ _______ _____ _____    ______ ____
ROOT
ATOM      1  N   UNL     1      -1.360   7.666   4.909  0.00  0.00    -0.174 NA
ATOM      2  H   UNL     1      -1.678   8.045   5.891  0.00  0.00    +0.149 HD
ENDROOT
BRANCH   1   3
ATOM      3  S   UNL     1      -2.504   7.345   3.756  0.00  0.00    +0.059 S 
ATOM      4  O   UNL     1      -1.958   7.766   2.513  0.00  0.00    -0.153 OA
ATOM      5  O   UNL     1      -3.736   7.847   4.256  0.00  0.00    -0.153 OA
BRANCH   3  11
ATOM      6  C   UNL     1      -4.054   0.755   4.292  0.00  0.00    +0.154 C 
ATOM      7  N   UNL     1      -3.082   1.457   3.450  0.00  0.00    -0.296 N 
ATOM      8  C   UNL     1      -2.964   2.836   3.540  0.00  0.00    +0.058 A 
ATOM      9  C   UNL     1      -3.748   3.577   4.411  0.00  0.00    +0.028 A 
ATOM     10  C   UNL     1      -3.600   4.948   4.469  0.00  0.00    +0.030 A 
ATOM     11  C   UNL     1      -2.674   5.594   3.664  0.00  0.00    +0.106 A 
ATOM     12  C   UNL     1      -1.886   4.874   2.791  0.00  0.00    +0.043 A 
ATOM     13  C   UNL     1      -2.025   3.490   2.723  0.00  0.00    +0.065 A 
ATOM     14  C   UNL     1      -1.205   2.672   1.812  0.00  0.00    +0.264 A 
ATOM     15  O   UNL     1      -0.375   3.187   1.087  0.00  0.00    -0.267 OA
ATOM     16  N   UNL     1      -1.403   1.336   1.798  0.00  0.00    -0.263 N 
ATOM     17  C   UNL     1      -2.313   0.758   2.597  0.00  0.00    +0.332 A 
ATOM     18  O   UNL     1      -2.447  -0.450   2.549  0.00  0.00    -0.246 OA
ATOM     19  C   UNL     1      -0.605   0.500   0.897  0.00  0.00    +0.157 C 
ENDBRANCH   3  11
ENDBRANCH   1   3
BRANCH   1  20
ATOM     20  C   UNL     1       0.028   7.245   4.701  0.00  0.00    +0.192 C 
BRANCH  20  21
ATOM     21  C   UNL     1       0.959   8.267   5.301  0.00  0.00    +0.243 C 
ATOM     22  O   UNL     1       0.585   8.960   6.223  0.00  0.00    -0.273 OA
ATOM     23  N   UNL     1       2.207   8.411   4.813  0.00  0.00    -0.270 N 
ATOM     24  C   UNL     1       2.644   7.638   3.642  0.00  0.00    +0.114 C 
ATOM     25  C   UNL     1       4.045   7.095   3.931  0.00  0.00    +0.024 C 
ATOM     26  C   UNL     1       5.008   8.269   4.106  0.00  0.00    +0.038 C 
ATOM     27  C   UNL     1       4.460   9.254   5.105  0.00  0.00    -0.026 A 
ATOM     28  C   UNL     1       3.111   9.296   5.417  0.00  0.00    +0.039 A 
ATOM     29  C   UNL     1       2.638  10.222   6.339  0.00  0.00    +0.024 A 
ATOM     30  C   UNL     1       3.512  11.100   6.948  0.00  0.00    +0.002 A 
ATOM     31  C   UNL     1       4.859  11.056   6.638  0.00  0.00    +0.000 A 
ATOM     32  C   UNL     1       5.331  10.138   5.721  0.00  0.00    +0.005 A 
ENDBRANCH  20  21
BRANCH  20  33
ATOM     33  C   UNL     1       0.253   5.910   5.364  0.00  0.00    -0.020 A 
ATOM     34  C   UNL     1      -0.198   5.694   6.653  0.00  0.00    +0.006 A 
ATOM     35  C   UNL     1       0.004   4.469   7.259  0.00  0.00    +0.000 A 
ATOM     36  C   UNL     1       0.665   3.462   6.580  0.00  0.00    +0.000 A 
ATOM     37  C   UNL     1       1.120   3.680   5.293  0.00  0.00    +0.000 A 
ATOM     38  C   UNL     1       0.914   4.904   4.685  0.00  0.00    +0.006 A 
ENDBRANCH  20  33
ENDBRANCH   1  20
TORSDOF 5
