REMARK  Name = ZINC39431002
REMARK  8 active torsions:
REMARK  status: ('A' for Active; 'I' for Inactive)
REMARK    1  A    between atoms: C_1  and  C_2
REMARK    2  A    between atoms: C_7  and  N_8
REMARK    3  A    between atoms: C_9  and  C_11
REMARK    4  A    between atoms: C_11  and  N_12
REMARK    5  A    between atoms: C_13  and  C_15
REMARK    6  A    between atoms: C_15  and  O_16
REMARK    7  A    between atoms: O_16  and  C_17
REMARK    8  A    between atoms: C_17  and  C_19
REMARK                            x       y       z     vdW  Elec       q    Type
REMARK                         _______ _______ _______ _____ _____    ______ ____
ROOT
ATOM      1  C   UNL     1      -0.420  -1.445   8.396  0.00  0.00    +0.328 C 
ENDROOT
BRANCH   1   3
ATOM      2  N   UNL     1      -0.240  -0.903   5.989  0.00  0.00    -0.304 N 
ATOM      3  C   UNL     1      -0.345  -0.460   7.257  0.00  0.00    +0.251 C 
ATOM      4  O   UNL     1      -0.377   0.731   7.483  0.00  0.00    -0.272 OA
ATOM      5  H   UNL     1      -0.214  -1.856   5.809  0.00  0.00    +0.149 HD
BRANCH   2   6
ATOM      6  C   UNL     1      -0.167   0.054   4.882  0.00  0.00    +0.200 C 
BRANCH   6   8
ATOM      7  N   UNL     1       0.026  -0.014   2.417  0.00  0.00    -0.284 N 
ATOM      8  C   UNL     1      -0.056  -0.694   3.578  0.00  0.00    +0.234 C 
ATOM      9  O   UNL     1      -0.040  -1.906   3.574  0.00  0.00    -0.274 OA
ATOM     10  H   UNL     1       0.079   0.955   2.425  0.00  0.00    +0.155 HD
BRANCH   7  17
ATOM     11  C   UNL     1      -1.265   1.183   0.182  0.00  0.00    +0.046 C 
ATOM     12  C   UNL     1      -0.584  -0.158   0.085  0.00  0.00    -0.028 A 
ATOM     13  C   UNL     1      -0.570  -0.840  -1.116  0.00  0.00    +0.020 A 
ATOM     14  C   UNL     1       0.055  -2.071  -1.206  0.00  0.00    +0.018 A 
ATOM     15  C   UNL     1       0.666  -2.623  -0.094  0.00  0.00    +0.017 A 
ATOM     16  C   UNL     1       0.655  -1.945   1.109  0.00  0.00    +0.024 A 
ATOM     17  C   UNL     1       0.034  -0.706   1.201  0.00  0.00    +0.036 A 
ATOM     18 BR   UNL     1       0.072  -3.002  -2.852  0.00  0.00    -0.050 Br
ENDBRANCH   7  17
ENDBRANCH   6   8
ENDBRANCH   2   6
ENDBRANCH   1   3
BRANCH   1  19
ATOM     19  O   UNL     1      -0.525  -0.737   9.632  0.00  0.00    -0.452 OA
BRANCH  19  20
ATOM     20  C   UNL     1      -0.603  -1.476  10.756  0.00  0.00    +0.340 C 
ATOM     21  O   UNL     1      -0.583  -2.689  10.688  0.00  0.00    -0.245 OA
BRANCH  20  22
ATOM     22  C   UNL     1      -0.714  -0.814  12.068  0.00  0.00    +0.060 A 
ATOM     23  C   UNL     1      -0.743   0.643  12.133  0.00  0.00    +0.017 A 
ATOM     24  C   UNL     1      -0.848   1.287  13.313  0.00  0.00    +0.027 A 
ATOM     25  C   UNL     1      -0.934   0.518  14.558  0.00  0.00    +0.043 A 
ATOM     26  N   UNL     1      -1.019   0.909  15.810  0.00  0.00    -0.378 N 
ATOM     27  C   UNL     1      -1.159  -0.271  16.657  0.00  0.00    +0.106 C 
ATOM     28  C   UNL     1      -0.070  -0.348  17.731  0.00  0.00    +0.029 C 
ATOM     29  C   UNL     1      -0.119  -1.738  18.375  0.00  0.00    +0.003 C 
ATOM     30  C   UNL     1       0.248  -2.825  17.367  0.00  0.00    +0.004 C 
ATOM     31  C   UNL     1      -0.797  -2.870  16.238  0.00  0.00    +0.033 C 
ATOM     32  C   UNL     1      -0.971  -1.459  15.729  0.00  0.00    -0.038 C 
ATOM     33  C   UNL     1      -0.894  -0.963  14.481  0.00  0.00    -0.000 A 
ATOM     34  C   UNL     1      -0.792  -1.581  13.207  0.00  0.00    +0.025 A 
ATOM     35  H   UNL     1      -0.994   1.828  16.119  0.00  0.00    +0.160 HD
ENDBRANCH  20  22
ENDBRANCH  19  20
ENDBRANCH   1  19
TORSDOF 7
