REMARK  Name = ZINC36826230
REMARK  4 active torsions:
REMARK  status: ('A' for Active; 'I' for Inactive)
REMARK    1  A    between atoms: C_1  and  C_2
REMARK    2  A    between atoms: C_3  and  N_23
REMARK    3  A    between atoms: C_7  and  S_8
REMARK    4  A    between atoms: S_8  and  N_11
REMARK                            x       y       z     vdW  Elec       q    Type
REMARK                         _______ _______ _______ _____ _____    ______ ____
ROOT
ATOM      1  S   UNL     1       0.257   0.177   2.774  0.00  0.00    +0.061 S 
ATOM      2  O   UNL     1      -0.733   0.904   2.060  0.00  0.00    -0.153 OA
ATOM      3  O   UNL     1       0.116  -0.155   4.148  0.00  0.00    -0.153 OA
ENDROOT
BRANCH   1   4
ATOM      4  N   UNL     1       1.666   1.035   2.636  0.00  0.00    -0.173 NA
ATOM      5  C   UNL     1       2.961   0.410   2.942  0.00  0.00    +0.110 C 
ATOM      6  C   UNL     1       3.705   1.282   3.958  0.00  0.00    +0.017 C 
ATOM      7  C   UNL     1       3.803   2.714   3.428  0.00  0.00    +0.006 C 
ATOM      8  C   UNL     1       2.391   3.284   3.244  0.00  0.00    +0.008 C 
ATOM      9  C   UNL     1       1.652   2.436   2.200  0.00  0.00    +0.083 C 
ATOM     10  C   UNL     1       0.215   2.923   2.040  0.00  0.00    +0.021 C 
ATOM     11  C   UNL     1      -0.512   2.850   3.384  0.00  0.00    +0.002 C 
ATOM     12  C   UNL     1       0.218   3.732   4.400  0.00  0.00    +0.000 C 
ATOM     13  C   UNL     1       1.661   3.232   4.588  0.00  0.00    +0.005 C 
ENDBRANCH   1   4
BRANCH   1  20
ATOM     14  C   UNL     1       0.762  -0.027  -0.200  0.00  0.00    +0.047 C 
ATOM     15  C   UNL     1       0.711  -1.334   0.548  0.00  0.00    -0.004 A 
ATOM     16  C   UNL     1       0.897  -2.532  -0.131  0.00  0.00    +0.029 A 
ATOM     17  C   UNL     1       0.850  -3.734   0.563  0.00  0.00    +0.023 A 
ATOM     18  C   UNL     1       0.619  -3.735   1.924  0.00  0.00    +0.004 A 
ATOM     19  C   UNL     1       0.434  -2.542   2.597  0.00  0.00    +0.029 A 
ATOM     20  C   UNL     1       0.486  -1.342   1.910  0.00  0.00    +0.110 A 
BRANCH  16  21
ATOM     21  N   UNL     1       1.129  -2.527  -1.508  0.00  0.00    -0.358 N 
ATOM     22  H   UNL     1       1.162  -1.686  -1.992  0.00  0.00    +0.142 HD
ATOM     23  H   UNL     1       1.259  -3.364  -1.981  0.00  0.00    +0.142 HD
ENDBRANCH  16  21
ENDBRANCH   1  20
TORSDOF 3
