REMARK  Name = ZINC33936420
REMARK  11 active torsions:
REMARK  status: ('A' for Active; 'I' for Inactive)
REMARK    1  A    between atoms: C_1  and  C_2
REMARK    2  A    between atoms: C_2  and  O_3
REMARK    3  A    between atoms: O_3  and  C_4
REMARK    4  A    between atoms: C_4  and  C_6
REMARK    5  A    between atoms: C_7  and  C_32
REMARK    6  A    between atoms: C_11  and  C_13
REMARK    7  A    between atoms: C_16  and  C_19
REMARK    8  A    between atoms: C_22  and  C_28
REMARK    9  A    between atoms: C_24  and  C_27
REMARK   10  A    between atoms: C_28  and  O_30
REMARK   11  A    between atoms: O_30  and  C_31
REMARK                            x       y       z     vdW  Elec       q    Type
REMARK                         _______ _______ _______ _____ _____    ______ ____
ROOT
ATOM      1  C   UNL     1      -2.797  -2.416   0.161  0.00  0.00    +0.065 C 
ATOM      2  C   UNL     1      -2.943  -3.729  -0.086  0.00  0.00    +0.016 C 
ATOM      3  N   UNL     1      -4.188  -4.272  -0.234  0.00  0.00    -0.321 N 
ATOM      4  C   UNL     1      -5.265  -3.479  -0.528  0.00  0.00    +0.016 C 
ATOM      5  C   UNL     1      -5.218  -2.149  -0.303  0.00  0.00    +0.025 C 
ATOM      6  C   UNL     1      -3.987  -1.512   0.295  0.00  0.00    +0.092 C 
ATOM      7  C   UNL     1      -6.311  -1.322  -0.616  0.00  0.00    +0.176 C 
ATOM      8  O   UNL     1      -6.238  -0.129  -0.394  0.00  0.00    -0.291 OA
ATOM      9  C   UNL     1      -7.568  -1.885  -1.220  0.00  0.00    +0.171 C 
ATOM     10  C   UNL     1      -7.215  -3.139  -2.027  0.00  0.00    +0.013 C 
ATOM     11  C   UNL     1      -6.500  -4.127  -1.103  0.00  0.00    +0.055 C 
ATOM     12  C   UNL     1      -8.494  -3.774  -2.575  0.00  0.00    +0.009 C 
ATOM     13  C   UNL     1      -1.724  -4.609  -0.202  0.00  0.00    +0.061 C 
ATOM     14  H   UNL     1      -4.311  -5.229  -0.129  0.00  0.00    +0.152 HD
ENDROOT
BRANCH   6  15
ATOM     15  C   UNL     1      -4.230  -1.229   1.755  0.00  0.00    -0.035 A 
ATOM     16  C   UNL     1      -4.489  -2.270   2.628  0.00  0.00    +0.005 A 
ATOM     17  C   UNL     1      -4.712  -2.010   3.967  0.00  0.00    +0.003 A 
ATOM     18  C   UNL     1      -4.676  -0.709   4.434  0.00  0.00    -0.050 A 
ATOM     19  C   UNL     1      -4.416   0.331   3.562  0.00  0.00    +0.003 A 
ATOM     20  C   UNL     1      -4.189   0.071   2.223  0.00  0.00    +0.005 A 
ATOM     21  C   UNL     1      -4.920  -0.426   5.894  0.00  0.00    +0.044 C 
ENDBRANCH   6  15
BRANCH   1  22
ATOM     22  C   UNL     1      -1.497  -1.877   0.302  0.00  0.00    +0.338 C 
ATOM     23  O   UNL     1      -1.018  -1.203  -0.590  0.00  0.00    -0.245 OA
BRANCH  22  24
ATOM     24  O   UNL     1      -0.788  -2.111   1.426  0.00  0.00    -0.462 OA
BRANCH  24  26
ATOM     25  C   UNL     1       1.163  -1.906   2.838  0.00  0.00    +0.048 C 
ATOM     26  C   UNL     1       0.518  -1.535   1.501  0.00  0.00    +0.229 C 
ENDBRANCH  24  26
ENDBRANCH  22  24
ENDBRANCH   1  22
BRANCH   9  27
ATOM     27  C   UNL     1      -8.195  -0.859  -2.127  0.00  0.00    +0.318 C 
ATOM     28  O   UNL     1      -8.353  -1.105  -3.300  0.00  0.00    -0.250 OA
BRANCH  27  29
ATOM     29  O   UNL     1      -8.579   0.329  -1.633  0.00  0.00    -0.467 OA
ATOM     30  C   UNL     1      -9.166   1.254  -2.550  0.00  0.00    +0.280 C 
ENDBRANCH  27  29
ENDBRANCH   9  27
TORSDOF 6
