REMARK  Name = ZINC02310210
REMARK  3 active torsions:
REMARK  status: ('A' for Active; 'I' for Inactive)
REMARK    1  A    between atoms: C_1  and  C_2
REMARK    2  A    between atoms: C_7  and  N_8
REMARK    3  A    between atoms: N_8  and  C_9
REMARK                            x       y       z     vdW  Elec       q    Type
REMARK                         _______ _______ _______ _____ _____    ______ ____
ROOT
ATOM      1  C   UNL     1       0.045  -0.699   3.580  0.00  0.00    +0.094 C 
ATOM      2  C   UNL     1       0.046  -0.017   4.782  0.00  0.00    +0.157 C 
ATOM      3  C   UNL     1       0.033   1.466   4.864  0.00  0.00    +0.350 C 
ATOM      4  O   UNL     1      -0.569   2.157   4.065  0.00  0.00    -0.245 OA
ATOM      5  O   UNL     1       0.738   1.998   5.897  0.00  0.00    -0.418 OA
ATOM      6  C   UNL     1       0.536   1.358   7.189  0.00  0.00    +0.260 C 
ATOM      7  C   UNL     1       1.509   1.955   8.207  0.00  0.00    +0.093 C 
ATOM      8  C   UNL     1       1.255   3.459   8.332  0.00  0.00    +0.008 C 
ATOM      9  C   UNL     1      -0.182   3.697   8.798  0.00  0.00    +0.000 C 
ATOM     10  C   UNL     1      -1.155   3.099   7.779  0.00  0.00    +0.008 C 
ATOM     11  C   UNL     1      -0.901   1.596   7.654  0.00  0.00    +0.093 C 
ATOM     12  O   UNL     1       0.776  -0.072   7.072  0.00  0.00    -0.418 OA
ATOM     13  C   UNL     1       0.068  -0.706   6.097  0.00  0.00    +0.350 C 
ATOM     14  O   UNL     1      -0.505  -1.761   6.289  0.00  0.00    -0.245 OA
ENDROOT
BRANCH   1  15
ATOM     15  N   UNL     1       0.025  -0.016   2.416  0.00  0.00    -0.319 N 
ATOM     16  H   UNL     1       0.011   0.954   2.423  0.00  0.00    +0.152 HD
BRANCH  15  23
ATOM     17  C   UNL     1      -0.018   1.503   0.010  0.00  0.00    +0.045 C 
ATOM     18  C   UNL     1       0.002  -0.004   0.002  0.00  0.00    -0.029 A 
ATOM     19  C   UNL     1      -0.006  -0.689  -1.197  0.00  0.00    +0.005 A 
ATOM     20  C   UNL     1       0.019  -2.071  -1.206  0.00  0.00    +0.000 A 
ATOM     21  C   UNL     1       0.040  -2.773  -0.014  0.00  0.00    +0.002 A 
ATOM     22  C   UNL     1       0.042  -2.095   1.188  0.00  0.00    +0.023 A 
ATOM     23  C   UNL     1       0.023  -0.706   1.200  0.00  0.00    +0.034 A 
ENDBRANCH  15  23
ENDBRANCH   1  15
TORSDOF 2
