REMARK  Name = ZINC23642684
REMARK  9 active torsions:
REMARK  status: ('A' for Active; 'I' for Inactive)
REMARK    1  A    between atoms: C_1  and  O_2
REMARK    2  A    between atoms: O_2  and  C_3
REMARK    3  A    between atoms: C_6  and  C_9
REMARK    4  A    between atoms: C_9  and  N_10
REMARK    5  A    between atoms: C_20  and  S_21
REMARK    6  A    between atoms: S_21  and  C_22
REMARK    7  A    between atoms: C_22  and  C_23
REMARK    8  A    between atoms: N_25  and  N_26
REMARK    9  A    between atoms: C_27  and  C_29
REMARK                            x       y       z     vdW  Elec       q    Type
REMARK                         _______ _______ _______ _____ _____    ______ ____
ROOT
ATOM      1  N   UNL     1       0.037  -2.766  -0.012  0.00  0.00    -0.283 N 
ATOM      2  C   UNL     1       1.240  -2.146  -0.021  0.00  0.00    +0.263 A 
ATOM      3  O   UNL     1       2.278  -2.781  -0.035  0.00  0.00    -0.267 OA
ATOM      4  C   UNL     1       1.245  -0.677  -0.013  0.00  0.00    +0.065 A 
ATOM      5  C   UNL     1       2.432   0.055  -0.021  0.00  0.00    +0.015 A 
ATOM      6  C   UNL     1       2.381   1.422  -0.013  0.00  0.00    +0.001 A 
ATOM      7  C   UNL     1       1.161   2.086   0.002  0.00  0.00    +0.002 A 
ATOM      8  C   UNL     1      -0.017   1.394   0.010  0.00  0.00    +0.028 A 
ATOM      9  C   UNL     1       0.002  -0.004   0.002  0.00  0.00    +0.079 A 
ATOM     10  N   UNL     1      -1.136  -0.727   0.009  0.00  0.00    -0.223 NA
ATOM     11  C   UNL     1      -1.118  -2.037   0.003  0.00  0.00    +0.173 A 
ENDROOT
BRANCH   1  12
ATOM     12  C   UNL     1      -0.027  -4.229  -0.018  0.00  0.00    +0.162 C 
BRANCH  12  16
ATOM     13  C   UNL     1      -0.130  -5.634  -4.053  0.00  0.00    +0.120 A 
ATOM     14  C   UNL     1       1.087  -5.458  -3.409  0.00  0.00    +0.046 A 
ATOM     15  C   UNL     1       1.117  -5.004  -2.105  0.00  0.00    +0.009 A 
ATOM     16  C   UNL     1      -0.063  -4.725  -1.441  0.00  0.00    -0.027 A 
ATOM     17  C   UNL     1      -1.277  -4.905  -2.079  0.00  0.00    +0.009 A 
ATOM     18  C   UNL     1      -1.312  -5.353  -3.385  0.00  0.00    +0.046 A 
BRANCH  13  20
ATOM     19  C   UNL     1      -1.450  -6.237  -5.936  0.00  0.00    +0.277 C 
ATOM     20  O   UNL     1      -0.162  -6.080  -5.337  0.00  0.00    -0.495 OA
ENDBRANCH  13  20
ENDBRANCH  12  16
ENDBRANCH   1  12
BRANCH  11  21
ATOM     21  S   UNL     1      -2.655  -2.898   0.013  0.00  0.00    -0.078 S 
BRANCH  21  22
ATOM     22  C   UNL     1      -3.800  -1.496   0.030  0.00  0.00    +0.174 C 
BRANCH  22  23
ATOM     23  C   UNL     1      -5.218  -2.007   0.041  0.00  0.00    +0.239 C 
ATOM     24  O   UNL     1      -5.434  -3.200   0.037  0.00  0.00    -0.273 OA
ATOM     25  N   UNL     1      -6.248  -1.137   0.055  0.00  0.00    -0.233 N 
ATOM     26  H   UNL     1      -6.053  -0.054   0.059  0.00  0.00    +0.173 HD
BRANCH  25  27
ATOM     27  N   UNL     1      -7.566  -1.611   0.065  0.00  0.00    -0.228 N 
ATOM     28  C   UNL     1      -8.595  -0.741   0.079  0.00  0.00    +0.295 C 
ATOM     29  O   UNL     1      -8.379   0.457   0.083  0.00  0.00    -0.265 OA
ATOM     30  H   UNL     1      -7.761  -2.693   0.061  0.00  0.00    +0.173 HD
BRANCH  28  31
ATOM     31  C   UNL     1      -9.975  -1.237   0.089  0.00  0.00    +0.190 A 
ATOM     32  C   UNL     1     -11.104  -0.469   0.104  0.00  0.00    +0.054 A 
ATOM     33  C   UNL     1     -12.194  -1.354   0.109  0.00  0.00    +0.042 A 
ATOM     34  C   UNL     1     -11.688  -2.607   0.097  0.00  0.00    +0.196 A 
ATOM     35  O   UNL     1     -10.351  -2.533   0.081  0.00  0.00    -0.458 OA
ENDBRANCH  28  31
ENDBRANCH  25  27
ENDBRANCH  22  23
ENDBRANCH  21  22
ENDBRANCH  11  21
TORSDOF 8
