REMARK  Name = ZINC14477259
REMARK  5 active torsions:
REMARK  status: ('A' for Active; 'I' for Inactive)
REMARK    1  A    between atoms: C_3  and  C_9
REMARK    2  A    between atoms: C_20  and  S_25
REMARK    3  A    between atoms: S_25  and  N_28
REMARK    4  A    between atoms: N_28  and  C_29
REMARK    5  A    between atoms: C_29  and  C_30
REMARK                            x       y       z     vdW  Elec       q    Type
REMARK                         _______ _______ _______ _____ _____    ______ ____
ROOT
ATOM      1  C   UNL     1       2.152   0.706   2.071  0.00  0.00    +0.106 C 
ATOM      2  C   UNL     1       2.396   1.396   0.726  0.00  0.00    +0.029 C 
ATOM      3  C   UNL     1       1.754   2.812   0.808  0.00  0.00    +0.033 C 
ATOM      4  C   UNL     1       0.290   2.551   0.509  0.00  0.00    -0.030 C 
ATOM      5  C   UNL     1       0.149   1.421  -0.139  0.00  0.00    -0.023 C 
ATOM      6  C   UNL     1       1.495   0.771  -0.356  0.00  0.00    +0.049 C 
ATOM      7  C   UNL     1       1.407  -0.719  -0.253  0.00  0.00    -0.018 A 
ATOM      8  C   UNL     1       0.843  -1.428  -1.305  0.00  0.00    +0.034 A 
ATOM      9  C   UNL     1       0.744  -2.803  -1.250  0.00  0.00    +0.106 A 
ATOM     10  C   UNL     1       1.206  -3.493  -0.144  0.00  0.00    +0.030 A 
ATOM     11  C   UNL     1       1.768  -2.799   0.908  0.00  0.00    +0.025 A 
ATOM     12  C   UNL     1       1.868  -1.414   0.855  0.00  0.00    +0.031 A 
ATOM     13  N   UNL     1       2.438  -0.725   1.930  0.00  0.00    -0.336 N 
ATOM     14  H   UNL     1       3.009  -1.183   2.567  0.00  0.00    +0.147 HD
ENDROOT
BRANCH   1  17
ATOM     15  C   UNL     1      -1.575   0.196   2.398  0.00  0.00    +0.002 A 
ATOM     16  C   UNL     1      -0.256   0.024   2.022  0.00  0.00    +0.007 A 
ATOM     17  C   UNL     1       0.714   0.895   2.481  0.00  0.00    -0.007 A 
ATOM     18  C   UNL     1       0.365   1.938   3.322  0.00  0.00    +0.064 A 
ATOM     19  C   UNL     1      -0.957   2.113   3.694  0.00  0.00    +0.060 A 
ATOM     20  C   UNL     1      -1.926   1.240   3.233  0.00  0.00    +0.021 A 
ATOM     21 CL   UNL     1      -1.396   3.425   4.742  0.00  0.00    -0.082 Cl
ATOM     22 CL   UNL     1       1.584   3.028   3.904  0.00  0.00    -0.082 Cl
ENDBRANCH   1  17
BRANCH   9  23
ATOM     23  S   UNL     1       0.025  -3.684  -2.596  0.00  0.00    +0.058 S 
ATOM     24  O   UNL     1      -0.449  -4.916  -2.068  0.00  0.00    -0.153 OA
ATOM     25  O   UNL     1      -0.826  -2.768  -3.273  0.00  0.00    -0.153 OA
BRANCH  23  26
ATOM     26  N   UNL     1       1.249  -4.059  -3.646  0.00  0.00    -0.187 NA
ATOM     27  H   UNL     1       1.259  -3.673  -4.536  0.00  0.00    +0.148 HD
BRANCH  26  28
ATOM     28  C   UNL     1       2.316  -4.972  -3.231  0.00  0.00    +0.137 C 
BRANCH  28  29
ATOM     29  C   UNL     1       3.093  -5.442  -4.463  0.00  0.00    +0.134 C 
ATOM     30  C   UNL     1       4.145  -6.493  -4.048  0.00  0.00    +0.035 C 
ATOM     31  C   UNL     1       5.358  -6.115  -4.942  0.00  0.00    +0.031 C 
ATOM     32  C   UNL     1       5.208  -4.575  -5.005  0.00  0.00    +0.160 C 
ATOM     33  O   UNL     1       3.792  -4.337  -5.047  0.00  0.00    -0.375 OA
ENDBRANCH  28  29
ENDBRANCH  26  28
ENDBRANCH  23  26
ENDBRANCH   9  23
TORSDOF 5
