REMARK  Name = ZINC00637766
REMARK  4 active torsions:
REMARK  status: ('A' for Active; 'I' for Inactive)
REMARK    1  A    between atoms: C_4  and  N_7
REMARK    2  A    between atoms: N_10  and  C_11
REMARK    3  A    between atoms: C_17  and  N_19
REMARK    4  A    between atoms: N_22  and  C_23
REMARK                            x       y       z     vdW  Elec       q    Type
REMARK                         _______ _______ _______ _____ _____    ______ ____
ROOT
ATOM      1  C   UNL     1      -0.019   1.526   0.010  0.00  0.00    +0.095 C 
ATOM      2  C   UNL     1       1.417   2.055  -0.000  0.00  0.00    +0.024 C 
ATOM      3  C   UNL     1       2.157   1.548   1.239  0.00  0.00    +0.002 C 
ATOM      4  C   UNL     1       2.178   0.019   1.231  0.00  0.00    +0.002 C 
ATOM      5  C   UNL     1       0.742  -0.511   1.242  0.00  0.00    +0.024 C 
ATOM      6  C   UNL     1       0.002  -0.004   0.002  0.00  0.00    +0.095 C 
ENDROOT
BRANCH   1  10
ATOM      7  N   UNL     1      -1.964   3.672  -2.254  0.00  0.00    -0.297 N 
ATOM      8  C   UNL     1      -1.312   3.225  -1.163  0.00  0.00    +0.300 C 
ATOM      9  O   UNL     1      -1.252   3.918  -0.165  0.00  0.00    -0.253 OA
ATOM     10  N   UNL     1      -0.727   2.011  -1.176  0.00  0.00    -0.295 N 
ATOM     11  H   UNL     1      -2.019   3.045  -3.157  0.00  0.00    +0.151 HD
ATOM     12  H   UNL     1      -0.782   1.385  -2.079  0.00  0.00    +0.151 HD
BRANCH   7  16
ATOM     13  C   UNL     1      -4.771   6.785  -3.047  0.00  0.00    +0.000 C 
ATOM     14  C   UNL     1      -3.372   6.900  -3.655  0.00  0.00    +0.002 C 
ATOM     15  C   UNL     1      -2.708   5.522  -3.670  0.00  0.00    +0.022 C 
ATOM     16  C   UNL     1      -2.600   4.991  -2.239  0.00  0.00    +0.074 C 
ATOM     17  C   UNL     1      -3.999   4.876  -1.631  0.00  0.00    +0.022 C 
ATOM     18  C   UNL     1      -4.663   6.255  -1.616  0.00  0.00    +0.002 C 
ENDBRANCH   7  16
ENDBRANCH   1  10
BRANCH   6  19
ATOM     19  N   UNL     1      -1.372  -0.511   0.012  0.00  0.00    -0.295 N 
ATOM     20  C   UNL     1      -1.643  -1.734  -0.485  0.00  0.00    +0.300 C 
ATOM     21  O   UNL     1      -0.747  -2.417  -0.942  0.00  0.00    -0.253 OA
ATOM     22  N   UNL     1      -2.908  -2.201  -0.475  0.00  0.00    -0.297 N 
ATOM     23  H   UNL     1      -2.183   0.106   0.426  0.00  0.00    +0.151 HD
ATOM     24  H   UNL     1      -3.719  -1.583  -0.062  0.00  0.00    +0.151 HD
BRANCH  22  25
ATOM     25  C   UNL     1      -3.202  -3.530  -1.016  0.00  0.00    +0.074 C 
ATOM     26  C   UNL     1      -3.405  -3.432  -2.529  0.00  0.00    +0.022 C 
ATOM     27  C   UNL     1      -3.713  -4.820  -3.094  0.00  0.00    +0.002 C 
ATOM     28  C   UNL     1      -4.986  -5.365  -2.442  0.00  0.00    +0.000 C 
ATOM     29  C   UNL     1      -4.782  -5.464  -0.929  0.00  0.00    +0.002 C 
ATOM     30  C   UNL     1      -4.475  -4.075  -0.364  0.00  0.00    +0.022 C 
ENDBRANCH  22  25
ENDBRANCH   6  19
TORSDOF 4
