REMARK  Name = ZINC64502663
REMARK  9 active torsions:
REMARK  status: ('A' for Active; 'I' for Inactive)
REMARK    1  A    between atoms: C_4  and  O_7
REMARK    2  A    between atoms: O_7  and  C_8
REMARK    3  A    between atoms: C_8  and  C_9
REMARK    4  A    between atoms: C_13  and  C_16
REMARK    5  A    between atoms: N_18  and  C_19
REMARK    6  A    between atoms: C_23  and  C_25
REMARK    7  A    between atoms: N_27  and  C_28
REMARK    8  A    between atoms: C_28  and  C_29
REMARK    9  A    between atoms: C_29  and  C_30
REMARK                            x       y       z     vdW  Elec       q    Type
REMARK                         _______ _______ _______ _____ _____    ______ ____
ROOT
ATOM      1  C   UNL     1      10.563  -3.675  -0.051  0.00  0.00    +0.034 A 
ATOM      2  C   UNL     1      10.206  -4.809   0.669  0.00  0.00    +0.023 A 
ATOM      3  C   UNL     1      11.080  -5.875   0.766  0.00  0.00    +0.003 A 
ATOM      4  C   UNL     1      12.314  -5.820   0.150  0.00  0.00    +0.013 A 
ATOM      5  C   UNL     1      12.682  -4.685  -0.575  0.00  0.00    +0.038 A 
ATOM      6  C   UNL     1      11.797  -3.612  -0.678  0.00  0.00    +0.036 A 
ENDROOT
BRANCH   1   9
ATOM      7  C   UNL     1       9.609  -1.876  -1.282  0.00  0.00    +0.254 C 
ATOM      8  O   UNL     1      10.380  -2.105  -2.191  0.00  0.00    -0.272 OA
ATOM      9  N   UNL     1       9.673  -2.599  -0.146  0.00  0.00    -0.283 N 
ATOM     10  H   UNL     1       9.103  -2.372   0.605  0.00  0.00    +0.155 HD
BRANCH   7  14
ATOM     11  C   UNL     1       9.629   1.486  -2.512  0.00  0.00    +0.224 C 
ATOM     12  N   UNL     1       9.377   1.393  -1.056  0.00  0.00    -0.173 NA
ATOM     13  N   UNL     1       8.910   0.381  -0.571  0.00  0.00    -0.167 NA
ATOM     14  C   UNL     1       8.581  -0.784  -1.424  0.00  0.00    +0.272 C 
ATOM     15  S   UNL     1       8.671   0.015  -3.090  0.00  0.00    -0.092 S 
BRANCH  11  16
ATOM     16  C   UNL     1       9.063   2.784  -3.093  0.00  0.00    +0.268 C 
BRANCH  16  17
ATOM     17  O   UNL     1       7.678   2.890  -2.761  0.00  0.00    -0.489 OA
BRANCH  17  21
ATOM     18  C   UNL     1       5.680   6.239  -4.108  0.00  0.00    +0.000 A 
ATOM     19  C   UNL     1       5.006   5.282  -3.371  0.00  0.00    +0.004 A 
ATOM     20  C   UNL     1       5.672   4.160  -2.919  0.00  0.00    +0.045 A 
ATOM     21  C   UNL     1       7.019   3.993  -3.205  0.00  0.00    +0.121 A 
ATOM     22  C   UNL     1       7.694   4.953  -3.945  0.00  0.00    +0.045 A 
ATOM     23  C   UNL     1       7.023   6.074  -4.394  0.00  0.00    +0.004 A 
ENDBRANCH  17  21
ENDBRANCH  16  17
ENDBRANCH  11  16
ENDBRANCH   7  14
ENDBRANCH   1   9
BRANCH   5  24
ATOM     24  C   UNL     1      14.003  -4.624  -1.236  0.00  0.00    +0.244 C 
ATOM     25  O   UNL     1      14.321  -3.634  -1.867  0.00  0.00    -0.270 OA
ATOM     26  N   UNL     1      14.854  -5.664  -1.139  0.00  0.00    -0.311 N 
ATOM     27  H   UNL     1      14.600  -6.453  -0.636  0.00  0.00    +0.149 HD
BRANCH  26  28
ATOM     28  C   UNL     1      16.163  -5.603  -1.794  0.00  0.00    +0.109 C 
BRANCH  28  29
ATOM     29  C   UNL     1      16.927  -6.902  -1.530  0.00  0.00    +0.052 C 
BRANCH  29  30
ATOM     30  C   UNL     1      18.273  -6.839  -2.204  0.00  0.00    -0.040 C 
ATOM     31  C   UNL     1      19.447  -6.466  -1.644  0.00  0.00    -0.001 A 
ATOM     32  C   UNL     1      19.806  -6.022  -0.292  0.00  0.00    +0.010 A 
ATOM     33  C   UNL     1      21.094  -5.708  -0.025  0.00  0.00    +0.001 A 
ATOM     34  C   UNL     1      22.092  -5.795  -1.005  0.00  0.00    +0.002 A 
ATOM     35  C   UNL     1      21.839  -6.194  -2.270  0.00  0.00    +0.026 A 
ATOM     36  C   UNL     1      20.519  -6.549  -2.661  0.00  0.00    +0.043 A 
ATOM     37  N   UNL     1      20.028  -6.958  -3.806  0.00  0.00    -0.380 N 
ATOM     38  C   UNL     1      18.588  -7.187  -3.642  0.00  0.00    +0.144 C 
ATOM     39  H   UNL     1      20.533  -7.092  -4.623  0.00  0.00    +0.160 HD
ENDBRANCH  29  30
ENDBRANCH  28  29
ENDBRANCH  26  28
ENDBRANCH   5  24
TORSDOF 9
