REMARK  Name = ZINC00749900
REMARK  8 active torsions:
REMARK  status: ('A' for Active; 'I' for Inactive)
REMARK    1  A    between atoms: C_4  and  C_7
REMARK    2  A    between atoms: C_7  and  C_8
REMARK    3  A    between atoms: C_8  and  N_9
REMARK    4  A    between atoms: C_10  and  C_12
REMARK    5  A    between atoms: C_14  and  N_28
REMARK    6  A    between atoms: C_17  and  N_18
REMARK    7  A    between atoms: C_29  and  C_31
REMARK    8  A    between atoms: C_35  and  N_37
REMARK                            x       y       z     vdW  Elec       q    Type
REMARK                         _______ _______ _______ _____ _____    ______ ____
ROOT
ATOM      1  C   UNL     1       2.369   9.448   0.079  0.00  0.00    +0.059 A 
ATOM      2  C   UNL     1       2.304   8.056  -0.025  0.00  0.00    +0.038 A 
ATOM      3  C   UNL     1       1.087   7.411   0.107  0.00  0.00    +0.035 A 
ATOM      4  C   UNL     1      -0.070   8.144   0.354  0.00  0.00    +0.025 A 
ATOM      5  C   UNL     1      -0.015   9.518   0.464  0.00  0.00    +0.026 A 
ATOM      6  C   UNL     1       1.198  10.181   0.327  0.00  0.00    +0.042 A 
ENDROOT
BRANCH   6   7
ATOM      7  N   UNL     1       1.252  11.566   0.438  0.00  0.00    -0.325 N 
ATOM      8  C   UNL     1       0.880  12.002   1.793  0.00  0.00    +0.110 C 
ATOM      9  C   UNL     1       1.304  13.460   1.967  0.00  0.00    +0.054 C 
ATOM     10  C   UNL     1       0.801  14.284   0.810  0.00  0.00    -0.041 A 
ATOM     11  C   UNL     1       0.770  15.664   0.945  0.00  0.00    +0.004 A 
ATOM     12  C   UNL     1       0.321  16.456  -0.092  0.00  0.00    +0.000 A 
ATOM     13  C   UNL     1      -0.102  15.871  -1.272  0.00  0.00    +0.000 A 
ATOM     14  C   UNL     1      -0.073  14.498  -1.406  0.00  0.00    +0.005 A 
ATOM     15  C   UNL     1       0.378  13.700  -0.364  0.00  0.00    -0.027 A 
ATOM     16  C   UNL     1       0.387  12.206  -0.557  0.00  0.00    +0.140 C 
ENDBRANCH   6   7
BRANCH   1  18
ATOM     17  N   UNL     1       4.798   9.431  -0.192  0.00  0.00    -0.311 N 
ATOM     18  C   UNL     1       3.661  10.143  -0.067  0.00  0.00    +0.246 C 
ATOM     19  O   UNL     1       3.700  11.358  -0.074  0.00  0.00    -0.270 OA
ATOM     20  H   UNL     1       4.763   8.331  -0.185  0.00  0.00    +0.149 HD
BRANCH  17  21
ATOM     21  C   UNL     1       6.082  10.121  -0.337  0.00  0.00    +0.109 C 
BRANCH  21  22
ATOM     22  C   UNL     1       7.205   9.089  -0.459  0.00  0.00    +0.054 C 
BRANCH  22  26
ATOM     23  C   UNL     1      10.950  11.102  -0.881  0.00  0.00    +0.000 A 
ATOM     24  C   UNL     1      10.476  10.779   0.377  0.00  0.00    +0.000 A 
ATOM     25  C   UNL     1       9.264  10.128   0.514  0.00  0.00    +0.004 A 
ATOM     26  C   UNL     1       8.526   9.799  -0.608  0.00  0.00    -0.046 A 
ATOM     27  C   UNL     1       9.002  10.117  -1.866  0.00  0.00    +0.004 A 
ATOM     28  C   UNL     1      10.211  10.773  -2.003  0.00  0.00    +0.000 A 
ENDBRANCH  22  26
ENDBRANCH  21  22
ENDBRANCH  17  21
ENDBRANCH   1  18
BRANCH   3  29
ATOM     29  N   UNL     1       1.020   6.016  -0.002  0.00  0.00    -0.281 N 
ATOM     30  C   UNL     1       1.851   5.365  -0.840  0.00  0.00    +0.248 C 
ATOM     31  O   UNL     1       2.596   5.994  -1.567  0.00  0.00    -0.270 OA
ATOM     32  H   UNL     1       0.289   5.452   0.596  0.00  0.00    +0.155 HD
BRANCH  30  33
ATOM     33  C   UNL     1       1.857   3.888  -0.874  0.00  0.00    +0.039 A 
ATOM     34  C   UNL     1       1.004   3.163  -0.041  0.00  0.00    +0.013 A 
ATOM     35  C   UNL     1       1.015   1.784  -0.077  0.00  0.00    +0.003 A 
ATOM     36  C   UNL     1       1.870   1.119  -0.938  0.00  0.00    +0.033 A 
ATOM     37  C   UNL     1       2.722   1.831  -1.763  0.00  0.00    +0.127 A 
ATOM     38  C   UNL     1       2.717   3.210  -1.740  0.00  0.00    +0.045 A 
BRANCH  37  39
ATOM     39  N   UNL     1       3.638   1.111  -2.676  0.00  0.00    +0.056 N 
ATOM     40  O   UNL     1       3.641  -0.107  -2.701  0.00  0.00    -0.126 OA
ATOM     41  O   UNL     1       4.389   1.736  -3.404  0.00  0.00    -0.126 OA
ENDBRANCH  37  39
ENDBRANCH  30  33
ENDBRANCH   3  29
TORSDOF 8
