REMARK  Name = ZINC67298741
REMARK  7 active torsions:
REMARK  status: ('A' for Active; 'I' for Inactive)
REMARK    1  A    between atoms: C_3  and  O_29
REMARK    2  A    between atoms: C_6  and  N_7
REMARK    3  A    between atoms: C_9  and  C_19
REMARK    4  A    between atoms: C_14  and  O_18
REMARK    5  A    between atoms: N_21  and  C_22
REMARK    6  A    between atoms: C_22  and  C_23
REMARK    7  A    between atoms: O_29  and  C_30
REMARK                            x       y       z     vdW  Elec       q    Type
REMARK                         _______ _______ _______ _____ _____    ______ ____
ROOT
ATOM      1  N   UNL     1      -1.179  -0.700   0.007  0.00  0.00    -0.325 N 
ATOM      2  C   UNL     1      -1.336  -1.725  -0.802  0.00  0.00    +0.212 A 
ATOM      3  C   UNL     1      -2.547  -2.567  -0.742  0.00  0.00    +0.097 A 
ATOM      4  C   UNL     1      -2.909  -3.247  -1.896  0.00  0.00    +0.030 A 
ATOM      5  C   UNL     1      -2.080  -3.115  -3.039  0.00  0.00    +0.018 A 
ATOM      6  C   UNL     1      -2.501  -3.613  -4.282  0.00  0.00    +0.015 A 
ATOM      7  C   UNL     1      -1.715  -3.443  -5.383  0.00  0.00    +0.046 A 
ATOM      8  C   UNL     1      -0.490  -2.786  -5.284  0.00  0.00    +0.120 A 
ATOM      9  C   UNL     1      -0.048  -2.305  -4.060  0.00  0.00    +0.092 A 
ATOM     10  C   UNL     1      -0.831  -2.474  -2.930  0.00  0.00    +0.141 A 
ATOM     11  O   UNL     1      -0.391  -2.043  -1.725  0.00  0.00    -0.438 OA
ATOM     12  H   UNL     1      -1.900  -0.435   0.599  0.00  0.00    +0.169 HD
ENDROOT
BRANCH   1  18
ATOM     13  C   UNL     1      -0.005   1.389   0.017  0.00  0.00    +0.029 A 
ATOM     14  C   UNL     1       1.186   2.082   0.024  0.00  0.00    +0.048 A 
ATOM     15  C   UNL     1       2.392   1.395   0.026  0.00  0.00    +0.130 A 
ATOM     16  C   UNL     1       2.404   0.006   0.021  0.00  0.00    +0.048 A 
ATOM     17  C   UNL     1       1.217  -0.696   0.015  0.00  0.00    +0.029 A 
ATOM     18  C   UNL     1       0.002  -0.008   0.013  0.00  0.00    +0.042 A 
BRANCH  15  19
ATOM     19  O   UNL     1       3.565   2.083   0.032  0.00  0.00    -0.406 OA
BRANCH  19  20
ATOM     20  C   UNL     1       4.769   1.313   0.034  0.00  0.00    +0.575 C 
ATOM     21  F   UNL     1       4.810   0.509  -1.111  0.00  0.00    -0.133 F 
ATOM     22  F   UNL     1       5.872   2.173   0.040  0.00  0.00    -0.133 F 
ATOM     23  F   UNL     1       4.802   0.503   1.174  0.00  0.00    -0.133 F 
ENDBRANCH  19  20
ENDBRANCH  15  19
ENDBRANCH   1  18
BRANCH   3  24
ATOM     24  C   UNL     1      -3.339  -2.682   0.493  0.00  0.00    +0.249 C 
ATOM     25  O   UNL     1      -3.051  -2.009   1.465  0.00  0.00    -0.270 OA
ATOM     26  N   UNL     1      -4.383  -3.532   0.548  0.00  0.00    -0.309 N 
ATOM     27  H   UNL     1      -4.567  -4.122  -0.199  0.00  0.00    +0.149 HD
BRANCH  26  28
ATOM     28  C   UNL     1      -5.239  -3.565   1.737  0.00  0.00    +0.136 C 
BRANCH  28  29
ATOM     29  C   UNL     1      -6.341  -4.609   1.542  0.00  0.00    +0.135 C 
ATOM     30  C   UNL     1      -7.319  -4.566   2.737  0.00  0.00    +0.035 C 
ATOM     31  C   UNL     1      -7.626  -6.071   2.964  0.00  0.00    +0.031 C 
ATOM     32  C   UNL     1      -6.264  -6.709   2.592  0.00  0.00    +0.160 C 
ATOM     33  O   UNL     1      -5.766  -5.920   1.498  0.00  0.00    -0.375 OA
ENDBRANCH  28  29
ENDBRANCH  26  28
ENDBRANCH   3  24
BRANCH   8  34
ATOM     34  O   UNL     1       0.276  -2.616  -6.391  0.00  0.00    -0.507 OA
ATOM     35  H   UNL     1       0.097  -1.795  -6.870  0.00  0.00    +0.292 HD
ENDBRANCH   8  34
TORSDOF 7
