REMARK  Name = ZINC04686118
REMARK  9 active torsions:
REMARK  status: ('A' for Active; 'I' for Inactive)
REMARK    1  A    between atoms: C_1  and  C_2
REMARK    2  A    between atoms: C_7  and  N_12
REMARK    3  A    between atoms: C_9  and  C_11
REMARK    4  A    between atoms: C_13  and  C_15
REMARK    5  A    between atoms: C_15  and  N_16
REMARK    6  A    between atoms: C_19  and  C_27
REMARK    7  A    between atoms: C_27  and  C_28
REMARK    8  A    between atoms: C_27  and  C_29
REMARK    9  A    between atoms: C_27  and  C_30
REMARK                            x       y       z     vdW  Elec       q    Type
REMARK                         _______ _______ _______ _____ _____    ______ ____
ROOT
ATOM      1  N   UNL     1       1.145   1.903   0.001  0.00  0.00    -0.257 N 
ATOM      2  C   UNL     1       1.098   3.303   0.045  0.00  0.00    +0.079 A 
ATOM      3  C   UNL     1       2.213   4.059  -0.276  0.00  0.00    +0.031 A 
ATOM      4  C   UNL     1       2.146   5.439  -0.226  0.00  0.00    -0.040 A 
ATOM      5  C   UNL     1       0.970   6.066   0.144  0.00  0.00    +0.008 A 
ATOM      6  C   UNL     1      -0.147   5.316   0.466  0.00  0.00    +0.048 A 
ATOM      7  C   UNL     1      -0.087   3.935   0.418  0.00  0.00    +0.143 A 
ATOM      8  O   UNL     1      -1.176   3.182   0.730  0.00  0.00    -0.481 OA
ATOM      9  C   UNL     1      -1.328   1.948   0.019  0.00  0.00    +0.325 C 
ATOM     10  C   UNL     1      -0.014   1.209   0.009  0.00  0.00    +0.258 C 
ATOM     11  O   UNL     1       0.002  -0.004   0.002  0.00  0.00    -0.271 OA
ENDROOT
BRANCH   4  12
ATOM     12  C   UNL     1       3.358   6.264  -0.576  0.00  0.00    -0.013 C 
ATOM     13  C   UNL     1       3.021   7.750  -0.441  0.00  0.00    +0.015 C 
ATOM     14  C   UNL     1       4.505   5.913   0.374  0.00  0.00    +0.015 C 
ATOM     15  C   UNL     1       3.780   5.965  -2.016  0.00  0.00    +0.015 C 
ENDBRANCH   4  12
BRANCH   1  16
ATOM     16  C   UNL     1       2.430   1.202  -0.052  0.00  0.00    +0.209 C 
BRANCH  16  18
ATOM     17  N   UNL     1       3.993   0.381  -1.785  0.00  0.00    -0.311 N 
ATOM     18  C   UNL     1       2.836   1.006  -1.490  0.00  0.00    +0.231 C 
ATOM     19  O   UNL     1       2.122   1.411  -2.382  0.00  0.00    -0.274 OA
ATOM     20  H   UNL     1       4.564   0.057  -1.071  0.00  0.00    +0.149 HD
BRANCH  17  26
ATOM     21  C   UNL     1       6.675  -2.418  -4.853  0.00  0.00    +0.008 C 
ATOM     22  C   UNL     1       5.737  -1.214  -4.748  0.00  0.00    -0.009 C 
ATOM     23  C   UNL     1       6.457   0.039  -5.250  0.00  0.00    +0.003 C 
ATOM     24  C   UNL     1       5.519   1.243  -5.145  0.00  0.00    +0.002 C 
ATOM     25  C   UNL     1       5.107   1.443  -3.685  0.00  0.00    +0.022 C 
ATOM     26  C   UNL     1       4.387   0.190  -3.183  0.00  0.00    +0.076 C 
ATOM     27  C   UNL     1       5.325  -1.014  -3.288  0.00  0.00    +0.009 C 
ATOM     28  C   UNL     1       6.572  -0.766  -2.436  0.00  0.00    +0.009 C 
ENDBRANCH  17  26
ENDBRANCH  16  18
ENDBRANCH   1  16
TORSDOF 4
