REMARK  Name = ZINC06300602
REMARK  13 active torsions:
REMARK  status: ('A' for Active; 'I' for Inactive)
REMARK    1  A    between atoms: C_1  and  C_2
REMARK    2  A    between atoms: C_4  and  C_39
REMARK    3  A    between atoms: C_9  and  C_14
REMARK    4  A    between atoms: C_14  and  C_16
REMARK    5  A    between atoms: C_14  and  N_69
REMARK    6  A    between atoms: N_20  and  C_21
REMARK    7  A    between atoms: C_21  and  C_22
REMARK    8  A    between atoms: C_21  and  C_23
REMARK    9  A    between atoms: C_21  and  C_24
REMARK   10  A    between atoms: C_25  and  C_26
REMARK   11  A    between atoms: C_25  and  N_69
REMARK   12  A    between atoms: C_33  and  C_34
REMARK   13  A    between atoms: C_33  and  N_69
REMARK                            x       y       z     vdW  Elec       q    Type
REMARK                         _______ _______ _______ _____ _____    ______ ____
ROOT
ATOM      1  C   UNL     1       0.375   3.401   2.320  0.00  0.00    +0.040 C 
ENDROOT
BRANCH   1  10
ATOM      2  C   UNL     1      -4.485  -2.151   1.232  0.00  0.00    +0.044 C 
ATOM      3  C   UNL     1      -3.179  -1.636   1.781  0.00  0.00    -0.050 A 
ATOM      4  C   UNL     1      -2.329  -2.500   2.457  0.00  0.00    +0.008 A 
ATOM      5  C   UNL     1      -1.130  -2.050   2.967  0.00  0.00    -0.026 A 
ATOM      6  C   UNL     1      -0.767  -0.717   2.805  0.00  0.00    +0.052 A 
ATOM      7  C   UNL     1      -1.633   0.156   2.120  0.00  0.00    -0.001 A 
ATOM      8  C   UNL     1      -2.844  -0.323   1.610  0.00  0.00    +0.013 A 
ATOM      9  C   UNL     1      -1.245   1.559   1.960  0.00  0.00    +0.017 A 
ATOM     10  C   UNL     1      -0.057   1.965   2.471  0.00  0.00    +0.011 A 
ATOM     11  C   UNL     1       0.775   1.049   3.151  0.00  0.00    +0.251 A 
ATOM     12  O   UNL     1       1.837   1.435   3.607  0.00  0.00    -0.268 OA
ATOM     13  N   UNL     1       0.425  -0.240   3.307  0.00  0.00    -0.322 N 
ATOM     14  H   UNL     1       1.021  -0.843   3.779  0.00  0.00    +0.169 HD
ATOM     15  C   UNL     1      -0.215  -2.999   3.698  0.00  0.00    +0.046 C 
ENDBRANCH   1  10
BRANCH   1  16
ATOM     16  C   UNL     1       0.424   4.056   3.676  0.00  0.00    +0.143 A 
ATOM     17  N   UNL     1       1.279   3.802   4.637  0.00  0.00    -0.115 NA
ATOM     18  N   UNL     1       0.994   4.566   5.635  0.00  0.00    -0.023 NA
ATOM     19  N   UNL     1      -0.020   5.301   5.335  0.00  0.00    -0.043 NA
ATOM     20  N   UNL     1      -0.397   5.020   4.133  0.00  0.00    -0.225 N 
BRANCH  20  21
ATOM     21  C   UNL     1      -1.511   5.631   3.405  0.00  0.00    +0.059 C 
ATOM     22  C   UNL     1      -2.482   4.540   2.948  0.00  0.00    +0.036 C 
ATOM     23  C   UNL     1      -2.243   6.613   4.323  0.00  0.00    +0.036 C 
ATOM     24  C   UNL     1      -0.973   6.380   2.184  0.00  0.00    +0.036 C 
ENDBRANCH  20  21
ENDBRANCH   1  16
BRANCH   1  25
ATOM     25  N   UNL     1       1.724   3.429   1.716  0.00  0.00    +0.397 N 
ATOM     26  H   UNL     1       2.298   2.697   2.149  0.00  0.00    -0.079 HD
BRANCH  25  27
ATOM     27  C   UNL     1       2.357   4.742   1.956  0.00  0.00    -0.039 C 
BRANCH  27  28
ATOM     28  C   UNL     1       3.791   4.683   1.494  0.00  0.00    -0.046 A 
ATOM     29  C   UNL     1       4.787   4.313   2.377  0.00  0.00    +0.003 A 
ATOM     30  C   UNL     1       6.101   4.254   1.952  0.00  0.00    +0.000 A 
ATOM     31  C   UNL     1       6.421   4.575   0.646  0.00  0.00    +0.001 A 
ATOM     32  C   UNL     1       5.426   4.950  -0.237  0.00  0.00    +0.020 A 
ATOM     33  C   UNL     1       4.110   5.004   0.187  0.00  0.00    +0.042 A 
ATOM     34 CL   UNL     1       2.859   5.476  -0.921  0.00  0.00    -0.083 Cl
ENDBRANCH  27  28
ENDBRANCH  25  27
BRANCH  25  35
ATOM     35  C   UNL     1       1.632   3.171   0.263  0.00  0.00    -0.001 C 
BRANCH  35  36
ATOM     36  C   UNL     1       1.370   1.702   0.049  0.00  0.00    +0.089 A 
ATOM     37  C   UNL     1       0.210   1.162  -0.366  0.00  0.00    +0.042 A 
ATOM     38  C   UNL     1       0.409  -0.237  -0.429  0.00  0.00    +0.041 A 
ATOM     39  C   UNL     1       1.679  -0.467  -0.049  0.00  0.00    +0.195 A 
ATOM     40  O   UNL     1       2.256   0.711   0.239  0.00  0.00    -0.470 OA
ENDBRANCH  35  36
ENDBRANCH  25  35
ENDBRANCH   1  25
TORSDOF 8
