REMARK  Name = ZINC39687603
REMARK  7 active torsions:
REMARK  status: ('A' for Active; 'I' for Inactive)
REMARK    1  A    between atoms: C_1  and  C_2
REMARK    2  A    between atoms: C_2  and  C_3
REMARK    3  A    between atoms: C_3  and  C_5
REMARK    4  A    between atoms: C_3  and  C_6
REMARK    5  A    between atoms: C_10  and  C_19
REMARK    6  A    between atoms: N_21  and  C_22
REMARK    7  A    between atoms: C_29  and  C_34
REMARK                            x       y       z     vdW  Elec       q    Type
REMARK                         _______ _______ _______ _____ _____    ______ ____
ROOT
ATOM      1  C   UNL     1      -1.403  -2.096  -0.147  0.00  0.00    +0.218 C 
ATOM      2  O   UNL     1      -0.361  -2.699  -0.291  0.00  0.00    -0.275 OA
ATOM      3  N   UNL     1      -2.576  -2.759  -0.185  0.00  0.00    -0.300 N 
ATOM      4  C   UNL     1      -3.940  -2.200  -0.037  0.00  0.00    +0.121 C 
ATOM      5  C   UNL     1      -4.794  -2.976  -1.065  0.00  0.00    +0.100 C 
ATOM      6  C   UNL     1      -4.036  -4.296  -1.287  0.00  0.00    -0.004 C 
ATOM      7  C   UNL     1      -2.793  -4.211  -0.390  0.00  0.00    +0.115 C 
ATOM      8  C   UNL     1      -3.618  -4.426  -2.748  0.00  0.00    -0.010 C 
ATOM      9  C   UNL     1      -2.917  -5.772  -2.956  0.00  0.00    -0.082 C 
ATOM     10  N   UNL     1      -3.828  -6.862  -2.588  0.00  0.00    +0.379 N 
ATOM     11  C   UNL     1      -4.153  -6.783  -1.159  0.00  0.00    -0.082 C 
ATOM     12  C   UNL     1      -4.906  -5.480  -0.875  0.00  0.00    -0.010 C 
ATOM     13  H   UNL     1      -4.677  -6.786  -3.129  0.00  0.00    -0.086 HD
ATOM     14  H   UNL     1      -3.387  -7.748  -2.783  0.00  0.00    -0.086 HD
ENDROOT
BRANCH   5  15
ATOM     15  C   UNL     1      -6.169  -3.244  -0.510  0.00  0.00    +0.218 C 
ATOM     16  O   UNL     1      -6.322  -3.392   0.684  0.00  0.00    -0.275 OA
ATOM     17  N   UNL     1      -7.228  -3.320  -1.340  0.00  0.00    -0.312 N 
ATOM     18  H   UNL     1      -7.105  -3.203  -2.295  0.00  0.00    +0.149 HD
BRANCH  17  19
ATOM     19  C   UNL     1      -8.564  -3.581  -0.800  0.00  0.00    +0.076 C 
ATOM     20  C   UNL     1      -8.765  -5.090  -0.641  0.00  0.00    +0.041 C 
ATOM     21  C   UNL     1     -10.150  -5.357  -0.044  0.00  0.00    +0.108 C 
ATOM     22  N   UNL     1     -11.161  -4.699  -0.883  0.00  0.00    -0.316 N 
ATOM     23  C   UNL     1     -11.014  -3.267  -1.174  0.00  0.00    +0.108 C 
ATOM     24  C   UNL     1      -9.619  -3.023  -1.758  0.00  0.00    +0.041 C 
ATOM     25  C   UNL     1     -12.236  -5.418  -1.391  0.00  0.00    +0.102 A 
ATOM     26  C   UNL     1     -13.447  -5.428  -0.705  0.00  0.00    -0.012 A 
ATOM     27  C   UNL     1     -14.508  -6.148  -1.222  0.00  0.00    +0.008 A 
ATOM     28  C   UNL     1     -14.323  -6.837  -2.414  0.00  0.00    +0.018 A 
ATOM     29  C   UNL     1     -13.095  -6.784  -3.042  0.00  0.00    +0.084 A 
ATOM     30  N   UNL     1     -12.101  -6.084  -2.528  0.00  0.00    -0.349 N 
ATOM     31  C   UNL     1     -13.598  -4.664   0.585  0.00  0.00    +0.047 C 
ATOM     32  H   UNL     1     -11.250  -6.061  -2.992  0.00  0.00    +0.167 HD
ENDBRANCH  17  19
ENDBRANCH   5  15
BRANCH   1  33
ATOM     33  C   UNL     1      -1.387  -0.606   0.074  0.00  0.00    +0.072 C 
ATOM     34  C   UNL     1      -2.037  -0.283   1.421  0.00  0.00    +0.017 C 
BRANCH  33  36
ATOM     35  C   UNL     1       0.071   1.421   0.173  0.00  0.00    +0.004 C 
ATOM     36  C   UNL     1       0.059  -0.106   0.073  0.00  0.00    +0.009 C 
ENDBRANCH  33  36
ENDBRANCH   1  33
TORSDOF 4
