REMARK  Name = ZINC04017473
REMARK  8 active torsions:
REMARK  status: ('A' for Active; 'I' for Inactive)
REMARK    1  A    between atoms: C_3  and  C_8
REMARK    2  A    between atoms: N_10  and  C_11
REMARK    3  A    between atoms: C_11  and  C_13
REMARK    4  A    between atoms: C_11  and  N_17
REMARK    5  A    between atoms: N_17  and  C_18
REMARK    6  A    between atoms: C_18  and  N_20
REMARK    7  A    between atoms: N_20  and  C_21
REMARK    8  A    between atoms: C_24  and  N_27
REMARK                            x       y       z     vdW  Elec       q    Type
REMARK                         _______ _______ _______ _____ _____    ______ ____
ROOT
ATOM      1  C   UNL     1       3.554   6.260   0.315  0.00  0.00    +0.211 C 
ENDROOT
BRANCH   1   4
ATOM      2  C   UNL     1       4.643   6.087   2.488  0.00  0.00    +0.246 C 
ATOM      3  O   UNL     1       5.294   5.156   2.054  0.00  0.00    -0.270 OA
ATOM      4  N   UNL     1       3.745   6.707   1.697  0.00  0.00    -0.290 N 
ATOM      5  H   UNL     1       3.226   7.450   2.043  0.00  0.00    +0.151 HD
BRANCH   2   8
ATOM      6  C   UNL     1       5.941   6.323   6.004  0.00  0.00    +0.002 A 
ATOM      7  C   UNL     1       5.765   5.897   4.704  0.00  0.00    +0.013 A 
ATOM      8  C   UNL     1       4.836   6.538   3.882  0.00  0.00    +0.038 A 
ATOM      9  C   UNL     1       4.094   7.610   4.381  0.00  0.00    +0.033 A 
ATOM     10  C   UNL     1       4.276   8.023   5.686  0.00  0.00    +0.042 A 
ATOM     11  C   UNL     1       5.199   7.382   6.495  0.00  0.00    +0.020 A 
ATOM     12 CL   UNL     1       3.350   9.351   6.311  0.00  0.00    -0.084 Cl
ENDBRANCH   2   8
ENDBRANCH   1   4
BRANCH   1  13
ATOM     13  C   UNL     1       3.502   7.477  -0.612  0.00  0.00    +0.225 C 
ATOM     14 CL   UNL     1       2.130   8.542  -0.130  0.00  0.00    -0.080 Cl
ATOM     15 CL   UNL     1       5.049   8.395  -0.486  0.00  0.00    -0.080 Cl
ATOM     16 CL   UNL     1       3.267   6.926  -2.313  0.00  0.00    -0.080 Cl
ENDBRANCH   1  13
BRANCH   1  17
ATOM     17  N   UNL     1       2.297   5.514   0.212  0.00  0.00    -0.305 N 
ATOM     18  H   UNL     1       1.451   5.987   0.222  0.00  0.00    +0.150 HD
BRANCH  17  19
ATOM     19  C   UNL     1       2.318   4.171   0.104  0.00  0.00    +0.136 C 
ATOM     20  S   UNL     1       3.813   3.337   0.086  0.00  0.00    -0.019 S 
BRANCH  19  21
ATOM     21  N   UNL     1       1.162   3.485   0.009  0.00  0.00    -0.297 N 
ATOM     22  H   UNL     1       0.320   3.961  -0.062  0.00  0.00    +0.154 HD
BRANCH  21  23
ATOM     23  C   UNL     1       1.177   2.086   0.013  0.00  0.00    +0.033 A 
ATOM     24  C   UNL     1       2.010   1.401   0.888  0.00  0.00    +0.025 A 
ATOM     25  C   UNL     1       2.022   0.020   0.890  0.00  0.00    +0.034 A 
ATOM     26  C   UNL     1       1.205  -0.681   0.022  0.00  0.00    +0.126 A 
ATOM     27  C   UNL     1       0.374  -0.002  -0.851  0.00  0.00    +0.034 A 
ATOM     28  C   UNL     1       0.358   1.379  -0.858  0.00  0.00    +0.025 A 
BRANCH  26  29
ATOM     29  N   UNL     1       1.220  -2.161   0.027  0.00  0.00    +0.056 N 
ATOM     30  O   UNL     1       1.951  -2.760   0.794  0.00  0.00    -0.126 OA
ATOM     31  O   UNL     1       0.501  -2.780  -0.737  0.00  0.00    -0.126 OA
ENDBRANCH  26  29
ENDBRANCH  21  23
ENDBRANCH  19  21
ENDBRANCH  17  19
ENDBRANCH   1  17
TORSDOF 8
