REMARK  Name = ZINC39325734
REMARK  3 active torsions:
REMARK  status: ('A' for Active; 'I' for Inactive)
REMARK    1  A    between atoms: C_3  and  C_19
REMARK    2  A    between atoms: C_6  and  C_10
REMARK    3  A    between atoms: C_13  and  N_16
REMARK                            x       y       z     vdW  Elec       q    Type
REMARK                         _______ _______ _______ _____ _____    ______ ____
ROOT
ATOM      1  C   UNL     1      -0.016   1.345   0.009  0.00  0.00    +0.019 A 
ATOM      2  C   UNL     1       1.187   2.071   0.002  0.00  0.00    +0.017 A 
ATOM      3  C   UNL     1       2.374   1.407  -0.013  0.00  0.00    +0.097 A 
ATOM      4  C   UNL     1       2.377  -0.003  -0.021  0.00  0.00    +0.150 A 
ATOM      5  N   UNL     1       3.362  -0.889  -0.035  0.00  0.00    -0.227 NA
ATOM      6  C   UNL     1       2.840  -2.126  -0.036  0.00  0.00    +0.090 A 
ATOM      7  C   UNL     1       1.482  -2.018  -0.023  0.00  0.00    +0.121 A 
ATOM      8  N   UNL     1       1.186  -0.684  -0.013  0.00  0.00    -0.306 N 
ATOM      9  C   UNL     1       0.002  -0.004   0.002  0.00  0.00    +0.093 A 
ENDROOT
BRANCH   6  10
ATOM     10  C   UNL     1       3.611  -3.394  -0.051  0.00  0.00    +0.002 A 
ATOM     11  C   UNL     1       2.944  -4.618  -0.057  0.00  0.00    +0.012 A 
ATOM     12  C   UNL     1       3.666  -5.794  -0.071  0.00  0.00    +0.033 A 
ATOM     13  C   UNL     1       5.048  -5.760  -0.078  0.00  0.00    +0.126 A 
ATOM     14  C   UNL     1       5.715  -4.549  -0.072  0.00  0.00    +0.033 A 
ATOM     15  C   UNL     1       5.004  -3.366  -0.064  0.00  0.00    +0.012 A 
BRANCH  13  16
ATOM     16  N   UNL     1       5.817  -7.025  -0.092  0.00  0.00    +0.056 N 
ATOM     17  O   UNL     1       5.236  -8.086  -0.097  0.00  0.00    -0.126 OA
ATOM     18  O   UNL     1       7.026  -6.998  -0.098  0.00  0.00    -0.126 OA
ENDBRANCH  13  16
ENDBRANCH   6  10
BRANCH   3  19
ATOM     19  C   UNL     1       3.673   2.171  -0.022  0.00  0.00    +0.421 C 
ATOM     20  F   UNL     1       3.406   3.544  -0.012  0.00  0.00    -0.166 F 
ATOM     21  F   UNL     1       4.420   1.833   1.112  0.00  0.00    -0.166 F 
ATOM     22  F   UNL     1       4.398   1.844  -1.173  0.00  0.00    -0.166 F 
ENDBRANCH   3  19
TORSDOF 3
