REMARK  Name = ZINC42709998
REMARK  9 active torsions:
REMARK  status: ('A' for Active; 'I' for Inactive)
REMARK    1  A    between atoms: C_1  and  C_2
REMARK    2  A    between atoms: C_7  and  C_8
REMARK    3  A    between atoms: C_8  and  C_10
REMARK    4  A    between atoms: C_8  and  N_11
REMARK    5  A    between atoms: N_14  and  C_15
REMARK    6  A    between atoms: N_14  and  C_16
REMARK    7  A    between atoms: C_16  and  C_17
REMARK    8  A    between atoms: C_17  and  C_19
REMARK    9  A    between atoms: C_17  and  C_20
REMARK                            x       y       z     vdW  Elec       q    Type
REMARK                         _______ _______ _______ _____ _____    ______ ____
ROOT
ATOM      1  N   UNL     1       0.630  -0.793   3.543  0.00  0.00    -0.293 N 
ATOM      2  C   UNL     1       1.199  -0.221   4.623  0.00  0.00    +0.302 C 
ATOM      3  O   UNL     1       1.211   0.989   4.735  0.00  0.00    -0.253 OA
ATOM      4  N   UNL     1       1.756  -0.992   5.578  0.00  0.00    -0.288 N 
ATOM      5  C   UNL     1       1.742  -2.450   5.443  0.00  0.00    +0.133 C 
ATOM      6  H   UNL     1       0.621  -1.758   3.453  0.00  0.00    +0.151 HD
ENDROOT
BRANCH   1   7
ATOM      7  C   UNL     1       0.025   0.045   2.504  0.00  0.00    +0.102 C 
ATOM      8  C   UNL     1      -1.413   0.387   2.899  0.00  0.00    +0.033 C 
BRANCH   7  15
ATOM      9  C   UNL     1      -0.018   1.503   0.010  0.00  0.00    +0.044 C 
ATOM     10  C   UNL     1       0.002  -0.004   0.002  0.00  0.00    -0.046 A 
ATOM     11  C   UNL     1       0.006  -0.689  -1.199  0.00  0.00    +0.004 A 
ATOM     12  C   UNL     1       0.025  -2.071  -1.207  0.00  0.00    +0.000 A 
ATOM     13  C   UNL     1       0.040  -2.768  -0.013  0.00  0.00    +0.000 A 
ATOM     14  C   UNL     1       0.037  -2.084   1.188  0.00  0.00    +0.006 A 
ATOM     15  C   UNL     1       0.023  -0.702   1.195  0.00  0.00    -0.025 A 
ENDBRANCH   7  15
ENDBRANCH   1   7
BRANCH   4  16
ATOM     16  C   UNL     1       2.375  -0.371   6.752  0.00  0.00    +0.123 C 
BRANCH  16  17
ATOM     17  C   UNL     1       1.327  -0.207   7.854  0.00  0.00    +0.116 C 
ATOM     18  C   UNL     1       0.861  -1.587   8.325  0.00  0.00    +0.021 C 
BRANCH  17  19
ATOM     19  C   UNL     1       1.930   0.542   9.014  0.00  0.00    +0.360 C 
ATOM     20  O   UNL     1       1.274   1.382   9.606  0.00  0.00    -0.246 OA
ATOM     21  O   UNL     1       3.075   0.307   9.362  0.00  0.00    -0.246 OA
ENDBRANCH  17  19
ENDBRANCH  16  17
ENDBRANCH   4  16
TORSDOF 5
