REMARK  Name = ZINC14991558
REMARK  11 active torsions:
REMARK  status: ('A' for Active; 'I' for Inactive)
REMARK    1  A    between atoms: C_1  and  C_2
REMARK    2  A    between atoms: C_2  and  C_4
REMARK    3  A    between atoms: C_2  and  N_24
REMARK    4  A    between atoms: C_13  and  C_14
REMARK    5  A    between atoms: C_13  and  N_67
REMARK    6  A    between atoms: C_19  and  O_20
REMARK    7  A    between atoms: O_20  and  C_21
REMARK    8  A    between atoms: C_21  and  C_22
REMARK    9  A    between atoms: C_25  and  C_27
REMARK   10  A    between atoms: C_27  and  C_28
REMARK   11  A    between atoms: C_28  and  C_29
REMARK                            x       y       z     vdW  Elec       q    Type
REMARK                         _______ _______ _______ _____ _____    ______ ____
ROOT
ATOM      1  C   UNL     1       2.344   2.826  -4.245  0.00  0.00    +0.154 A 
ATOM      2  N   UNL     1       2.035   4.001  -4.729  0.00  0.00    -0.132 NA
ATOM      3  N   UNL     1       0.894   4.376  -4.264  0.00  0.00    -0.134 NA
ATOM      4  C   UNL     1       0.423   3.458  -3.473  0.00  0.00    +0.132 A 
ATOM      5  N   UNL     1       1.337   2.457  -3.425  0.00  0.00    -0.315 N 
ATOM      6  C   UNL     1       1.239   1.240  -2.618  0.00  0.00    +0.106 C 
ATOM      7  C   UNL     1      -0.238   0.903  -2.394  0.00  0.00    -0.056 C 
ATOM      8  C   UNL     1      -0.640   3.031  -1.283  0.00  0.00    -0.071 C 
ATOM      9  C   UNL     1      -0.889   3.463  -2.732  0.00  0.00    +0.058 C 
ATOM     10  N   UNL     1      -0.757   1.561  -1.172  0.00  0.00    +0.384 N 
ATOM     11  H   UNL     1      -1.748   1.316  -1.061  0.00  0.00    -0.081 HD
ENDROOT
BRANCH   1  13
ATOM     12  C   UNL     1       4.777   2.646  -3.805  0.00  0.00    +0.036 C 
ATOM     13  C   UNL     1       3.588   2.032  -4.547  0.00  0.00    +0.138 C 
BRANCH  13  14
ATOM     14  N   UNL     1       3.846   2.058  -5.989  0.00  0.00    -0.306 N 
ATOM     15  C   UNL     1       4.552   1.065  -6.566  0.00  0.00    +0.214 C 
ATOM     16  O   UNL     1       4.974   0.150  -5.891  0.00  0.00    -0.276 OA
ATOM     17  H   UNL     1       3.508   2.790  -6.529  0.00  0.00    +0.149 HD
BRANCH  15  18
ATOM     18  C   UNL     1       4.817   1.092  -8.049  0.00  0.00    +0.100 C 
BRANCH  18  19
ATOM     19  C   UNL     1       5.633  -0.141  -8.443  0.00  0.00    +0.044 C 
BRANCH  19  20
ATOM     20  C   UNL     1       5.899  -0.114  -9.927  0.00  0.00    -0.047 A 
ATOM     21  C   UNL     1       5.010  -0.715 -10.799  0.00  0.00    +0.003 A 
ATOM     22  C   UNL     1       5.251  -0.687 -12.159  0.00  0.00    +0.000 A 
ATOM     23  C   UNL     1       6.385  -0.065 -12.648  0.00  0.00    +0.000 A 
ATOM     24  C   UNL     1       7.276   0.532 -11.775  0.00  0.00    +0.000 A 
ATOM     25  C   UNL     1       7.033   0.507 -10.415  0.00  0.00    +0.003 A 
ENDBRANCH  19  20
ENDBRANCH  18  19
ENDBRANCH  15  18
ENDBRANCH  13  14
ENDBRANCH   1  13
BRANCH  10  26
ATOM     26  C   UNL     1      -0.013   1.086   0.008  0.00  0.00    -0.039 C 
BRANCH  26  27
ATOM     27  C   UNL     1      -0.718   1.572   1.248  0.00  0.00    -0.022 A 
ATOM     28  C   UNL     1      -0.234   2.669   1.934  0.00  0.00    +0.005 A 
ATOM     29  C   UNL     1      -0.880   3.115   3.071  0.00  0.00    +0.000 A 
ATOM     30  C   UNL     1      -2.013   2.466   3.525  0.00  0.00    +0.004 A 
ATOM     31  C   UNL     1      -2.502   1.369   2.843  0.00  0.00    +0.046 A 
ATOM     32  C   UNL     1      -1.857   0.921   1.698  0.00  0.00    +0.122 A 
BRANCH  32  33
ATOM     33  O   UNL     1      -2.339  -0.155   1.022  0.00  0.00    -0.488 OA
BRANCH  33  34
ATOM     34  C   UNL     1      -3.516  -0.775   1.544  0.00  0.00    +0.256 C 
BRANCH  34  35
ATOM     35  C   UNL     1      -3.898  -1.941   0.670  0.00  0.00    +0.006 C 
ATOM     36  C   UNL     1      -4.239  -3.083   1.214  0.00  0.00    +0.007 C 
ENDBRANCH  34  35
ENDBRANCH  33  34
ENDBRANCH  32  33
ENDBRANCH  26  27
ENDBRANCH  10  26
TORSDOF 10
