REMARK  Name = ZINC12431073
REMARK  3 active torsions:
REMARK  status: ('A' for Active; 'I' for Inactive)
REMARK    1  A    between atoms: C_1  and  C_2
REMARK    2  A    between atoms: C_3  and  C_7
REMARK    3  A    between atoms: C_22  and  C_24
REMARK                            x       y       z     vdW  Elec       q    Type
REMARK                         _______ _______ _______ _____ _____    ______ ____
ROOT
ATOM      1  C   UNL     1       0.506  -0.217  -2.546  0.00  0.00    +0.284 C 
ATOM      2  O   UNL     1       0.380   0.951  -2.864  0.00  0.00    -0.267 OA
ATOM      3  N   UNL     1       0.395  -1.185  -3.478  0.00  0.00    -0.286 N 
ATOM      4  C   UNL     1       0.456  -2.605  -3.102  0.00  0.00    +0.113 C 
ATOM      5  C   UNL     1      -0.896  -3.260  -3.410  0.00  0.00    +0.056 C 
ATOM      6  C   UNL     1      -1.352  -2.824  -4.779  0.00  0.00    -0.016 A 
ATOM      7  C   UNL     1      -2.357  -3.433  -5.627  0.00  0.00    +0.003 A 
ATOM      8  C   UNL     1      -3.179  -4.553  -5.467  0.00  0.00    +0.010 A 
ATOM      9  C   UNL     1      -4.035  -4.846  -6.499  0.00  0.00    +0.001 A 
ATOM     10  C   UNL     1      -4.091  -4.077  -7.651  0.00  0.00    +0.002 A 
ATOM     11  C   UNL     1      -3.288  -2.965  -7.835  0.00  0.00    +0.026 A 
ATOM     12  C   UNL     1      -2.410  -2.642  -6.803  0.00  0.00    +0.047 A 
ATOM     13  N   UNL     1      -1.499  -1.636  -6.657  0.00  0.00    -0.356 N 
ATOM     14  H   UNL     1      -1.324  -0.942  -7.312  0.00  0.00    +0.166 HD
ATOM     15  C   UNL     1      -0.870  -1.753  -5.446  0.00  0.00    +0.041 A 
ATOM     16  C   UNL     1       0.204  -0.846  -4.899  0.00  0.00    +0.126 C 
ENDROOT
BRANCH   1  19
ATOM     17  C   UNL     1       1.117   1.792  -0.224  0.00  0.00    +0.070 C 
ATOM     18  C   UNL     1       1.046   0.289  -0.127  0.00  0.00    +0.089 A 
ATOM     19  C   UNL     1       0.778  -0.573  -1.149  0.00  0.00    +0.212 A 
ATOM     20  O   UNL     1       0.812  -1.820  -0.625  0.00  0.00    -0.438 OA
ATOM     21  C   UNL     1       1.093  -1.706   0.677  0.00  0.00    +0.309 A 
ATOM     22  N   UNL     1       1.238  -0.443   0.975  0.00  0.00    -0.221 NA
ENDBRANCH   1  19
BRANCH  16  23
ATOM     23  C   UNL     1      -0.232   0.614  -5.031  0.00  0.00    +0.015 C 
ATOM     24  C   UNL     1      -1.636   0.782  -4.446  0.00  0.00    +0.006 C 
ATOM     25  C   UNL     1      -2.072   2.242  -4.578  0.00  0.00    +0.000 C 
ATOM     26  C   UNL     1      -2.085   2.639  -6.056  0.00  0.00    +0.000 C 
ATOM     27  C   UNL     1      -0.682   2.471  -6.641  0.00  0.00    +0.000 C 
ATOM     28  C   UNL     1      -0.245   1.011  -6.509  0.00  0.00    +0.006 C 
ENDBRANCH  16  23
TORSDOF 2
