REMARK  Name = ZINC24813643
REMARK  9 active torsions:
REMARK  status: ('A' for Active; 'I' for Inactive)
REMARK    1  A    between atoms: C_4  and  N_7
REMARK    2  A    between atoms: C_8  and  C_10
REMARK    3  A    between atoms: C_10  and  N_11
REMARK    4  A    between atoms: N_11  and  C_12
REMARK    5  A    between atoms: N_11  and  C_18
REMARK    6  A    between atoms: C_12  and  C_13
REMARK    7  A    between atoms: C_18  and  C_19
REMARK    8  A    between atoms: C_21  and  C_24
REMARK    9  A    between atoms: C_27  and  C_30
REMARK                            x       y       z     vdW  Elec       q    Type
REMARK                         _______ _______ _______ _____ _____    ______ ____
ROOT
ATOM      1  N   UNL     1      -2.745   7.701   0.107  0.00  0.00    +0.396 N 
ATOM      2  H   UNL     1      -3.284   7.182   0.913  0.00  0.00    -0.080 HD
ENDROOT
BRANCH   1   3
ATOM      3  C   UNL     1      -1.347   7.250   0.134  0.00  0.00    +0.020 C 
BRANCH   3   5
ATOM      4  N   UNL     1       0.442   7.068   1.833  0.00  0.00    -0.287 N 
ATOM      5  C   UNL     1      -0.875   7.165   1.563  0.00  0.00    +0.201 C 
ATOM      6  O   UNL     1      -1.681   7.184   2.470  0.00  0.00    -0.278 OA
ATOM      7  H   UNL     1       1.178   7.171   1.022  0.00  0.00    +0.155 HD
BRANCH   4  11
ATOM      8  C   UNL     1       1.722   6.380   5.737  0.00  0.00    +0.000 A 
ATOM      9  C   UNL     1       0.522   7.027   5.509  0.00  0.00    +0.002 A 
ATOM     10  C   UNL     1       0.097   7.262   4.216  0.00  0.00    +0.023 A 
ATOM     11  C   UNL     1       0.872   6.838   3.144  0.00  0.00    +0.033 A 
ATOM     12  C   UNL     1       2.074   6.183   3.377  0.00  0.00    +0.023 A 
ATOM     13  C   UNL     1       2.496   5.956   4.672  0.00  0.00    +0.002 A 
ENDBRANCH   4  11
ENDBRANCH   3   5
ENDBRANCH   1   3
BRANCH   1  14
ATOM     14  C   UNL     1      -3.388   7.347  -1.166  0.00  0.00    -0.002 C 
BRANCH  14  15
ATOM     15  C   UNL     1      -3.734   5.880  -1.163  0.00  0.00    +0.089 A 
ATOM     16  C   UNL     1      -4.913   5.351  -0.788  0.00  0.00    +0.042 A 
ATOM     17  C   UNL     1      -4.800   3.950  -0.942  0.00  0.00    +0.041 A 
ATOM     18  C   UNL     1      -3.559   3.707  -1.401  0.00  0.00    +0.195 A 
ATOM     19  O   UNL     1      -2.920   4.880  -1.538  0.00  0.00    -0.470 OA
ENDBRANCH  14  15
ENDBRANCH   1  14
BRANCH   1  20
ATOM     20  C   UNL     1      -2.838   9.145   0.359  0.00  0.00    +0.023 C 
BRANCH  20  21
ATOM     21  C   UNL     1      -4.281   9.528   0.567  0.00  0.00    +0.211 A 
ATOM     22  N   UNL     1      -4.923   9.551   1.708  0.00  0.00    -0.193 NA
ATOM     23  C   UNL     1      -6.179   9.952   1.410  0.00  0.00    +0.202 A 
ATOM     24  N   UNL     1      -6.226  10.146   0.118  0.00  0.00    -0.056 NA
ATOM     25  O   UNL     1      -5.144   9.912  -0.378  0.00  0.00    -0.340 OA
BRANCH  23  26
ATOM     26  C   UNL     1      -7.296  10.136   2.370  0.00  0.00    +0.022 A 
ATOM     27  C   UNL     1      -7.101   9.884   3.726  0.00  0.00    +0.012 A 
ATOM     28  C   UNL     1      -8.142  10.062   4.615  0.00  0.00    +0.013 A 
ATOM     29  C   UNL     1      -9.380  10.479   4.160  0.00  0.00    +0.055 A 
ATOM     30  C   UNL     1      -9.580  10.726   2.814  0.00  0.00    +0.013 A 
ATOM     31  C   UNL     1      -8.545  10.556   1.917  0.00  0.00    +0.012 A 
BRANCH  29  32
ATOM     32  C   UNL     1     -10.514  10.665   5.134  0.00  0.00    +0.417 C 
ATOM     33  F   UNL     1     -11.224   9.466   5.259  0.00  0.00    -0.166 F 
ATOM     34  F   UNL     1     -10.001  11.036   6.382  0.00  0.00    -0.166 F 
ATOM     35  F   UNL     1     -11.371  11.668   4.667  0.00  0.00    -0.166 F 
ENDBRANCH  29  32
ENDBRANCH  23  26
ENDBRANCH  20  21
ENDBRANCH   1  20
TORSDOF 9
