REMARK  Name = ZINC35313475
REMARK  8 active torsions:
REMARK  status: ('A' for Active; 'I' for Inactive)
REMARK    1  A    between atoms: C_1  and  C_2
REMARK    2  A    between atoms: C_4  and  C_36
REMARK    3  A    between atoms: C_9  and  C_14
REMARK    4  A    between atoms: C_18  and  O_34
REMARK    5  A    between atoms: C_19  and  O_32
REMARK    6  A    between atoms: C_25  and  C_27
REMARK    7  A    between atoms: O_32  and  C_33
REMARK    8  A    between atoms: O_34  and  C_35
REMARK                            x       y       z     vdW  Elec       q    Type
REMARK                         _______ _______ _______ _____ _____    ______ ____
ROOT
ATOM      1  C   UNL     1      -0.021  -4.923   3.780  0.00  0.00    +0.143 C 
ATOM      2  C   UNL     1       1.211  -5.683   4.206  0.00  0.00    -0.016 A 
ATOM      3  C   UNL     1       2.442  -5.060   4.043  0.00  0.00    +0.055 A 
ATOM      4  C   UNL     1       3.608  -5.699   4.423  0.00  0.00    +0.162 A 
ATOM      5  C   UNL     1       3.543  -6.975   4.975  0.00  0.00    +0.162 A 
ATOM      6  C   UNL     1       2.317  -7.591   5.132  0.00  0.00    +0.053 A 
ATOM      7  C   UNL     1       1.146  -6.949   4.743  0.00  0.00    -0.037 A 
ATOM      8  C   UNL     1      -0.149  -7.696   4.921  0.00  0.00    +0.054 C 
ATOM      9  C   UNL     1      -1.337  -6.734   4.917  0.00  0.00    +0.114 C 
ATOM     10  N   UNL     1      -1.178  -5.825   3.770  0.00  0.00    -0.283 N 
ATOM     11  C   UNL     1      -2.060  -5.822   2.751  0.00  0.00    +0.283 C 
ATOM     12  O   UNL     1      -1.985  -4.971   1.884  0.00  0.00    -0.267 OA
ENDROOT
BRANCH   1  21
ATOM     13  C   UNL     1       0.745   0.799  -0.940  0.00  0.00    +0.044 C 
ATOM     14  C   UNL     1       0.686  -0.682  -0.669  0.00  0.00    -0.050 A 
ATOM     15  C   UNL     1       0.830  -1.580  -1.718  0.00  0.00    +0.008 A 
ATOM     16  C   UNL     1       0.779  -2.939  -1.494  0.00  0.00    -0.026 A 
ATOM     17  C   UNL     1       0.583  -3.418  -0.202  0.00  0.00    +0.052 A 
ATOM     18  C   UNL     1       0.439  -2.505   0.859  0.00  0.00    -0.001 A 
ATOM     19  C   UNL     1       0.498  -1.130   0.608  0.00  0.00    +0.013 A 
ATOM     20  C   UNL     1       0.233  -3.019   2.214  0.00  0.00    +0.021 A 
ATOM     21  C   UNL     1       0.189  -4.361   2.398  0.00  0.00    +0.042 A 
ATOM     22  C   UNL     1       0.340  -5.234   1.300  0.00  0.00    +0.254 A 
ATOM     23  O   UNL     1       0.297  -6.438   1.487  0.00  0.00    -0.268 OA
ATOM     24  N   UNL     1       0.529  -4.772   0.051  0.00  0.00    -0.322 N 
ATOM     25  H   UNL     1       0.629  -5.400  -0.681  0.00  0.00    +0.169 HD
ATOM     26  C   UNL     1       0.935  -3.902  -2.642  0.00  0.00    +0.046 C 
ENDBRANCH   1  21
BRANCH  11  27
ATOM     27  C   UNL     1      -3.111  -6.842   2.688  0.00  0.00    +0.189 A 
ATOM     28  C   UNL     1      -4.147  -6.873   1.799  0.00  0.00    +0.054 A 
ATOM     29  C   UNL     1      -4.903  -8.017   2.099  0.00  0.00    +0.042 A 
ATOM     30  C   UNL     1      -4.303  -8.627   3.145  0.00  0.00    +0.196 A 
ATOM     31  O   UNL     1      -3.221  -7.918   3.494  0.00  0.00    -0.458 OA
ENDBRANCH  11  27
BRANCH   5  32
ATOM     32  O   UNL     1       4.682  -7.612   5.357  0.00  0.00    -0.491 OA
ATOM     33  C   UNL     1       4.538  -8.919   5.916  0.00  0.00    +0.277 C 
ENDBRANCH   5  32
BRANCH   4  34
ATOM     34  O   UNL     1       4.809  -5.084   4.257  0.00  0.00    -0.491 OA
ATOM     35  C   UNL     1       4.795  -3.775   3.684  0.00  0.00    +0.277 C 
ENDBRANCH   4  34
TORSDOF 4
