REMARK  Name = ZINC12716396
REMARK  15 active torsions:
REMARK  status: ('A' for Active; 'I' for Inactive)
REMARK    1  A    between atoms: C_1  and  C_2
REMARK    2  A    between atoms: C_5  and  C_7
REMARK    3  A    between atoms: N_10  and  C_12
REMARK    4  A    between atoms: C_12  and  C_13
REMARK    5  A    between atoms: N_15  and  C_16
REMARK    6  A    between atoms: N_15  and  C_25
REMARK    7  A    between atoms: C_16  and  C_17
REMARK    8  A    between atoms: C_20  and  O_23
REMARK    9  A    between atoms: O_23  and  C_24
REMARK   10  A    between atoms: C_25  and  C_27
REMARK   11  A    between atoms: C_25  and  C_32
REMARK   12  A    between atoms: N_34  and  C_35
REMARK   13  A    between atoms: C_35  and  C_36
REMARK   14  A    between atoms: C_35  and  C_37
REMARK   15  A    between atoms: C_35  and  C_38
REMARK                            x       y       z     vdW  Elec       q    Type
REMARK                         _______ _______ _______ _____ _____    ______ ____
ROOT
ATOM      1  C   UNL     1      -0.634   2.885   2.604  0.00  0.00    +0.240 C 
ATOM      2  O   UNL     1       0.440   3.385   2.342  0.00  0.00    -0.273 OA
ATOM      3  N   UNL     1      -1.176   1.977   1.768  0.00  0.00    -0.280 N 
ENDROOT
BRANCH   1   4
ATOM      4  C   UNL     1      -1.362   3.280   3.863  0.00  0.00    +0.264 C 
BRANCH   4   8
ATOM      5  C   UNL     1       0.896   4.890   6.047  0.00  0.00    +0.239 A 
ATOM      6  N   UNL     1       0.355   5.934   5.399  0.00  0.00    -0.105 NA
ATOM      7  N   UNL     1      -0.501   5.461   4.558  0.00  0.00    -0.045 NA
ATOM      8  N   UNL     1      -0.517   4.178   4.654  0.00  0.00    -0.154 N 
ATOM      9  N   UNL     1       0.322   3.806   5.559  0.00  0.00    -0.127 NA
BRANCH   5  14
ATOM     10  C   UNL     1       4.179   3.435   9.554  0.00  0.00    +0.086 C 
ATOM     11  C   UNL     1       3.365   4.313   8.639  0.00  0.00    +0.103 A 
ATOM     12  C   UNL     1       3.425   5.658   8.582  0.00  0.00    +0.045 A 
ATOM     13  C   UNL     1       2.508   6.071   7.595  0.00  0.00    +0.053 A 
ATOM     14  C   UNL     1       1.927   4.944   7.104  0.00  0.00    +0.175 A 
ATOM     15  O   UNL     1       2.459   3.885   7.745  0.00  0.00    -0.457 OA
ENDBRANCH   5  14
ENDBRANCH   4   8
ENDBRANCH   1   4
BRANCH   3  16
ATOM     16  C   UNL     1      -0.421   1.512   0.602  0.00  0.00    +0.144 C 
BRANCH  16  17
ATOM     17  C   UNL     1       0.390   0.299   0.980  0.00  0.00    -0.030 A 
ATOM     18  C   UNL     1       1.678   0.452   1.457  0.00  0.00    +0.009 A 
ATOM     19  C   UNL     1       2.426  -0.658   1.799  0.00  0.00    +0.046 A 
ATOM     20  C   UNL     1       1.883  -1.928   1.663  0.00  0.00    +0.120 A 
ATOM     21  C   UNL     1       0.589  -2.079   1.183  0.00  0.00    +0.046 A 
ATOM     22  C   UNL     1      -0.154  -0.965   0.843  0.00  0.00    +0.009 A 
BRANCH  20  23
ATOM     23  O   UNL     1       2.616  -3.022   1.998  0.00  0.00    -0.495 OA
ATOM     24  C   UNL     1       3.939  -2.791   2.485  0.00  0.00    +0.277 C 
ENDBRANCH  20  23
ENDBRANCH  16  17
ENDBRANCH   3  16
BRANCH   3  25
ATOM     25  C   UNL     1      -2.521   1.455   2.026  0.00  0.00    +0.199 C 
BRANCH  25  26
ATOM     26  C   UNL     1      -2.805   0.313   1.085  0.00  0.00    +0.019 A 
ATOM     27  C   UNL     1      -3.024  -0.994   1.371  0.00  0.00    +0.013 A 
ATOM     28  C   UNL     1      -3.269  -1.875   0.334  0.00  0.00    +0.008 A 
ATOM     29  C   UNL     1      -3.283  -1.405  -0.938  0.00  0.00    +0.045 A 
ATOM     30  S   UNL     1      -2.950   0.332  -0.694  0.00  0.00    -0.099 S 
ENDBRANCH  25  26
BRANCH  25  31
ATOM     31  C   UNL     1      -3.534   2.549   1.810  0.00  0.00    +0.239 C 
ATOM     32  O   UNL     1      -3.281   3.472   1.065  0.00  0.00    -0.273 OA
ATOM     33  N   UNL     1      -4.723   2.502   2.445  0.00  0.00    -0.309 N 
ATOM     34  H   UNL     1      -4.925   1.763   3.040  0.00  0.00    +0.149 HD
BRANCH  33  35
ATOM     35  C   UNL     1      -5.708   3.565   2.234  0.00  0.00    +0.026 C 
ATOM     36  C   UNL     1      -6.083   3.627   0.752  0.00  0.00    +0.031 C 
ATOM     37  C   UNL     1      -6.959   3.272   3.064  0.00  0.00    +0.031 C 
ATOM     38  C   UNL     1      -5.111   4.906   2.666  0.00  0.00    +0.031 C 
ENDBRANCH  33  35
ENDBRANCH  25  31
ENDBRANCH   3  25
TORSDOF 10
