REMARK  Name = ZINC35957632
REMARK  6 active torsions:
REMARK  status: ('A' for Active; 'I' for Inactive)
REMARK    1  A    between atoms: C_1  and  C_2
REMARK    2  A    between atoms: C_2  and  C_3
REMARK    3  A    between atoms: C_3  and  C_5
REMARK    4  A    between atoms: C_3  and  C_11
REMARK    5  A    between atoms: N_13  and  C_14
REMARK    6  A    between atoms: N_28  and  C_29
REMARK                            x       y       z     vdW  Elec       q    Type
REMARK                         _______ _______ _______ _____ _____    ______ ____
ROOT
ATOM      1  C   UNL     1      -0.672  -4.046  -1.422  0.00  0.00    +0.092 C 
ATOM      2  C   UNL     1      -0.620  -4.779  -0.056  0.00  0.00    +0.043 C 
ATOM      3  C   UNL     1      -1.369  -6.096  -0.381  0.00  0.00    +0.110 C 
ATOM      4  N   UNL     1      -2.446  -5.698  -1.307  0.00  0.00    -0.301 N 
ATOM      5  C   UNL     1      -2.051  -4.451  -1.985  0.00  0.00    +0.130 C 
ATOM      6  C   UNL     1      -3.626  -6.383  -1.508  0.00  0.00    +0.177 A 
ATOM      7  N   UNL     1      -3.973  -7.483  -0.888  0.00  0.00    -0.327 N 
ATOM      8  C   UNL     1      -5.194  -7.888  -1.325  0.00  0.00    +0.065 A 
ATOM      9  C   UNL     1      -6.017  -8.971  -1.008  0.00  0.00    +0.028 A 
ATOM     10  C   UNL     1      -7.233  -9.115  -1.638  0.00  0.00    +0.002 A 
ATOM     11  C   UNL     1      -7.647  -8.191  -2.586  0.00  0.00    +0.002 A 
ATOM     12  C   UNL     1      -6.846  -7.115  -2.911  0.00  0.00    +0.028 A 
ATOM     13  C   UNL     1      -5.619  -6.955  -2.286  0.00  0.00    +0.068 A 
ATOM     14  N   UNL     1      -4.610  -6.010  -2.378  0.00  0.00    -0.310 N 
ATOM     15  H   UNL     1      -3.439  -7.940  -0.220  0.00  0.00    +0.169 HD
ENDROOT
BRANCH  14  16
ATOM     16  C   UNL     1      -4.600  -4.833  -3.249  0.00  0.00    +0.090 C 
ATOM     17  C   UNL     1      -5.770  -3.895  -2.885  0.00  0.00    +0.025 C 
ATOM     18  C   UNL     1      -6.249  -3.338  -4.248  0.00  0.00    +0.002 C 
ATOM     19  C   UNL     1      -6.110  -4.563  -5.186  0.00  0.00    +0.002 C 
ATOM     20  C   UNL     1      -4.816  -5.257  -4.712  0.00  0.00    +0.025 C 
ENDBRANCH  14  16
BRANCH   1  23
ATOM     21  C   UNL     1       0.604  -1.982  -1.198  0.00  0.00    +0.221 C 
ATOM     22  O   UNL     1       1.621  -2.632  -1.320  0.00  0.00    -0.275 OA
ATOM     23  N   UNL     1      -0.596  -2.595  -1.235  0.00  0.00    -0.310 N 
ATOM     24  H   UNL     1      -1.409  -2.075  -1.137  0.00  0.00    +0.149 HD
BRANCH  21  25
ATOM     25  C   UNL     1       0.683  -0.490  -1.004  0.00  0.00    +0.105 C 
BRANCH  25  26
ATOM     26  C   UNL     1       2.127  -0.059  -1.000  0.00  0.00    -0.036 A 
ATOM     27  C   UNL     1       2.998  -0.570  -0.055  0.00  0.00    +0.004 A 
ATOM     28  C   UNL     1       4.322  -0.175  -0.051  0.00  0.00    +0.000 A 
ATOM     29  C   UNL     1       4.777   0.730  -0.992  0.00  0.00    +0.000 A 
ATOM     30  C   UNL     1       3.907   1.239  -1.938  0.00  0.00    +0.000 A 
ATOM     31  C   UNL     1       2.583   0.841  -1.945  0.00  0.00    +0.004 A 
ENDBRANCH  25  26
BRANCH  25  33
ATOM     32  C   UNL     1       0.003   1.410   0.469  0.00  0.00    +0.005 C 
ATOM     33  C   UNL     1       0.035  -0.113   0.329  0.00  0.00    +0.014 C 
ENDBRANCH  25  33
ENDBRANCH  21  25
ENDBRANCH   1  23
TORSDOF 5
