REMARK  Name = ZINC63775729
REMARK  10 active torsions:
REMARK  status: ('A' for Active; 'I' for Inactive)
REMARK    1  A    between atoms: C_1  and  C_2
REMARK    2  A    between atoms: C_7  and  C_10
REMARK    3  A    between atoms: C_11  and  C_13
REMARK    4  A    between atoms: C_13  and  O_14
REMARK    5  A    between atoms: O_14  and  C_15
REMARK    6  A    between atoms: C_15  and  C_17
REMARK    7  A    between atoms: C_17  and  C_19
REMARK    8  A    between atoms: C_17  and  N_29
REMARK    9  A    between atoms: C_19  and  C_20
REMARK   10  A    between atoms: C_30  and  C_32
REMARK                            x       y       z     vdW  Elec       q    Type
REMARK                         _______ _______ _______ _____ _____    ______ ____
ROOT
ATOM      1  C   UNL     1       6.473   2.631  -4.487  0.00  0.00    +0.186 C 
ENDROOT
BRANCH   1   2
ATOM      2  N   UNL     1       7.889   2.952  -4.291  0.00  0.00    -0.298 N 
ATOM      3  C   UNL     1       8.446   3.978  -4.963  0.00  0.00    +0.245 C 
ATOM      4  O   UNL     1       7.774   4.638  -5.732  0.00  0.00    -0.270 OA
ATOM      5  H   UNL     1       8.425   2.426  -3.677  0.00  0.00    +0.150 HD
BRANCH   3   6
ATOM      6  C   UNL     1       9.874   4.302  -4.765  0.00  0.00    +0.037 A 
ATOM      7  C   UNL     1      10.650   3.543  -3.887  0.00  0.00    +0.014 A 
ATOM      8  C   UNL     1      11.982   3.850  -3.707  0.00  0.00    +0.021 A 
ATOM      9  C   UNL     1      12.551   4.909  -4.395  0.00  0.00    +0.041 A 
ATOM     10  C   UNL     1      11.787   5.666  -5.267  0.00  0.00    +0.021 A 
ATOM     11  C   UNL     1      10.455   5.365  -5.460  0.00  0.00    +0.014 A 
ATOM     12 CL   UNL     1      14.229   5.290  -4.162  0.00  0.00    -0.084 Cl
ENDBRANCH   3   6
ENDBRANCH   1   2
BRANCH   1  13
ATOM     13  C   UNL     1       5.944   1.924  -3.265  0.00  0.00    +0.328 C 
ATOM     14  O   UNL     1       6.675   1.710  -2.327  0.00  0.00    -0.249 OA
BRANCH  13  15
ATOM     15  O   UNL     1       4.661   1.531  -3.220  0.00  0.00    -0.454 OA
BRANCH  15  16
ATOM     16  C   UNL     1       4.228   0.867  -2.031  0.00  0.00    +0.327 C 
BRANCH  16  25
ATOM     17  C   UNL     1      -0.019   1.526   0.010  0.00  0.00    +0.039 C 
ATOM     18  C   UNL     1       0.002  -0.004   0.002  0.00  0.00    +0.133 C 
ATOM     19  C   UNL     1       0.722  -0.499  -1.258  0.00  0.00    +0.139 C 
ATOM     20  N   UNL     1       2.143  -0.135  -1.154  0.00  0.00    -0.294 N 
ATOM     21  C   UNL     1       2.860  -0.488   0.082  0.00  0.00    +0.139 C 
ATOM     22  C   UNL     1       2.036   0.007   1.277  0.00  0.00    +0.133 C 
ATOM     23  O   UNL     1       0.695  -0.479   1.159  0.00  0.00    -0.371 OA
ATOM     24  C   UNL     1       2.656  -0.513   2.575  0.00  0.00    +0.039 C 
ATOM     25  C   UNL     1       2.771   0.504  -2.161  0.00  0.00    +0.253 C 
ATOM     26  O   UNL     1       2.164   0.786  -3.172  0.00  0.00    -0.272 OA
ENDBRANCH  16  25
ENDBRANCH  15  16
ENDBRANCH  13  15
ENDBRANCH   1  13
BRANCH   1  27
ATOM     27  C   UNL     1       6.321   1.722  -5.708  0.00  0.00    +0.067 C 
BRANCH  27  28
ATOM     28  C   UNL     1       6.735   2.472  -6.948  0.00  0.00    -0.039 C 
ATOM     29  C   UNL     1       7.949   2.453  -7.542  0.00  0.00    -0.001 A 
ATOM     30  C   UNL     1       9.201   1.755  -7.224  0.00  0.00    +0.010 A 
ATOM     31  C   UNL     1      10.276   1.939  -8.024  0.00  0.00    +0.001 A 
ATOM     32  C   UNL     1      10.225   2.777  -9.146  0.00  0.00    +0.002 A 
ATOM     33  C   UNL     1       9.111   3.451  -9.503  0.00  0.00    +0.026 A 
ATOM     34  C   UNL     1       7.921   3.332  -8.733  0.00  0.00    +0.043 A 
ATOM     35  N   UNL     1       6.735   3.873  -8.869  0.00  0.00    -0.380 N 
ATOM     36  C   UNL     1       5.874   3.394  -7.782  0.00  0.00    +0.144 C 
ATOM     37  H   UNL     1       6.470   4.486  -9.573  0.00  0.00    +0.160 HD
ENDBRANCH  27  28
ENDBRANCH   1  27
TORSDOF 8
