REMARK  Name = ZINC05696235
REMARK  3 active torsions:
REMARK  status: ('A' for Active; 'I' for Inactive)
REMARK    1  A    between atoms: C_4  and  C_7
REMARK    2  A    between atoms: C_7  and  C_20
REMARK    3  A    between atoms: N_8  and  N_9
REMARK                            x       y       z     vdW  Elec       q    Type
REMARK                         _______ _______ _______ _____ _____    ______ ____
ROOT
ATOM      1  C   UNL     1       6.573   3.942   0.059  0.00  0.00    +0.096 C 
ATOM      2  N   UNL     1       5.502   3.710   0.771  0.00  0.00    -0.179 NA
ENDROOT
BRANCH   2   3
ATOM      3  N   UNL     1       5.092   2.392   1.010  0.00  0.00    -0.206 N 
ATOM      4  C   UNL     1       4.039   2.142   1.866  0.00  0.00    +0.214 A 
ATOM      5  N   UNL     1       3.554   0.902   2.173  0.00  0.00    -0.325 N 
ATOM      6  H   UNL     1       3.894   0.029   1.823  0.00  0.00    +0.169 HD
ATOM      7  C   UNL     1       2.504   1.080   3.058  0.00  0.00    +0.067 A 
ATOM      8  C   UNL     1       1.639   0.214   3.710  0.00  0.00    +0.028 A 
ATOM      9  C   UNL     1       0.667   0.717   4.549  0.00  0.00    +0.002 A 
ATOM     10  C   UNL     1       0.554   2.085   4.754  0.00  0.00    +0.002 A 
ATOM     11  C   UNL     1       1.405   2.959   4.116  0.00  0.00    +0.030 A 
ATOM     12  C   UNL     1       2.392   2.466   3.258  0.00  0.00    +0.091 A 
ATOM     13  N   UNL     1       3.354   3.058   2.505  0.00  0.00    -0.213 NA
ATOM     14  H   UNL     1       5.548   1.655   0.574  0.00  0.00    +0.177 HD
ENDBRANCH   2   3
BRANCH   1  18
ATOM     15  C   UNL     1       9.047   0.713  -1.172  0.00  0.00    +0.000 A 
ATOM     16  C   UNL     1       8.805   1.765  -2.038  0.00  0.00    +0.001 A 
ATOM     17  C   UNL     1       8.002   2.816  -1.645  0.00  0.00    +0.010 A 
ATOM     18  C   UNL     1       7.435   2.817  -0.370  0.00  0.00    +0.002 A 
ATOM     19  C   UNL     1       7.687   1.756   0.501  0.00  0.00    +0.010 A 
ATOM     20  C   UNL     1       8.487   0.709   0.093  0.00  0.00    +0.001 A 
ENDBRANCH   1  18
BRANCH   1  21
ATOM     21  C   UNL     1       6.925   5.329  -0.319  0.00  0.00    +0.005 A 
ATOM     22  C   UNL     1       8.175   5.628  -0.874  0.00  0.00    +0.030 A 
ATOM     23  C   UNL     1       8.459   6.934  -1.216  0.00  0.00    +0.111 A 
ATOM     24  N   UNL     1       7.576   7.894  -1.017  0.00  0.00    -0.263 NA
ATOM     25  C   UNL     1       6.389   7.656  -0.491  0.00  0.00    +0.111 A 
ATOM     26  C   UNL     1       6.020   6.379  -0.125  0.00  0.00    +0.030 A 
ENDBRANCH   1  21
TORSDOF 3
