REMARK  Name = ZINC19955132
REMARK  7 active torsions:
REMARK  status: ('A' for Active; 'I' for Inactive)
REMARK    1  A    between atoms: C_1  and  C_2
REMARK    2  A    between atoms: C_3  and  C_31
REMARK    3  A    between atoms: C_4  and  C_20
REMARK    4  A    between atoms: C_10  and  C_15
REMARK    5  A    between atoms: C_31  and  O_33
REMARK    6  A    between atoms: O_33  and  C_34
REMARK    7  A    between atoms: C_34  and  C_35
REMARK                            x       y       z     vdW  Elec       q    Type
REMARK                         _______ _______ _______ _____ _____    ______ ____
ROOT
ATOM      1  C   UNL     1       7.448   2.129   2.400  0.00  0.00    +0.061 C 
ATOM      2  C   UNL     1       6.707   2.513   1.144  0.00  0.00    +0.016 C 
ATOM      3  C   UNL     1       5.724   3.427   1.202  0.00  0.00    +0.065 C 
ATOM      4  C   UNL     1       4.961   3.829  -0.025  0.00  0.00    +0.099 C 
ATOM      5  C   UNL     1       5.704   3.437  -1.277  0.00  0.00    +0.024 C 
ATOM      6  C   UNL     1       6.690   2.515  -1.233  0.00  0.00    +0.016 C 
ATOM      7  N   UNL     1       7.041   1.930  -0.046  0.00  0.00    -0.321 N 
ATOM      8  C   UNL     1       7.430   2.108  -2.483  0.00  0.00    +0.060 C 
ATOM      9  C   UNL     1       7.486   3.289  -3.455  0.00  0.00    +0.039 C 
ATOM     10  C   UNL     1       6.051   3.725  -3.772  0.00  0.00    +0.088 C 
ATOM     11  C   UNL     1       5.345   4.056  -2.486  0.00  0.00    +0.162 C 
ATOM     12  O   UNL     1       4.446   4.875  -2.493  0.00  0.00    -0.292 OA
ATOM     13  H   UNL     1       7.597   0.981  -0.056  0.00  0.00    +0.152 HD
ENDROOT
BRANCH   4  14
ATOM     14  C   UNL     1       3.615   3.151  -0.016  0.00  0.00    +0.047 A 
ATOM     15  C   UNL     1       3.534   1.808  -0.022  0.00  0.00    +0.204 A 
ATOM     16  O   UNL     1       2.370   1.151  -0.014  0.00  0.00    -0.462 OA
ATOM     17  C   UNL     1       1.181   1.788   0.000  0.00  0.00    +0.138 A 
ATOM     18  C   UNL     1      -0.013   1.076   0.008  0.00  0.00    +0.047 A 
ATOM     19  C   UNL     1      -1.215   1.750   0.017  0.00  0.00    +0.004 A 
ATOM     20  C   UNL     1      -1.250   3.137   0.029  0.00  0.00    +0.001 A 
ATOM     21  C   UNL     1      -0.078   3.862   0.022  0.00  0.00    +0.015 A 
ATOM     22  C   UNL     1       1.144   3.192   0.008  0.00  0.00    +0.064 A 
ATOM     23  C   UNL     1       2.425   3.925  -0.001  0.00  0.00    +0.197 A 
ATOM     24  O   UNL     1       2.459   5.143   0.006  0.00  0.00    -0.287 OA
ENDBRANCH   4  14
BRANCH   9  25
ATOM     25  C   UNL     1       8.180   2.867  -4.724  0.00  0.00    -0.006 A 
ATOM     26  C   UNL     1       9.294   3.381  -5.298  0.00  0.00    +0.011 A 
ATOM     27  C   UNL     1       9.759   2.826  -6.476  0.00  0.00    +0.008 A 
ATOM     28  C   UNL     1       9.079   1.791  -7.028  0.00  0.00    +0.045 A 
ATOM     29  S   UNL     1       7.742   1.567  -5.866  0.00  0.00    -0.101 S 
ENDBRANCH   9  25
BRANCH   3  30
ATOM     30  C   UNL     1       5.404   4.021   2.445  0.00  0.00    +0.338 C 
ATOM     31  O   UNL     1       6.016   3.703   3.447  0.00  0.00    -0.245 OA
BRANCH  30  32
ATOM     32  O   UNL     1       4.419   4.941   2.519  0.00  0.00    -0.459 OA
BRANCH  32  33
ATOM     33  C   UNL     1       4.149   5.500   3.806  0.00  0.00    +0.264 C 
BRANCH  33  34
ATOM     34  C   UNL     1       3.010   6.515   3.692  0.00  0.00    +0.156 C 
ATOM     35  C   UNL     1       2.631   7.037   5.092  0.00  0.00    +0.037 C 
ATOM     36  C   UNL     1       2.842   8.568   4.996  0.00  0.00    +0.031 C 
ATOM     37  C   UNL     1       2.783   8.809   3.466  0.00  0.00    +0.160 C 
ATOM     38  O   UNL     1       3.438   7.644   2.913  0.00  0.00    -0.373 OA
ENDBRANCH  33  34
ENDBRANCH  32  33
ENDBRANCH  30  32
ENDBRANCH   3  30
TORSDOF 6
