REMARK  Name = ZINC02252026
REMARK  6 active torsions:
REMARK  status: ('A' for Active; 'I' for Inactive)
REMARK    1  A    between atoms: C_4  and  C_7
REMARK    2  A    between atoms: C_7  and  N_8
REMARK    3  A    between atoms: N_8  and  C_9
REMARK    4  A    between atoms: C_12  and  C_20
REMARK    5  A    between atoms: C_25  and  C_26
REMARK    6  A    between atoms: C_25  and  N_65
REMARK                            x       y       z     vdW  Elec       q    Type
REMARK                         _______ _______ _______ _____ _____    ______ ____
ROOT
ATOM      1  C   UNL     1       5.338  -1.553  -1.696  0.00  0.00    +0.099 A 
ATOM      2  C   UNL     1       5.690  -1.813  -3.024  0.00  0.00    -0.022 A 
ATOM      3  C   UNL     1       6.831  -2.512  -3.285  0.00  0.00    -0.024 A 
ATOM      4  C   UNL     1       7.616  -2.954  -2.207  0.00  0.00    +0.093 A 
ATOM      5  C   UNL     1       7.202  -2.660  -0.897  0.00  0.00    +0.118 A 
ATOM      6  N   UNL     1       7.960  -3.087   0.179  0.00  0.00    -0.316 N 
ATOM      7  C   UNL     1       7.196  -4.011   1.027  0.00  0.00    +0.106 C 
ATOM      8  C   UNL     1       8.107  -4.574   2.120  0.00  0.00    +0.019 C 
ATOM      9  C   UNL     1       8.661  -3.420   2.961  0.00  0.00    +0.003 C 
ATOM     10  C   UNL     1       9.410  -2.446   2.046  0.00  0.00    +0.019 C 
ATOM     11  C   UNL     1       8.461  -1.945   0.955  0.00  0.00    +0.106 C 
ATOM     12  C   UNL     1       7.277  -2.818  -4.689  0.00  0.00    +0.018 C 
ATOM     13  C   UNL     1       6.111  -2.627  -5.660  0.00  0.00    -0.073 C 
ATOM     14  C   UNL     1       4.790  -1.318  -4.124  0.00  0.00    -0.039 C 
ATOM     15  N   UNL     1       6.069  -1.953  -0.617  0.00  0.00    -0.331 N 
ATOM     16  H   UNL     1       5.785  -1.737   0.346  0.00  0.00    +0.168 HD
ATOM     17  N   UNL     1       5.522  -1.295  -5.402  0.00  0.00    +0.385 N 
ATOM     18  H   UNL     1       6.276  -0.601  -5.345  0.00  0.00    -0.081 HD
ENDROOT
BRANCH   1  19
ATOM     19  N   UNL     1       4.181  -0.839  -1.427  0.00  0.00    -0.326 N 
ATOM     20  H   UNL     1       3.624  -0.526  -2.157  0.00  0.00    +0.148 HD
BRANCH  19  21
ATOM     21  C   UNL     1       3.798  -0.558  -0.041  0.00  0.00    +0.138 C 
BRANCH  21  25
ATOM     22  C   UNL     1       0.150   1.664   0.005  0.00  0.00    +0.000 A 
ATOM     23  C   UNL     1       1.363   2.326  -0.037  0.00  0.00    +0.000 A 
ATOM     24  C   UNL     1       2.543   1.607  -0.053  0.00  0.00    +0.005 A 
ATOM     25  C   UNL     1       2.511   0.226  -0.025  0.00  0.00    -0.030 A 
ATOM     26  C   UNL     1       1.299  -0.437   0.019  0.00  0.00    +0.005 A 
ATOM     27  C   UNL     1       0.118   0.282   0.034  0.00  0.00    +0.000 A 
ENDBRANCH  21  25
ENDBRANCH  19  21
ENDBRANCH   1  19
BRANCH   4  28
ATOM     28  C   UNL     1       8.819  -3.694  -2.440  0.00  0.00    +0.103 C 
ATOM     29  N   UNL     1       9.774  -4.281  -2.624  0.00  0.00    -0.191 NA
ENDBRANCH   4  28
BRANCH  17  30
ATOM     30  C   UNL     1       4.608  -0.923  -6.504  0.00  0.00    -0.043 C 
BRANCH  30  31
ATOM     31  C   UNL     1       5.415  -0.709  -7.758  0.00  0.00    -0.064 A 
ATOM     32  C   UNL     1       5.925   0.543  -8.047  0.00  0.00    +0.002 A 
ATOM     33  C   UNL     1       6.670   0.738  -9.195  0.00  0.00    +0.000 A 
ATOM     34  C   UNL     1       6.896  -0.316 -10.060  0.00  0.00    +0.000 A 
ATOM     35  C   UNL     1       6.381  -1.567  -9.774  0.00  0.00    +0.000 A 
ATOM     36  C   UNL     1       5.641  -1.764  -8.623  0.00  0.00    +0.002 A 
ENDBRANCH  30  31
ENDBRANCH  17  30
TORSDOF 6
