REMARK  Name = ZINC25561011
REMARK  8 active torsions:
REMARK  status: ('A' for Active; 'I' for Inactive)
REMARK    1  A    between atoms: C_1  and  C_2
REMARK    2  A    between atoms: C_2  and  C_3
REMARK    3  A    between atoms: C_3  and  C_5
REMARK    4  A    between atoms: C_3  and  N_12
REMARK    5  A    between atoms: C_13  and  C_15
REMARK    6  A    between atoms: C_15  and  N_16
REMARK    7  A    between atoms: N_19  and  S_22
REMARK    8  A    between atoms: S_22  and  C_25
REMARK                            x       y       z     vdW  Elec       q    Type
REMARK                         _______ _______ _______ _____ _____    ______ ____
ROOT
ATOM      1  N   UNL     1      -0.895   3.043   1.186  0.00  0.00    +0.387 N 
ATOM      2  C   UNL     1      -0.738   1.584   1.263  0.00  0.00    -0.061 C 
ATOM      3  C   UNL     1      -0.013   1.086   0.008  0.00  0.00    +0.091 C 
ATOM      4  N   UNL     1      -0.732   1.577  -1.178  0.00  0.00    -0.180 NA
ATOM      5  C   UNL     1      -1.043   3.012  -1.258  0.00  0.00    +0.091 C 
ATOM      6  C   UNL     1      -1.732   3.434   0.044  0.00  0.00    -0.061 C 
ATOM      7  H   UNL     1       0.104   3.478   1.030  0.00  0.00    -0.081 HD
ENDROOT
BRANCH   4   8
ATOM      8  S   UNL     1      -1.178   0.541  -2.390  0.00  0.00    +0.061 S 
ATOM      9  O   UNL     1      -1.315   1.327  -3.566  0.00  0.00    -0.153 OA
ATOM     10  O   UNL     1      -0.298  -0.573  -2.317  0.00  0.00    -0.153 OA
BRANCH   8  11
ATOM     11  C   UNL     1      -2.786  -0.060  -1.996  0.00  0.00    +0.105 A 
ATOM     12  C   UNL     1      -2.929  -1.213  -1.246  0.00  0.00    +0.028 A 
ATOM     13  C   UNL     1      -4.191  -1.682  -0.932  0.00  0.00    +0.002 A 
ATOM     14  C   UNL     1      -5.310  -1.004  -1.377  0.00  0.00    +0.000 A 
ATOM     15  C   UNL     1      -5.168   0.145  -2.132  0.00  0.00    +0.002 A 
ATOM     16  C   UNL     1      -3.906   0.617  -2.441  0.00  0.00    +0.028 A 
ENDBRANCH   8  11
ENDBRANCH   4   8
BRANCH   1  17
ATOM     17  C   UNL     1      -1.434   3.580   2.443  0.00  0.00    +0.019 C 
BRANCH  17  19
ATOM     18  N   UNL     1      -0.713   3.789   4.800  0.00  0.00    -0.310 N 
ATOM     19  C   UNL     1      -0.432   3.373   3.549  0.00  0.00    +0.197 C 
ATOM     20  O   UNL     1       0.627   2.831   3.314  0.00  0.00    -0.278 OA
ATOM     21  H   UNL     1      -1.673   4.281   5.013  0.00  0.00    +0.149 HD
BRANCH  18  22
ATOM     22  C   UNL     1       0.261   3.588   5.875  0.00  0.00    +0.103 C 
BRANCH  22  23
ATOM     23  C   UNL     1       0.037   4.614   6.955  0.00  0.00    -0.027 A 
ATOM     24  C   UNL     1      -1.250   4.966   7.318  0.00  0.00    +0.007 A 
ATOM     25  C   UNL     1      -1.456   5.904   8.312  0.00  0.00    +0.020 A 
ATOM     26  C   UNL     1      -0.374   6.499   8.937  0.00  0.00    +0.041 A 
ATOM     27  C   UNL     1       0.913   6.150   8.569  0.00  0.00    +0.020 A 
ATOM     28  C   UNL     1       1.118   5.209   7.579  0.00  0.00    +0.007 A 
ATOM     29 CL   UNL     1      -0.633   7.682  10.180  0.00  0.00    -0.084 Cl
ENDBRANCH  22  23
BRANCH  22  31
ATOM     30  C   UNL     1       0.439   1.142   5.398  0.00  0.00    +0.006 C 
ATOM     31  C   UNL     1       0.090   2.185   6.462  0.00  0.00    +0.024 C 
ENDBRANCH  22  31
ENDBRANCH  18  22
ENDBRANCH  17  19
ENDBRANCH   1  17
TORSDOF 7
