REMARK  Name = ZINC66505307
REMARK  9 active torsions:
REMARK  status: ('A' for Active; 'I' for Inactive)
REMARK    1  A    between atoms: C_1  and  C_2
REMARK    2  A    between atoms: C_5  and  C_24
REMARK    3  A    between atoms: C_6  and  O_8
REMARK    4  A    between atoms: O_8  and  C_9
REMARK    5  A    between atoms: C_9  and  C_11
REMARK    6  A    between atoms: C_14  and  N_18
REMARK    7  A    between atoms: C_15  and  C_17
REMARK    8  A    between atoms: C_24  and  O_26
REMARK    9  A    between atoms: O_26  and  C_27
REMARK                            x       y       z     vdW  Elec       q    Type
REMARK                         _______ _______ _______ _____ _____    ______ ____
ROOT
ATOM      1  C   UNL     1       0.150  -2.057   3.511  0.00  0.00    +0.344 C 
ATOM      2  O   UNL     1       0.133  -0.843   3.477  0.00  0.00    -0.245 OA
ENDROOT
BRANCH   1   3
ATOM      3  C   UNL     1       0.281  -2.756   4.803  0.00  0.00    +0.060 A 
ATOM      4  C   UNL     1       0.307  -4.154   4.844  0.00  0.00    +0.017 A 
ATOM      5  C   UNL     1       0.429  -4.803   6.051  0.00  0.00    +0.024 A 
ATOM      6  C   UNL     1       0.526  -4.070   7.230  0.00  0.00    +0.041 A 
ATOM      7  C   UNL     1       0.501  -2.679   7.193  0.00  0.00    -0.028 A 
ATOM      8  C   UNL     1       0.385  -2.023   5.989  0.00  0.00    +0.020 A 
ATOM      9  C   UNL     1       0.606  -1.891   8.473  0.00  0.00    +0.046 C 
BRANCH   6  10
ATOM     10  N   UNL     1       0.649  -4.731   8.451  0.00  0.00    -0.254 N 
ATOM     11  C   UNL     1      -0.469  -5.159   9.305  0.00  0.00    +0.134 C 
ATOM     12  C   UNL     1       0.221  -5.827  10.510  0.00  0.00    +0.125 C 
ATOM     13  N   UNL     1       1.655  -5.705  10.207  0.00  0.00    -0.297 N 
ATOM     14  C   UNL     1       1.805  -5.082   9.031  0.00  0.00    +0.307 C 
ATOM     15  O   UNL     1       2.891  -4.854   8.536  0.00  0.00    -0.252 OA
ATOM     16  H   UNL     1       2.377  -6.028  10.769  0.00  0.00    +0.150 HD
ENDBRANCH   6  10
ENDBRANCH   1   3
BRANCH   1  17
ATOM     17  O   UNL     1       0.050  -2.765   2.369  0.00  0.00    -0.422 OA
BRANCH  17  23
ATOM     18  C   UNL     1      -2.488  -0.630  -1.206  0.00  0.00    +0.044 C 
ATOM     19  C   UNL     1      -1.176  -1.024  -0.580  0.00  0.00    -0.047 A 
ATOM     20  C   UNL     1       0.014  -0.689  -1.206  0.00  0.00    +0.004 A 
ATOM     21  C   UNL     1       1.220  -1.045  -0.643  0.00  0.00    +0.019 A 
ATOM     22  C   UNL     1       1.245  -1.747   0.565  0.00  0.00    +0.101 A 
ATOM     23  C   UNL     1       0.039  -2.084   1.196  0.00  0.00    +0.146 A 
ATOM     24  C   UNL     1      -1.165  -1.713   0.617  0.00  0.00    +0.050 A 
BRANCH  22  25
ATOM     25  C   UNL     1       2.532  -2.131   1.173  0.00  0.00    +0.343 C 
ATOM     26  O   UNL     1       2.550  -2.741   2.224  0.00  0.00    -0.245 OA
BRANCH  25  27
ATOM     27  O   UNL     1       3.689  -1.806   0.564  0.00  0.00    -0.464 OA
ATOM     28  C   UNL     1       4.898  -2.210   1.210  0.00  0.00    +0.280 C 
ENDBRANCH  25  27
ENDBRANCH  22  25
ENDBRANCH  17  23
ENDBRANCH   1  17
TORSDOF 6
