REMARK  Name = ZINC08600052
REMARK  5 active torsions:
REMARK  status: ('A' for Active; 'I' for Inactive)
REMARK    1  A    between atoms: C_4  and  N_7
REMARK    2  A    between atoms: N_18  and  C_20
REMARK    3  A    between atoms: C_20  and  C_21
REMARK    4  A    between atoms: C_24  and  C_26
REMARK    5  A    between atoms: N_28  and  C_29
REMARK                            x       y       z     vdW  Elec       q    Type
REMARK                         _______ _______ _______ _____ _____    ______ ____
ROOT
ATOM      1  N   UNL     1       3.697  -0.613   2.424  0.00  0.00    -0.327 N 
ATOM      2  C   UNL     1       3.733  -2.079   2.529  0.00  0.00    +0.124 C 
ATOM      3  C   UNL     1       4.500  -2.638   1.324  0.00  0.00    +0.125 C 
ATOM      4  N   UNL     1       5.767  -1.906   1.193  0.00  0.00    -0.311 N 
ATOM      5  C   UNL     1       5.732  -0.441   1.088  0.00  0.00    +0.125 C 
ATOM      6  C   UNL     1       4.965   0.118   2.287  0.00  0.00    +0.124 C 
ATOM      7  C   UNL     1       6.982  -2.590   1.169  0.00  0.00    +0.142 A 
ATOM      8  C   UNL     1       6.992  -3.998   1.155  0.00  0.00    +0.051 A 
ATOM      9  C   UNL     1       8.177  -4.664   1.131  0.00  0.00    +0.075 A 
ATOM     10  C   UNL     1       9.381  -3.930   1.123  0.00  0.00    +0.268 A 
ATOM     11  O   UNL     1      10.455  -4.511   1.102  0.00  0.00    -0.266 OA
ATOM     12  N   UNL     1       9.338  -2.583   1.137  0.00  0.00    -0.220 N 
ATOM     13  N   UNL     1       8.107  -1.917   1.155  0.00  0.00    -0.153 NA
ENDROOT
BRANCH   1  17
ATOM     14  C   UNL     1       0.069   1.429   2.493  0.00  0.00    +0.000 A 
ATOM     15  C   UNL     1       1.258   2.135   2.475  0.00  0.00    +0.002 A 
ATOM     16  C   UNL     1       2.463   1.461   2.452  0.00  0.00    +0.023 A 
ATOM     17  C   UNL     1       2.480   0.072   2.447  0.00  0.00    +0.030 A 
ATOM     18  C   UNL     1       1.284  -0.634   2.466  0.00  0.00    +0.023 A 
ATOM     19  C   UNL     1       0.083   0.046   2.489  0.00  0.00    +0.002 A 
ENDBRANCH   1  17
BRANCH  12  20
ATOM     20  C   UNL     1      10.585  -1.813   1.129  0.00  0.00    +0.221 C 
BRANCH  20  21
ATOM     21  C   UNL     1      10.993  -1.535  -0.295  0.00  0.00    +0.127 A 
ATOM     22  C   UNL     1      10.634  -0.452  -1.019  0.00  0.00    +0.047 A 
ATOM     23  C   UNL     1      11.227  -0.585  -2.284  0.00  0.00    +0.055 A 
ATOM     24  C   UNL     1      11.928  -1.758  -2.268  0.00  0.00    +0.190 A 
ATOM     25  O   UNL     1      11.777  -2.316  -1.049  0.00  0.00    -0.453 OA
BRANCH  24  26
ATOM     26  C   UNL     1      12.710  -2.310  -3.378  0.00  0.00    +0.284 C 
ATOM     27  O   UNL     1      12.775  -1.709  -4.434  0.00  0.00    -0.266 OA
ATOM     28  N   UNL     1      13.357  -3.483  -3.229  0.00  0.00    -0.277 N 
ATOM     29  H   UNL     1      13.240  -4.001  -2.417  0.00  0.00    +0.155 HD
BRANCH  28  30
ATOM     30  C   UNL     1      14.198  -3.952  -4.244  0.00  0.00    +0.069 A 
ATOM     31  C   UNL     1      14.779  -3.059  -5.135  0.00  0.00    +0.026 A 
ATOM     32  C   UNL     1      15.609  -3.526  -6.136  0.00  0.00    +0.002 A 
ATOM     33  C   UNL     1      15.862  -4.880  -6.252  0.00  0.00    +0.003 A 
ATOM     34  C   UNL     1      15.286  -5.773  -5.368  0.00  0.00    +0.040 A 
ATOM     35  C   UNL     1      14.458  -5.313  -4.360  0.00  0.00    +0.144 A 
ATOM     36  F   UNL     1      13.900  -6.185  -3.492  0.00  0.00    -0.204 F 
ENDBRANCH  28  30
ENDBRANCH  24  26
ENDBRANCH  20  21
ENDBRANCH  12  20
TORSDOF 5
