REMARK  Name = ZINC01876719
REMARK  5 active torsions:
REMARK  status: ('A' for Active; 'I' for Inactive)
REMARK    1  A    between atoms: C_1  and  C_2
REMARK    2  A    between atoms: N_5  and  C_7
REMARK    3  A    between atoms: C_24  and  C_26
REMARK    4  A    between atoms: C_30  and  N_32
REMARK    5  A    between atoms: N_35  and  C_36
REMARK                            x       y       z     vdW  Elec       q    Type
REMARK                         _______ _______ _______ _____ _____    ______ ____
ROOT
ATOM      1  C   UNL     1       0.165   1.534  -0.057  0.00  0.00    +0.068 C 
ATOM      2  C   UNL     1       0.061   0.031  -0.055  0.00  0.00    +0.068 A 
ATOM      3  C   UNL     1       0.134  -0.787  -1.173  0.00  0.00    +0.044 A 
ATOM      4  C   UNL     1      -0.004  -2.101  -0.758  0.00  0.00    +0.164 A 
ATOM      5  N   UNL     1      -0.160  -2.065   0.602  0.00  0.00    -0.214 N 
ATOM      6  N   UNL     1      -0.108  -0.724   1.004  0.00  0.00    -0.169 NA
ATOM      7  N   UNL     1       0.029  -3.115  -1.650  0.00  0.00    -0.209 NA
ATOM      8  C   UNL     1       0.188  -2.962  -2.941  0.00  0.00    +0.169 C 
ATOM      9  C   UNL     1       0.209  -4.144  -3.824  0.00  0.00    +0.164 C 
ATOM     10  N   UNL     1       0.367  -3.995  -5.115  0.00  0.00    -0.227 NA
ATOM     11  C   UNL     1       0.517  -2.769  -5.678  0.00  0.00    +0.087 A 
ATOM     12  C   UNL     1       0.684  -2.651  -7.064  0.00  0.00    +0.030 A 
ATOM     13  C   UNL     1       0.835  -1.408  -7.634  0.00  0.00    +0.002 A 
ATOM     14  C   UNL     1       0.822  -0.267  -6.846  0.00  0.00    +0.002 A 
ATOM     15  C   UNL     1       0.658  -0.364  -5.479  0.00  0.00    +0.025 A 
ATOM     16  C   UNL     1       0.505  -1.609  -4.883  0.00  0.00    +0.062 A 
ATOM     17  N   UNL     1       0.340  -1.719  -3.515  0.00  0.00    -0.269 N 
ATOM     18  C   UNL     1       0.323  -0.530  -2.652  0.00  0.00    +0.146 C 
ATOM     19  N   UNL     1       0.060  -5.409  -3.287  0.00  0.00    -0.297 N 
ATOM     20  H   UNL     1       0.022  -5.527  -2.325  0.00  0.00    +0.154 HD
ENDROOT
BRANCH  19  21
ATOM     21  C   UNL     1      -0.035  -6.520  -4.131  0.00  0.00    +0.033 A 
ATOM     22  C   UNL     1       0.481  -7.745  -3.729  0.00  0.00    +0.025 A 
ATOM     23  C   UNL     1       0.386  -8.841  -4.565  0.00  0.00    +0.022 A 
ATOM     24  C   UNL     1      -0.223  -8.718  -5.801  0.00  0.00    +0.041 A 
ATOM     25  C   UNL     1      -0.737  -7.498  -6.205  0.00  0.00    +0.022 A 
ATOM     26  C   UNL     1      -0.649  -6.401  -5.371  0.00  0.00    +0.025 A 
ATOM     27 CL   UNL     1      -0.340 -10.097  -6.850  0.00  0.00    -0.084 Cl
ENDBRANCH  19  21
BRANCH   5  28
ATOM     28  C   UNL     1      -0.334  -3.171   1.442  0.00  0.00    +0.068 A 
ATOM     29  C   UNL     1      -1.050  -4.276   0.999  0.00  0.00    +0.028 A 
ATOM     30  C   UNL     1      -1.220  -5.365   1.830  0.00  0.00    +0.002 A 
ATOM     31  C   UNL     1      -0.679  -5.358   3.102  0.00  0.00    +0.000 A 
ATOM     32  C   UNL     1       0.035  -4.260   3.546  0.00  0.00    +0.002 A 
ATOM     33  C   UNL     1       0.214  -3.170   2.718  0.00  0.00    +0.028 A 
ENDBRANCH   5  28
BRANCH  18  34
ATOM     34  C   UNL     1      -0.790   0.373  -3.118  0.00  0.00    -0.020 A 
ATOM     35  C   UNL     1      -2.042  -0.152  -3.381  0.00  0.00    +0.006 A 
ATOM     36  C   UNL     1      -3.062   0.676  -3.809  0.00  0.00    +0.003 A 
ATOM     37  C   UNL     1      -2.832   2.029  -3.972  0.00  0.00    +0.033 A 
ATOM     38  C   UNL     1      -1.581   2.554  -3.707  0.00  0.00    +0.127 A 
ATOM     39  C   UNL     1      -0.561   1.727  -3.276  0.00  0.00    +0.038 A 
BRANCH  38  40
ATOM     40  N   UNL     1      -1.335   4.003  -3.882  0.00  0.00    +0.056 N 
ATOM     41  O   UNL     1      -2.228   4.728  -4.257  0.00  0.00    -0.126 OA
ATOM     42  O   UNL     1      -0.241   4.463  -3.650  0.00  0.00    -0.126 OA
ENDBRANCH  38  40
ENDBRANCH  18  34
TORSDOF 4
