REMARK  Name = ZINC64491160
REMARK  11 active torsions:
REMARK  status: ('A' for Active; 'I' for Inactive)
REMARK    1  A    between atoms: C_1  and  C_2
REMARK    2  A    between atoms: C_7  and  C_12
REMARK    3  A    between atoms: C_12  and  C_13
REMARK    4  A    between atoms: C_13  and  C_14
REMARK    5  A    between atoms: C_17  and  N_20
REMARK    6  A    between atoms: C_21  and  C_23
REMARK    7  A    between atoms: C_23  and  N_24
REMARK    8  A    between atoms: C_27  and  C_35
REMARK    9  A    between atoms: C_35  and  C_36
REMARK   10  A    between atoms: C_35  and  C_37
REMARK   11  A    between atoms: C_35  and  C_38
REMARK                            x       y       z     vdW  Elec       q    Type
REMARK                         _______ _______ _______ _____ _____    ______ ____
ROOT
ATOM      1  C   UNL     1      -2.319  -7.330   1.788  0.00  0.00    -0.047 A 
ATOM      2  C   UNL     1      -3.171  -7.848   0.830  0.00  0.00    +0.005 A 
ATOM      3  C   UNL     1      -4.294  -8.555   1.212  0.00  0.00    +0.023 A 
ATOM      4  C   UNL     1      -4.567  -8.746   2.560  0.00  0.00    +0.033 A 
ATOM      5  C   UNL     1      -3.709  -8.225   3.520  0.00  0.00    +0.023 A 
ATOM      6  C   UNL     1      -2.585  -7.522   3.131  0.00  0.00    +0.005 A 
ENDROOT
BRANCH   4   7
ATOM      7  N   UNL     1      -5.704  -9.461   2.951  0.00  0.00    -0.284 N 
ATOM      8  C   UNL     1      -6.840  -9.368   2.230  0.00  0.00    +0.235 C 
ATOM      9  O   UNL     1      -6.852  -8.732   1.198  0.00  0.00    -0.274 OA
ATOM     10  H   UNL     1      -5.676 -10.024   3.740  0.00  0.00    +0.155 HD
BRANCH   8  11
ATOM     11  C   UNL     1      -8.093 -10.055   2.707  0.00  0.00    +0.209 C 
BRANCH  11  12
ATOM     12  N   UNL     1      -9.180  -9.803   1.757  0.00  0.00    -0.257 N 
ATOM     13  C   UNL     1     -10.013  -8.686   1.907  0.00  0.00    +0.079 A 
ATOM     14  C   UNL     1      -9.650  -7.639   2.739  0.00  0.00    +0.031 A 
ATOM     15  C   UNL     1     -10.487  -6.546   2.874  0.00  0.00    -0.040 A 
ATOM     16  C   UNL     1     -11.682  -6.496   2.182  0.00  0.00    +0.008 A 
ATOM     17  C   UNL     1     -12.050  -7.538   1.349  0.00  0.00    +0.048 A 
ATOM     18  C   UNL     1     -11.218  -8.634   1.208  0.00  0.00    +0.143 A 
ATOM     19  O   UNL     1     -11.561  -9.666   0.391  0.00  0.00    -0.481 OA
ATOM     20  C   UNL     1     -10.491 -10.348  -0.268  0.00  0.00    +0.325 C 
ATOM     21  C   UNL     1      -9.390 -10.642   0.719  0.00  0.00    +0.258 C 
ATOM     22  O   UNL     1      -8.698 -11.629   0.584  0.00  0.00    -0.271 OA
BRANCH  15  23
ATOM     23  C   UNL     1     -10.094  -5.407   3.779  0.00  0.00    -0.013 C 
ATOM     24  C   UNL     1      -8.773  -4.805   3.297  0.00  0.00    +0.015 C 
ATOM     25  C   UNL     1     -11.184  -4.334   3.750  0.00  0.00    +0.015 C 
ATOM     26  C   UNL     1      -9.928  -5.926   5.209  0.00  0.00    +0.015 C 
ENDBRANCH  15  23
ENDBRANCH  11  12
ENDBRANCH   8  11
ENDBRANCH   4   7
BRANCH   1  27
ATOM     27  C   UNL     1      -1.094  -6.559   1.367  0.00  0.00    +0.039 C 
BRANCH  27  28
ATOM     28  C   UNL     1       0.083  -7.522   1.200  0.00  0.00    +0.051 C 
BRANCH  28  35
ATOM     29  C   UNL     1       6.897  -7.929   2.767  0.00  0.00    +0.044 C 
ATOM     30  C   UNL     1       5.524  -7.351   2.544  0.00  0.00    -0.048 A 
ATOM     31  C   UNL     1       5.112  -6.265   3.337  0.00  0.00    +0.005 A 
ATOM     32  C   UNL     1       3.902  -5.686   3.205  0.00  0.00    +0.027 A 
ATOM     33  C   UNL     1       2.961  -6.196   2.198  0.00  0.00    +0.060 A 
ATOM     34  N   UNL     1       1.755  -5.845   1.856  0.00  0.00    -0.363 N 
ATOM     35  C   UNL     1       1.326  -6.740   0.773  0.00  0.00    +0.174 C 
ATOM     36  N   UNL     1       2.444  -7.661   0.530  0.00  0.00    -0.363 N 
ATOM     37  C   UNL     1       3.397  -7.346   1.359  0.00  0.00    +0.060 A 
ATOM     38  C   UNL     1       4.741  -7.891   1.589  0.00  0.00    +0.030 A 
ATOM     39  H   UNL     1       1.235  -5.125   2.245  0.00  0.00    +0.162 HD
ATOM     40  H   UNL     1       2.467  -8.373  -0.128  0.00  0.00    +0.162 HD
ENDBRANCH  28  35
ENDBRANCH  27  28
ENDBRANCH   1  27
TORSDOF 7
