REMARK  Name = ZINC17307577
REMARK  9 active torsions:
REMARK  status: ('A' for Active; 'I' for Inactive)
REMARK    1  A    between atoms: C_1  and  C_2
REMARK    2  A    between atoms: C_2  and  O_3
REMARK    3  A    between atoms: O_3  and  C_4
REMARK    4  A    between atoms: C_7  and  C_10
REMARK    5  A    between atoms: C_17  and  S_30
REMARK    6  A    between atoms: C_26  and  C_28
REMARK    7  A    between atoms: C_26  and  C_29
REMARK    8  A    between atoms: S_30  and  C_31
REMARK    9  A    between atoms: C_31  and  C_32
REMARK                            x       y       z     vdW  Elec       q    Type
REMARK                         _______ _______ _______ _____ _____    ______ ____
ROOT
ATOM      1  C   UNL     1      -2.530   1.168   0.038  0.00  0.00    +0.092 C 
ATOM      2  C   UNL     1      -1.228   1.913   0.018  0.00  0.00    +0.069 A 
ATOM      3  C   UNL     1      -0.015   1.217   0.009  0.00  0.00    +0.258 A 
ATOM      4  O   UNL     1       0.002  -0.004   0.002  0.00  0.00    -0.267 OA
ATOM      5  N   UNL     1       1.138   1.920   0.002  0.00  0.00    -0.302 N 
ATOM      6  H   UNL     1       1.989   1.455  -0.009  0.00  0.00    +0.171 HD
ATOM      7  C   UNL     1       1.107   3.282   0.010  0.00  0.00    +0.171 A 
ATOM      8  N   UNL     1      -0.033   3.942   0.022  0.00  0.00    -0.208 NA
ATOM      9  C   UNL     1      -1.204   3.297   0.028  0.00  0.00    +0.135 A 
ATOM     10  N   UNL     1      -2.392   4.002   0.035  0.00  0.00    -0.302 N 
ATOM     11  C   UNL     1      -3.561   3.403  -0.347  0.00  0.00    +0.017 C 
ATOM     12  C   UNL     1      -3.675   2.058  -0.374  0.00  0.00    +0.024 C 
ATOM     13  C   UNL     1      -4.871   1.442  -0.784  0.00  0.00    +0.162 C 
ATOM     14  O   UNL     1      -4.944   0.229  -0.788  0.00  0.00    -0.292 OA
ATOM     15  C   UNL     1      -6.061   2.253  -1.217  0.00  0.00    +0.086 C 
ATOM     16  C   UNL     1      -5.573   3.586  -1.793  0.00  0.00    -0.023 C 
ATOM     17  C   UNL     1      -4.721   4.288  -0.734  0.00  0.00    +0.058 C 
ATOM     18  C   UNL     1      -4.729   3.328  -3.043  0.00  0.00    +0.011 C 
ATOM     19  C   UNL     1      -6.775   4.460  -2.156  0.00  0.00    +0.011 C 
ATOM     20  H   UNL     1      -2.397   4.931   0.315  0.00  0.00    +0.153 HD
ENDROOT
BRANCH   1  24
ATOM     21  C   UNL     1      -3.251  -0.304   3.984  0.00  0.00    +0.121 A 
ATOM     22  C   UNL     1      -3.112  -1.191   2.927  0.00  0.00    +0.046 A 
ATOM     23  C   UNL     1      -2.879  -0.712   1.652  0.00  0.00    +0.008 A 
ATOM     24  C   UNL     1      -2.784   0.649   1.429  0.00  0.00    -0.035 A 
ATOM     25  C   UNL     1      -2.916   1.535   2.483  0.00  0.00    +0.008 A 
ATOM     26  C   UNL     1      -3.155   1.062   3.759  0.00  0.00    +0.046 A 
BRANCH  21  27
ATOM     27  O   UNL     1      -3.479  -0.772   5.240  0.00  0.00    -0.492 OA
BRANCH  27  29
ATOM     28  C   UNL     1      -3.862  -0.512   7.611  0.00  0.00    +0.048 C 
ATOM     29  C   UNL     1      -3.611   0.199   6.280  0.00  0.00    +0.225 C 
ENDBRANCH  27  29
ENDBRANCH  21  27
ENDBRANCH   1  24
BRANCH   7  30
ATOM     30  S   UNL     1       2.624   4.179   0.004  0.00  0.00    -0.083 S 
BRANCH  30  31
ATOM     31  C   UNL     1       1.987   5.873   0.018  0.00  0.00    +0.115 C 
BRANCH  31  32
ATOM     32  C   UNL     1       3.140   6.843   0.016  0.00  0.00    -0.002 A 
ATOM     33  C   UNL     1       3.675   7.285   1.211  0.00  0.00    +0.007 A 
ATOM     34  C   UNL     1       4.736   8.171   1.209  0.00  0.00    +0.000 A 
ATOM     35  C   UNL     1       5.258   8.624   0.011  0.00  0.00    +0.003 A 
ATOM     36  C   UNL     1       4.722   8.187  -1.185  0.00  0.00    +0.038 A 
ATOM     37  C   UNL     1       3.662   7.296  -1.184  0.00  0.00    +0.127 A 
ATOM     38  F   UNL     1       3.137   6.869  -2.353  0.00  0.00    -0.205 F 
ENDBRANCH  31  32
ENDBRANCH  30  31
ENDBRANCH   7  30
TORSDOF 6
