REMARK  Name = ZINC13757067
REMARK  11 active torsions:
REMARK  status: ('A' for Active; 'I' for Inactive)
REMARK    1  A    between atoms: C_1  and  C_2
REMARK    2  A    between atoms: C_5  and  C_7
REMARK    3  A    between atoms: C_5  and  O_13
REMARK    4  A    between atoms: C_14  and  C_16
REMARK    5  A    between atoms: C_16  and  C_17
REMARK    6  A    between atoms: C_17  and  C_18
REMARK    7  A    between atoms: C_18  and  C_19
REMARK    8  A    between atoms: C_19  and  C_20
REMARK    9  A    between atoms: C_23  and  C_28
REMARK   10  A    between atoms: C_23  and  O_34
REMARK   11  A    between atoms: C_25  and  C_27
REMARK                            x       y       z     vdW  Elec       q    Type
REMARK                         _______ _______ _______ _____ _____    ______ ____
ROOT
ATOM      1  C   UNL     1       0.040  -3.979  -4.035  0.00  0.00    +0.010 C 
ENDROOT
BRANCH   1   2
ATOM      2  C   UNL     1       0.026  -2.703  -3.190  0.00  0.00    +0.098 C 
BRANCH   2   9
ATOM      3  C   UNL     1      -0.018   1.503   0.010  0.00  0.00    +0.062 C 
ATOM      4  C   UNL     1       0.002  -0.004   0.002  0.00  0.00    +0.039 C 
ATOM      5  N   UNL     1       0.008  -0.729  -1.041  0.00  0.00    -0.184 NA
ATOM      6  N   UNL     1       0.028  -2.099  -0.791  0.00  0.00    -0.157 N 
ATOM      7  C   UNL     1       0.038  -2.314   0.665  0.00  0.00    +0.187 C 
ATOM      8  C   UNL     1       0.026  -0.880   1.234  0.00  0.00    +0.114 C 
ATOM      9  C   UNL     1       0.037  -3.068  -1.728  0.00  0.00    +0.238 C 
ATOM     10  O   UNL     1       0.055  -4.234  -1.394  0.00  0.00    -0.274 OA
BRANCH   7  11
ATOM     11  C   UNL     1      -1.190  -3.073   1.099  0.00  0.00    +0.004 A 
ATOM     12  C   UNL     1      -1.176  -3.792   2.280  0.00  0.00    +0.008 A 
ATOM     13  C   UNL     1      -2.302  -4.489   2.678  0.00  0.00    +0.000 A 
ATOM     14  C   UNL     1      -3.442  -4.466   1.895  0.00  0.00    +0.000 A 
ATOM     15  C   UNL     1      -3.455  -3.746   0.715  0.00  0.00    +0.000 A 
ATOM     16  C   UNL     1      -2.331  -3.046   0.319  0.00  0.00    +0.008 A 
ENDBRANCH   7  11
BRANCH   7  17
ATOM     17  O   UNL     1       1.225  -3.001   1.066  0.00  0.00    -0.366 OA
ATOM     18  H   UNL     1       1.321  -3.881   0.677  0.00  0.00    +0.212 HD
ENDBRANCH   7  17
ENDBRANCH   2   9
ENDBRANCH   1   2
BRANCH   1  19
ATOM     19  C   UNL     1       0.029  -3.608  -5.519  0.00  0.00    +0.010 C 
BRANCH  19  20
ATOM     20  C   UNL     1       0.043  -4.884  -6.363  0.00  0.00    +0.098 C 
BRANCH  20  21
ATOM     21  C   UNL     1       0.032  -4.518  -7.825  0.00  0.00    +0.238 C 
ATOM     22  O   UNL     1       0.014  -3.352  -8.159  0.00  0.00    -0.274 OA
ATOM     23  N   UNL     1       0.041  -5.487  -8.762  0.00  0.00    -0.157 N 
ATOM     24  C   UNL     1       0.038  -5.273 -10.219  0.00  0.00    +0.187 C 
ATOM     25  C   UNL     1       0.053  -6.706 -10.787  0.00  0.00    +0.114 C 
ATOM     26  C   UNL     1       0.063  -7.583  -9.555  0.00  0.00    +0.039 C 
ATOM     27  N   UNL     1       0.062  -6.858  -8.513  0.00  0.00    -0.184 NA
ATOM     28  C   UNL     1       0.077  -9.090  -9.563  0.00  0.00    +0.062 C 
BRANCH  24  29
ATOM     29  C   UNL     1       1.270  -4.518 -10.648  0.00  0.00    +0.004 A 
ATOM     30  C   UNL     1       1.229  -3.708 -11.767  0.00  0.00    +0.008 A 
ATOM     31  C   UNL     1       2.359  -3.015 -12.160  0.00  0.00    +0.000 A 
ATOM     32  C   UNL     1       3.530  -3.133 -11.435  0.00  0.00    +0.000 A 
ATOM     33  C   UNL     1       3.570  -3.943 -10.315  0.00  0.00    +0.000 A 
ATOM     34  C   UNL     1       2.439  -4.632  -9.919  0.00  0.00    +0.008 A 
ENDBRANCH  24  29
BRANCH  24  35
ATOM     35  O   UNL     1      -1.145  -4.582 -10.624  0.00  0.00    -0.366 OA
ATOM     36  H   UNL     1      -1.239  -3.701 -10.235  0.00  0.00    +0.212 HD
ENDBRANCH  24  35
ENDBRANCH  20  21
ENDBRANCH  19  20
ENDBRANCH   1  19
TORSDOF 9
