REMARK  Name = ZINC36052093
REMARK  9 active torsions:
REMARK  status: ('A' for Active; 'I' for Inactive)
REMARK    1  A    between atoms: C_1  and  C_2
REMARK    2  A    between atoms: C_7  and  C_8
REMARK    3  A    between atoms: N_10  and  C_11
REMARK    4  A    between atoms: N_10  and  C_17
REMARK    5  A    between atoms: C_11  and  C_12
REMARK    6  A    between atoms: C_17  and  C_18
REMARK    7  A    between atoms: C_23  and  C_34
REMARK    8  A    between atoms: N_25  and  C_26
REMARK    9  A    between atoms: C_29  and  C_33
REMARK                            x       y       z     vdW  Elec       q    Type
REMARK                         _______ _______ _______ _____ _____    ______ ____
ROOT
ATOM      1  C   UNL     1      -1.129  -0.325   5.524  0.00  0.00    +0.237 C 
ATOM      2  O   UNL     1      -2.005  -0.827   4.852  0.00  0.00    -0.274 OA
ATOM      3  N   UNL     1      -1.420   0.191   6.735  0.00  0.00    -0.254 N 
ATOM      4  C   UNL     1      -2.723   0.146   7.213  0.00  0.00    +0.207 A 
ATOM      5  N   UNL     1      -3.749  -0.373   6.586  0.00  0.00    -0.214 NA
ATOM      6  C   UNL     1      -4.854  -0.237   7.351  0.00  0.00    +0.091 A 
ATOM      7  C   UNL     1      -4.495   0.392   8.499  0.00  0.00    +0.122 A 
ATOM      8  N   UNL     1      -3.145   0.630   8.416  0.00  0.00    -0.287 N 
ATOM      9  H   UNL     1      -0.720   0.592   7.272  0.00  0.00    +0.158 HD
ENDROOT
BRANCH   8  10
ATOM     10  C   UNL     1      -2.350   1.256   9.386  0.00  0.00    +0.052 A 
ATOM     11  C   UNL     1      -1.162   0.667   9.799  0.00  0.00    +0.026 A 
ATOM     12  C   UNL     1      -0.380   1.285  10.754  0.00  0.00    +0.008 A 
ATOM     13  C   UNL     1      -0.777   2.491  11.301  0.00  0.00    -0.015 A 
ATOM     14  C   UNL     1      -1.961   3.083  10.892  0.00  0.00    +0.128 A 
ATOM     15  C   UNL     1      -2.745   2.470   9.931  0.00  0.00    +0.064 A 
ATOM     16  F   UNL     1      -2.347   4.261  11.428  0.00  0.00    -0.205 F 
ATOM     17  C   UNL     1       0.079   3.163  12.343  0.00  0.00    +0.047 C 
ENDBRANCH   8  10
BRANCH   6  18
ATOM     18  C   UNL     1      -6.220  -0.696   6.998  0.00  0.00    +0.002 A 
ATOM     19  C   UNL     1      -7.277  -0.486   7.881  0.00  0.00    +0.010 A 
ATOM     20  C   UNL     1      -8.546  -0.915   7.548  0.00  0.00    +0.001 A 
ATOM     21  C   UNL     1      -8.769  -1.552   6.340  0.00  0.00    +0.000 A 
ATOM     22  C   UNL     1      -7.723  -1.762   5.460  0.00  0.00    +0.001 A 
ATOM     23  C   UNL     1      -6.451  -1.332   5.780  0.00  0.00    +0.010 A 
ENDBRANCH   6  18
BRANCH   1  24
ATOM     24  C   UNL     1       0.285  -0.276   5.005  0.00  0.00    +0.204 C 
BRANCH  24  27
ATOM     25  C   UNL     1       0.148  -0.145   2.575  0.00  0.00    +0.248 C 
ATOM     26  O   UNL     1       0.035   1.061   2.674  0.00  0.00    -0.270 OA
ATOM     27  N   UNL     1       0.340  -0.896   3.678  0.00  0.00    -0.281 N 
BRANCH  25  34
ATOM     28  C   UNL     1       1.915   0.737   0.461  0.00  0.00    +0.044 C 
ATOM     29  C   UNL     1       0.924  -0.371   0.219  0.00  0.00    -0.038 A 
ATOM     30  C   UNL     1       0.855  -0.980  -1.018  0.00  0.00    +0.004 A 
ATOM     31  C   UNL     1      -0.055  -1.998  -1.241  0.00  0.00    +0.000 A 
ATOM     32  C   UNL     1      -0.902  -2.412  -0.229  0.00  0.00    +0.001 A 
ATOM     33  C   UNL     1      -0.843  -1.812   1.012  0.00  0.00    +0.013 A 
ATOM     34  C   UNL     1       0.076  -0.788   1.246  0.00  0.00    +0.040 A 
ENDBRANCH  25  34
BRANCH  27  35
ATOM     35  C   UNL     1       0.602  -2.331   3.550  0.00  0.00    +0.182 C 
BRANCH  35  36
ATOM     36  C   UNL     1       2.073  -2.554   3.311  0.00  0.00    +0.122 A 
ATOM     37  C   UNL     1       3.005  -2.741   4.263  0.00  0.00    +0.046 A 
ATOM     38  C   UNL     1       4.242  -2.909   3.598  0.00  0.00    +0.041 A 
ATOM     39  C   UNL     1       3.991  -2.814   2.279  0.00  0.00    +0.195 A 
ATOM     40  O   UNL     1       2.675  -2.605   2.112  0.00  0.00    -0.466 OA
ENDBRANCH  35  36
ENDBRANCH  27  35
ENDBRANCH  24  27
ENDBRANCH   1  24
TORSDOF 7
