REMARK  Name = ZINC67032292
REMARK  10 active torsions:
REMARK  status: ('A' for Active; 'I' for Inactive)
REMARK    1  A    between atoms: C_1  and  C_2
REMARK    2  A    between atoms: C_2  and  C_3
REMARK    3  A    between atoms: C_2  and  C_4
REMARK    4  A    between atoms: C_2  and  C_22
REMARK    5  A    between atoms: C_4  and  C_5
REMARK    6  A    between atoms: N_7  and  C_8
REMARK    7  A    between atoms: C_8  and  C_9
REMARK    8  A    between atoms: C_9  and  O_10
REMARK    9  A    between atoms: O_10  and  C_11
REMARK   10  A    between atoms: C_15  and  C_18
REMARK                            x       y       z     vdW  Elec       q    Type
REMARK                         _______ _______ _______ _____ _____    ______ ____
ROOT
ATOM      1  C   UNL     1      -2.137  -0.052   1.255  0.00  0.00    +0.222 C 
ATOM      2  O   UNL     1      -1.548   0.646   2.053  0.00  0.00    -0.275 OA
ATOM      3  N   UNL     1      -3.422  -0.392   1.476  0.00  0.00    -0.254 N 
ATOM      4  C   UNL     1      -4.043  -0.030   2.671  0.00  0.00    +0.128 A 
ATOM      5  C   UNL     1      -4.802   1.133   2.729  0.00  0.00    +0.044 A 
ATOM      6  C   UNL     1      -5.413   1.480   3.921  0.00  0.00    +0.017 A 
ATOM      7  C   UNL     1      -5.242   0.648   5.019  0.00  0.00    +0.073 A 
ATOM      8  C   UNL     1      -4.474  -0.492   4.891  0.00  0.00    +0.125 A 
ATOM      9  N   UNL     1      -3.908  -0.801   3.739  0.00  0.00    -0.239 NA
ENDROOT
BRANCH   7  10
ATOM     10  C   UNL     1      -5.888   0.986   6.338  0.00  0.00    +0.419 C 
ATOM     11  F   UNL     1      -7.160   0.408   6.396  0.00  0.00    -0.166 F 
ATOM     12  F   UNL     1      -5.102   0.489   7.383  0.00  0.00    -0.166 F 
ATOM     13  F   UNL     1      -6.000   2.375   6.460  0.00  0.00    -0.166 F 
ENDBRANCH   7  10
BRANCH   1  14
ATOM     14  C   UNL     1      -1.432  -0.540   0.016  0.00  0.00    +0.107 C 
BRANCH  14  16
ATOM     15  C   UNL     1      -0.009   1.514   0.017  0.00  0.00    +0.016 C 
ATOM     16  C   UNL     1       0.006  -0.016   0.007  0.00  0.00    -0.002 C 
ATOM     17  C   UNL     1       0.742  -0.526   1.248  0.00  0.00    +0.016 C 
BRANCH  16  18
ATOM     18  C   UNL     1       0.711  -0.503  -1.232  0.00  0.00    -0.041 A 
ATOM     19  C   UNL     1       0.038  -1.294  -2.144  0.00  0.00    +0.004 A 
ATOM     20  C   UNL     1       0.685  -1.741  -3.281  0.00  0.00    +0.000 A 
ATOM     21  C   UNL     1       2.005  -1.397  -3.506  0.00  0.00    +0.000 A 
ATOM     22  C   UNL     1       2.678  -0.605  -2.594  0.00  0.00    +0.000 A 
ATOM     23  C   UNL     1       2.029  -0.155  -1.459  0.00  0.00    +0.004 A 
ENDBRANCH  16  18
ENDBRANCH  14  16
ENDBRANCH   1  14
BRANCH   3  24
ATOM     24  C   UNL     1      -4.167  -1.141   0.462  0.00  0.00    +0.143 C 
BRANCH  24  25
ATOM     25  C   UNL     1      -3.996  -2.641   0.707  0.00  0.00    +0.179 C 
BRANCH  25  26
ATOM     26  O   UNL     1      -4.599  -2.992   1.954  0.00  0.00    -0.381 OA
ATOM     27  C   UNL     1      -4.495  -4.379   2.280  0.00  0.00    +0.194 C 
ENDBRANCH  25  26
ENDBRANCH  24  25
ENDBRANCH   3  24
TORSDOF 7
