REMARK  Name = ZINC01493320
REMARK  10 active torsions:
REMARK  status: ('A' for Active; 'I' for Inactive)
REMARK    1  A    between atoms: C_1  and  C_2
REMARK    2  A    between atoms: C_2  and  C_3
REMARK    3  A    between atoms: C_2  and  C_4
REMARK    4  A    between atoms: C_2  and  C_5
REMARK    5  A    between atoms: C_7  and  C_16
REMARK    6  A    between atoms: C_9  and  C_12
REMARK    7  A    between atoms: C_10  and  O_11
REMARK    8  A    between atoms: C_12  and  C_13
REMARK    9  A    between atoms: C_12  and  C_14
REMARK   10  A    between atoms: C_12  and  C_15
REMARK                            x       y       z     vdW  Elec       q    Type
REMARK                         _______ _______ _______ _____ _____    ______ ____
ROOT
ATOM      1  C   UNL     1       1.913  -1.722   0.412  0.00  0.00    +0.000 A 
ATOM      2  C   UNL     1       1.617  -0.404   0.147  0.00  0.00    +0.015 A 
ATOM      3  C   UNL     1       0.303   0.059   0.291  0.00  0.00    -0.023 A 
ATOM      4  C   UNL     1      -0.702  -0.822   0.708  0.00  0.00    +0.015 A 
ATOM      5  C   UNL     1      -0.396  -2.139   0.964  0.00  0.00    +0.000 A 
ATOM      6  C   UNL     1       0.910  -2.593   0.820  0.00  0.00    +0.124 A 
ENDROOT
BRANCH   3   7
ATOM      7  C   UNL     1      -0.018   1.464   0.010  0.00  0.00    +0.028 C 
ATOM      8  C   UNL     1      -1.312   1.871  -0.024  0.00  0.00    +0.080 C 
ATOM      9  C   UNL     1      -1.868   3.236  -0.113  0.00  0.00    +0.258 C 
ATOM     10  O   UNL     1      -1.149   4.216  -0.169  0.00  0.00    -0.269 OA
ATOM     11  N   UNL     1      -3.187   3.339  -0.128  0.00  0.00    -0.243 N 
ATOM     12  C   UNL     1      -3.979   2.249  -0.065  0.00  0.00    +0.283 C 
ATOM     13  O   UNL     1      -5.194   2.198  -0.070  0.00  0.00    -0.262 OA
ATOM     14  S   UNL     1      -2.813   0.900   0.018  0.00  0.00    -0.026 S 
ATOM     15  H   UNL     1      -3.592   4.218  -0.186  0.00  0.00    +0.159 HD
ENDBRANCH   3   7
BRANCH   1  17
ATOM     16  C   UNL     1       4.227  -1.071  -0.198  0.00  0.00    +0.015 C 
ATOM     17  C   UNL     1       3.326  -2.221   0.258  0.00  0.00    -0.009 C 
ATOM     18  C   UNL     1       3.826  -2.758   1.601  0.00  0.00    +0.015 C 
ATOM     19  C   UNL     1       3.362  -3.341  -0.784  0.00  0.00    +0.015 C 
ENDBRANCH   1  17
BRANCH   5  20
ATOM     20  C   UNL     1      -1.478  -3.090   1.408  0.00  0.00    -0.009 C 
ATOM     21  C   UNL     1      -2.812  -2.344   1.486  0.00  0.00    +0.015 C 
ATOM     22  C   UNL     1      -1.593  -4.237   0.402  0.00  0.00    +0.015 C 
ATOM     23  C   UNL     1      -1.128  -3.654   2.786  0.00  0.00    +0.015 C 
ENDBRANCH   5  20
BRANCH   6  24
ATOM     24  O   UNL     1       1.207  -3.893   1.079  0.00  0.00    -0.506 OA
ATOM     25  H   UNL     1       1.458  -4.063   1.997  0.00  0.00    +0.292 HD
ENDBRANCH   6  24
TORSDOF 4
