REMARK  Name = ZINC65215109
REMARK  9 active torsions:
REMARK  status: ('A' for Active; 'I' for Inactive)
REMARK    1  A    between atoms: C_4  and  N_11
REMARK    2  A    between atoms: C_5  and  C_7
REMARK    3  A    between atoms: N_11  and  C_12
REMARK    4  A    between atoms: C_12  and  N_14
REMARK    5  A    between atoms: N_14  and  N_15
REMARK    6  A    between atoms: C_16  and  C_18
REMARK    7  A    between atoms: C_18  and  C_19
REMARK    8  A    between atoms: C_19  and  C_20
REMARK    9  A    between atoms: C_19  and  C_23
REMARK                            x       y       z     vdW  Elec       q    Type
REMARK                         _______ _______ _______ _____ _____    ______ ____
ROOT
ATOM      1  C   UNL     1       4.775   0.037  -0.146  0.00  0.00    +0.151 C 
ATOM      2  S   UNL     1       4.755   1.749  -0.137  0.00  0.00    -0.017 S 
ENDROOT
BRANCH   1   3
ATOM      3  N   UNL     1       3.621  -0.651  -0.036  0.00  0.00    -0.295 N 
ATOM      4  H   UNL     1       3.638  -1.617   0.038  0.00  0.00    +0.154 HD
BRANCH   3   8
ATOM      5  C   UNL     1      -0.018   1.375  -0.021  0.00  0.00    +0.001 A 
ATOM      6  C   UNL     1       0.958   1.718  -0.938  0.00  0.00    +0.002 A 
ATOM      7  C   UNL     1       2.166   1.048  -0.946  0.00  0.00    +0.024 A 
ATOM      8  C   UNL     1       2.399   0.030  -0.031  0.00  0.00    +0.044 A 
ATOM      9  C   UNL     1       1.417  -0.311   0.889  0.00  0.00    +0.076 A 
ATOM     10  C   UNL     1       0.211   0.362   0.892  0.00  0.00    +0.014 A 
BRANCH   9  11
ATOM     11  C   UNL     1       1.666  -1.416   1.883  0.00  0.00    +0.419 C 
ATOM     12  F   UNL     1       0.539  -1.574   2.697  0.00  0.00    -0.166 F 
ATOM     13  F   UNL     1       1.918  -2.611   1.200  0.00  0.00    -0.166 F 
ATOM     14  F   UNL     1       2.772  -1.090   2.676  0.00  0.00    -0.166 F 
ENDBRANCH   9  11
ENDBRANCH   3   8
ENDBRANCH   1   3
BRANCH   1  15
ATOM     15  N   UNL     1       5.945  -0.623  -0.263  0.00  0.00    -0.246 N 
ATOM     16  H   UNL     1       6.775  -0.128  -0.342  0.00  0.00    +0.172 HD
BRANCH  15  17
ATOM     17  N   UNL     1       5.961  -2.023  -0.270  0.00  0.00    -0.235 N 
ATOM     18  C   UNL     1       7.130  -2.683  -0.387  0.00  0.00    +0.229 C 
ATOM     19  O   UNL     1       8.168  -2.064  -0.485  0.00  0.00    -0.274 OA
ATOM     20  H   UNL     1       5.130  -2.518  -0.191  0.00  0.00    +0.173 HD
BRANCH  18  21
ATOM     21  C   UNL     1       7.147  -4.190  -0.395  0.00  0.00    +0.101 C 
BRANCH  21  22
ATOM     22  C   UNL     1       8.589  -4.683  -0.538  0.00  0.00    +0.004 C 
BRANCH  22  23
ATOM     23  C   UNL     1       9.392  -4.275   0.700  0.00  0.00    -0.007 C 
ATOM     24  C   UNL     1      10.481  -3.216   0.518  0.00  0.00    +0.004 C 
ATOM     25  C   UNL     1      10.867  -4.679   0.749  0.00  0.00    +0.004 C 
ENDBRANCH  22  23
BRANCH  22  26
ATOM     26  C   UNL     1       8.596  -6.207  -0.671  0.00  0.00    -0.007 C 
ATOM     27  C   UNL     1       9.372  -6.810  -1.844  0.00  0.00    +0.004 C 
ATOM     28  C   UNL     1       7.842  -6.816  -1.855  0.00  0.00    +0.004 C 
ENDBRANCH  22  26
ENDBRANCH  21  22
ENDBRANCH  18  21
ENDBRANCH  15  17
ENDBRANCH   1  15
TORSDOF 9
