REMARK  Name = ZINC04844758
REMARK  10 active torsions:
REMARK  status: ('A' for Active; 'I' for Inactive)
REMARK    1  A    between atoms: C_1  and  C_2
REMARK    2  A    between atoms: C_5  and  C_8
REMARK    3  A    between atoms: C_8  and  O_10
REMARK    4  A    between atoms: O_10  and  C_11
REMARK    5  A    between atoms: C_14  and  C_17
REMARK    6  A    between atoms: C_17  and  C_19
REMARK    7  A    between atoms: C_17  and  C_26
REMARK    8  A    between atoms: C_24  and  C_25
REMARK    9  A    between atoms: C_27  and  C_33
REMARK   10  A    between atoms: C_31  and  O_32
REMARK                            x       y       z     vdW  Elec       q    Type
REMARK                         _______ _______ _______ _____ _____    ______ ____
ROOT
ATOM      1  C   UNL     1       0.285 -10.523   0.508  0.00  0.00    +0.089 C 
ENDROOT
BRANCH   1   2
ATOM      2  C   UNL     1      -0.964 -11.326   0.764  0.00  0.00    +0.005 A 
ATOM      3  C   UNL     1      -1.521 -11.568   1.973  0.00  0.00    +0.109 A 
ATOM      4  N   UNL     1      -2.623 -12.322   1.775  0.00  0.00    -0.284 N 
ATOM      5  H   UNL     1      -3.223 -12.647   2.464  0.00  0.00    +0.188 HD
ATOM      6  N   UNL     1      -2.746 -12.552   0.399  0.00  0.00    -0.179 NA
ATOM      7  C   UNL     1      -1.755 -11.950  -0.207  0.00  0.00    +0.064 A 
ATOM      8  C   UNL     1      -1.506 -11.934  -1.693  0.00  0.00    +0.068 C 
ENDBRANCH   1   2
BRANCH   1   9
ATOM      9  C   UNL     1       1.421 -11.087   1.321  0.00  0.00    +0.047 A 
ATOM     10  C   UNL     1       2.537 -10.422   1.700  0.00  0.00    +0.041 A 
ATOM     11  N   UNL     1       3.304 -11.274   2.411  0.00  0.00    -0.278 N 
ATOM     12  N   UNL     1       2.640 -12.506   2.474  0.00  0.00    -0.136 NA
ATOM     13  H   UNL     1       4.165 -11.069   2.810  0.00  0.00    +0.189 HD
ATOM     14  C   UNL     1       1.507 -12.394   1.824  0.00  0.00    +0.236 A 
ATOM     15  C   UNL     1       2.865  -8.986   1.383  0.00  0.00    +0.065 C 
BRANCH  14  16
ATOM     16  O   UNL     1       0.578 -13.374   1.664  0.00  0.00    -0.491 OA
ATOM     17  H   UNL     1       0.755 -13.965   0.920  0.00  0.00    +0.294 HD
ENDBRANCH  14  16
ENDBRANCH   1   9
BRANCH   1  21
ATOM     18  C   UNL     1      -0.386  -6.454   1.628  0.00  0.00    +0.132 A 
ATOM     19  C   UNL     1      -0.146  -6.778   0.301  0.00  0.00    +0.046 A 
ATOM     20  C   UNL     1       0.071  -8.094  -0.059  0.00  0.00    +0.008 A 
ATOM     21  C   UNL     1       0.049  -9.088   0.903  0.00  0.00    -0.035 A 
ATOM     22  C   UNL     1      -0.190  -8.767   2.226  0.00  0.00    +0.008 A 
ATOM     23  C   UNL     1      -0.402  -7.452   2.592  0.00  0.00    +0.046 A 
BRANCH  18  24
ATOM     24  O   UNL     1      -0.600  -5.160   1.984  0.00  0.00    -0.422 OA
BRANCH  24  25
ATOM     25  C   UNL     1       0.407  -4.494   2.582  0.00  0.00    +0.344 C 
ATOM     26  O   UNL     1       1.434  -5.076   2.869  0.00  0.00    -0.245 OA
BRANCH  25  31
ATOM     27  C   UNL     1      -0.155   1.106   3.776  0.00  0.00    +0.044 C 
ATOM     28  C   UNL     1      -0.008  -0.360   3.463  0.00  0.00    -0.050 A 
ATOM     29  C   UNL     1       1.163  -1.020   3.792  0.00  0.00    +0.004 A 
ATOM     30  C   UNL     1       1.305  -2.363   3.509  0.00  0.00    +0.015 A 
ATOM     31  C   UNL     1       0.263  -3.056   2.889  0.00  0.00    +0.059 A 
ATOM     32  C   UNL     1      -0.916  -2.384   2.561  0.00  0.00    +0.015 A 
ATOM     33  C   UNL     1      -1.046  -1.042   2.854  0.00  0.00    +0.004 A 
ENDBRANCH  25  31
ENDBRANCH  24  25
ENDBRANCH  18  24
ENDBRANCH   1  21
TORSDOF 7
