REMARK  Name = ZINC09087734
REMARK  4 active torsions:
REMARK  status: ('A' for Active; 'I' for Inactive)
REMARK    1  A    between atoms: C_21  and  C_32
REMARK    2  A    between atoms: C_23  and  C_25
REMARK    3  A    between atoms: C_25  and  C_27
REMARK    4  A    between atoms: C_32  and  C_34
REMARK                            x       y       z     vdW  Elec       q    Type
REMARK                         _______ _______ _______ _____ _____    ______ ____
ROOT
ATOM      1  C   UNL     1      -6.338  -4.009   1.384  0.00  0.00    +0.001 A 
ATOM      2  C   UNL     1      -5.422  -4.875   1.955  0.00  0.00    +0.000 A 
ATOM      3  C   UNL     1      -4.111  -4.895   1.511  0.00  0.00    +0.006 A 
ATOM      4  C   UNL     1      -3.715  -4.052   0.497  0.00  0.00    -0.020 A 
ATOM      5  C   UNL     1      -4.635  -3.175  -0.090  0.00  0.00    -0.019 A 
ATOM      6  C   UNL     1      -5.954  -3.160   0.367  0.00  0.00    +0.008 A 
ATOM      7  C   UNL     1      -4.219  -2.277  -1.186  0.00  0.00    +0.022 C 
ATOM      8  C   UNL     1      -2.905  -2.041  -1.383  0.00  0.00    +0.054 C 
ATOM      9  C   UNL     1      -2.293  -4.051  -0.001  0.00  0.00    +0.107 C 
ATOM     10  C   UNL     1      -1.298  -4.277   1.136  0.00  0.00    +0.107 C 
ATOM     11  C   UNL     1      -0.230  -5.252   0.778  0.00  0.00    -0.008 A 
ATOM     12  C   UNL     1       0.705  -5.266  -0.235  0.00  0.00    +0.006 A 
ATOM     13  C   UNL     1       1.573  -6.351  -0.280  0.00  0.00    +0.000 A 
ATOM     14  C   UNL     1       1.501  -7.369   0.650  0.00  0.00    +0.002 A 
ATOM     15  C   UNL     1       0.564  -7.363   1.671  0.00  0.00    +0.023 A 
ATOM     16  C   UNL     1      -0.314  -6.280   1.728  0.00  0.00    +0.038 A 
ATOM     17  N   UNL     1      -1.333  -6.021   2.629  0.00  0.00    -0.284 N 
ATOM     18  C   UNL     1      -1.967  -4.860   2.354  0.00  0.00    +0.231 C 
ATOM     19  O   UNL     1      -2.895  -4.379   2.970  0.00  0.00    -0.274 OA
ATOM     20  C   UNL     1      -0.721  -2.881   1.442  0.00  0.00    +0.108 C 
ATOM     21  C   UNL     1      -0.775  -2.205   0.043  0.00  0.00    +0.143 C 
ATOM     22  H   UNL     1      -1.564  -6.604   3.369  0.00  0.00    +0.155 HD
ATOM     23  N   UNL     1      -1.829  -2.908  -0.743  0.00  0.00    -0.383 NA
ATOM     24  H   UNL     1      -1.331  -3.309  -1.547  0.00  0.00    +0.127 HD
ENDROOT
BRANCH  21  25
ATOM     25  C   UNL     1      -0.806  -0.705   0.180  0.00  0.00    +0.217 C 
ATOM     26  O   UNL     1      -1.867  -0.115   0.158  0.00  0.00    -0.287 OA
BRANCH  25  27
ATOM     27  C   UNL     1       0.400   0.016   0.335  0.00  0.00    +0.172 A 
ATOM     28  C   UNL     1       0.518   1.385   0.472  0.00  0.00    +0.053 A 
ATOM     29  C   UNL     1       1.887   1.656   0.597  0.00  0.00    +0.042 A 
ATOM     30  C   UNL     1       2.538   0.471   0.534  0.00  0.00    +0.196 A 
ATOM     31  O   UNL     1       1.642  -0.511   0.377  0.00  0.00    -0.460 OA
ENDBRANCH  25  27
ENDBRANCH  21  25
BRANCH  20  32
ATOM     32  C   UNL     1      -1.586  -2.144   2.432  0.00  0.00    +0.170 C 
ATOM     33  O   UNL     1      -2.615  -1.619   2.063  0.00  0.00    -0.292 OA
BRANCH  32  34
ATOM     34  C   UNL     1      -1.183  -2.062   3.844  0.00  0.00    +0.018 A 
ATOM     35  C   UNL     1       0.001  -2.671   4.273  0.00  0.00    +0.013 A 
ATOM     36  C   UNL     1       0.375  -2.586   5.597  0.00  0.00    +0.020 A 
ATOM     37  C   UNL     1      -0.423  -1.908   6.503  0.00  0.00    +0.041 A 
ATOM     38  C   UNL     1      -1.600  -1.306   6.086  0.00  0.00    +0.020 A 
ATOM     39  C   UNL     1      -1.984  -1.378   4.765  0.00  0.00    +0.013 A 
ATOM     40 CL   UNL     1       0.052  -1.811   8.170  0.00  0.00    -0.084 Cl
ENDBRANCH  32  34
ENDBRANCH  20  32
TORSDOF 4
