REMARK  Name = ZINC63270658
REMARK  11 active torsions:
REMARK  status: ('A' for Active; 'I' for Inactive)
REMARK    1  A    between atoms: C_1  and  C_2
REMARK    2  A    between atoms: C_4  and  O_17
REMARK    3  A    between atoms: C_11  and  O_15
REMARK    4  A    between atoms: O_15  and  C_16
REMARK    5  A    between atoms: O_17  and  C_18
REMARK    6  A    between atoms: C_21  and  C_24
REMARK    7  A    between atoms: N_26  and  C_27
REMARK    8  A    between atoms: C_27  and  C_28
REMARK    9  A    between atoms: C_28  and  C_29
REMARK   10  A    between atoms: C_32  and  O_38
REMARK   11  A    between atoms: O_38  and  C_39
REMARK                            x       y       z     vdW  Elec       q    Type
REMARK                         _______ _______ _______ _____ _____    ______ ____
ROOT
ATOM      1  C   UNL     1       2.648   0.119  -2.506  0.00  0.00    +0.122 A 
ATOM      2  C   UNL     1       1.917  -0.144  -3.658  0.00  0.00    +0.046 A 
ATOM      3  C   UNL     1       2.512  -0.029  -4.894  0.00  0.00    +0.016 A 
ATOM      4  C   UNL     1       3.853   0.353  -4.990  0.00  0.00    +0.037 A 
ATOM      5  C   UNL     1       4.585   0.617  -3.829  0.00  0.00    +0.016 A 
ATOM      6  C   UNL     1       3.981   0.504  -2.596  0.00  0.00    +0.046 A 
ENDROOT
BRANCH   4   7
ATOM      7  C   UNL     1       4.495   0.476  -6.313  0.00  0.00    +0.244 C 
ATOM      8  O   UNL     1       3.857   0.246  -7.322  0.00  0.00    -0.270 OA
ATOM      9  N   UNL     1       5.788   0.845  -6.403  0.00  0.00    -0.311 N 
ATOM     10  H   UNL     1       6.297   1.028  -5.598  0.00  0.00    +0.149 HD
BRANCH   9  11
ATOM     11  C   UNL     1       6.425   0.967  -7.717  0.00  0.00    +0.109 C 
BRANCH  11  12
ATOM     12  C   UNL     1       7.883   1.395  -7.538  0.00  0.00    +0.052 C 
BRANCH  12  13
ATOM     13  C   UNL     1       8.538   1.522  -8.890  0.00  0.00    -0.040 C 
ATOM     14  C   UNL     1       8.680   2.649  -9.622  0.00  0.00    +0.002 A 
ATOM     15  C   UNL     1       8.281   4.042  -9.393  0.00  0.00    +0.055 A 
ATOM     16  C   UNL     1       8.563   4.980 -10.329  0.00  0.00    +0.121 A 
ATOM     17  C   UNL     1       9.229   4.668 -11.527  0.00  0.00    +0.047 A 
ATOM     18  C   UNL     1       9.635   3.416 -11.828  0.00  0.00    +0.029 A 
ATOM     19  C   UNL     1       9.382   2.322 -10.885  0.00  0.00    +0.043 A 
ATOM     20  N   UNL     1       9.663   1.044 -10.930  0.00  0.00    -0.380 N 
ATOM     21  C   UNL     1       9.177   0.414  -9.697  0.00  0.00    +0.144 C 
ATOM     22  H   UNL     1      10.120   0.590 -11.656  0.00  0.00    +0.160 HD
BRANCH  16  23
ATOM     23  O   UNL     1       8.187   6.266 -10.103  0.00  0.00    -0.495 OA
ATOM     24  C   UNL     1       8.504   7.223 -11.116  0.00  0.00    +0.277 C 
ENDBRANCH  16  23
ENDBRANCH  12  13
ENDBRANCH  11  12
ENDBRANCH   9  11
ENDBRANCH   4   7
BRANCH   1  25
ATOM     25  O   UNL     1       2.058   0.005  -1.289  0.00  0.00    -0.477 OA
BRANCH  25  28
ATOM     26  C   UNL     1       0.272   1.729   0.177  0.00  0.00    +0.056 C 
ATOM     27  C   UNL     1       0.041   0.222   0.044  0.00  0.00    +0.219 C 
ATOM     28  C   UNL     1       0.657  -0.276  -1.271  0.00  0.00    +0.284 C 
ATOM     29  C   UNL     1       0.429  -1.776  -1.334  0.00  0.00    +0.210 C 
ATOM     30  O   UNL     1       0.122  -2.332  -2.368  0.00  0.00    -0.288 OA
ATOM     31  C   UNL     1       0.599  -2.520  -0.077  0.00  0.00    +0.063 A 
ATOM     32  C   UNL     1       0.659  -3.917  -0.077  0.00  0.00    +0.019 A 
ATOM     33  C   UNL     1       0.811  -4.589   1.102  0.00  0.00    +0.046 A 
ATOM     34  C   UNL     1       0.905  -3.889   2.302  0.00  0.00    +0.124 A 
ATOM     35  C   UNL     1       0.849  -2.503   2.317  0.00  0.00    +0.092 A 
ATOM     36  C   UNL     1       0.699  -1.805   1.130  0.00  0.00    +0.135 A 
ATOM     37  O   UNL     1       0.656  -0.453   1.141  0.00  0.00    -0.484 OA
BRANCH  34  38
ATOM     38  O   UNL     1       1.052  -4.569   3.467  0.00  0.00    -0.495 OA
ATOM     39  C   UNL     1       1.102  -5.995   3.385  0.00  0.00    +0.277 C 
ENDBRANCH  34  38
ENDBRANCH  25  28
ENDBRANCH   1  25
TORSDOF 8
