REMARK  Name = ZINC33126273
REMARK  10 active torsions:
REMARK  status: ('A' for Active; 'I' for Inactive)
REMARK    1  A    between atoms: C_1  and  C_2
REMARK    2  A    between atoms: C_5  and  C_8
REMARK    3  A    between atoms: C_8  and  N_9
REMARK    4  A    between atoms: N_9  and  C_10
REMARK    5  A    between atoms: N_9  and  C_29
REMARK    6  A    between atoms: C_10  and  C_11
REMARK    7  A    between atoms: C_19  and  C_22
REMARK    8  A    between atoms: C_29  and  C_30
REMARK    9  A    between atoms: C_30  and  C_31
REMARK   10  A    between atoms: C_30  and  C_32
REMARK                            x       y       z     vdW  Elec       q    Type
REMARK                         _______ _______ _______ _____ _____    ______ ____
ROOT
ATOM      1  C   UNL     1       0.079   1.278  -1.277  0.00  0.00    +0.032 A 
ATOM      2  C   UNL     1       1.095   1.964  -1.882  0.00  0.00    +0.093 A 
ATOM      3  C   UNL     1       0.931   2.394  -3.210  0.00  0.00    +0.273 A 
ATOM      4  O   UNL     1       1.821   3.005  -3.780  0.00  0.00    -0.266 OA
ATOM      5  N   UNL     1      -0.231   2.126  -3.841  0.00  0.00    -0.201 N 
ATOM      6  C   UNL     1      -1.220   1.439  -3.186  0.00  0.00    +0.158 A 
ATOM      7  N   UNL     1      -1.049   1.034  -1.934  0.00  0.00    -0.234 NA
ATOM      8  C   UNL     1      -2.305   1.304  -4.079  0.00  0.00    +0.075 A 
ATOM      9  C   UNL     1      -1.966   1.905  -5.253  0.00  0.00    +0.066 A 
ATOM     10  N   UNL     1      -0.693   2.417  -5.130  0.00  0.00    -0.288 N 
ATOM     11  H   UNL     1      -0.051   2.969  -5.833  0.00  0.00    +0.187 HD
ENDROOT
BRANCH   9  12
ATOM     12  C   UNL     1      -2.818   1.991  -6.455  0.00  0.00    -0.000 A 
ATOM     13  C   UNL     1      -2.352   2.642  -7.600  0.00  0.00    +0.011 A 
ATOM     14  C   UNL     1      -3.151   2.716  -8.721  0.00  0.00    +0.020 A 
ATOM     15  C   UNL     1      -4.418   2.155  -8.711  0.00  0.00    +0.041 A 
ATOM     16  C   UNL     1      -4.887   1.512  -7.577  0.00  0.00    +0.020 A 
ATOM     17  C   UNL     1      -4.096   1.427  -6.451  0.00  0.00    +0.011 A 
ATOM     18 CL   UNL     1      -5.420   2.258 -10.124  0.00  0.00    -0.084 Cl
ENDBRANCH   9  12
BRANCH   1  19
ATOM     19  C   UNL     1       0.237   0.802   0.144  0.00  0.00    -0.022 C 
BRANCH  19  20
ATOM     20  N   UNL     1      -0.127   1.885   1.066  0.00  0.00    +0.386 N 
ATOM     21  H   UNL     1       0.065   2.842   0.558  0.00  0.00    -0.081 HD
BRANCH  20  22
ATOM     22  C   UNL     1       0.701   1.845   2.279  0.00  0.00    -0.042 C 
BRANCH  22  27
ATOM     23  C   UNL     1       0.438   6.956   4.963  0.00  0.00    +0.044 C 
ATOM     24  C   UNL     1       0.507   5.623   4.263  0.00  0.00    -0.050 A 
ATOM     25  C   UNL     1      -0.304   4.583   4.677  0.00  0.00    +0.003 A 
ATOM     26  C   UNL     1      -0.241   3.360   4.035  0.00  0.00    +0.002 A 
ATOM     27  C   UNL     1       0.632   3.178   2.979  0.00  0.00    -0.064 A 
ATOM     28  C   UNL     1       1.446   4.217   2.568  0.00  0.00    +0.002 A 
ATOM     29  C   UNL     1       1.380   5.441   3.207  0.00  0.00    +0.003 A 
ENDBRANCH  22  27
ENDBRANCH  20  22
BRANCH  20  30
ATOM     30  C   UNL     1      -1.556   1.832   1.403  0.00  0.00    -0.075 C 
BRANCH  30  31
ATOM     31  C   UNL     1      -2.378   2.348   0.220  0.00  0.00    -0.034 C 
ATOM     32  C   UNL     1      -3.868   2.257   0.556  0.00  0.00    +0.005 C 
ATOM     33  C   UNL     1      -2.006   3.804  -0.063  0.00  0.00    +0.005 C 
ENDBRANCH  30  31
ENDBRANCH  20  30
ENDBRANCH  19  20
ENDBRANCH   1  19
TORSDOF 7
