REMARK  Name = ZINC42435347
REMARK  13 active torsions:
REMARK  status: ('A' for Active; 'I' for Inactive)
REMARK    1  A    between atoms: C_1  and  C_2
REMARK    2  A    between atoms: C_2  and  N_3
REMARK    3  A    between atoms: N_3  and  C_4
REMARK    4  A    between atoms: N_3  and  C_6
REMARK    5  A    between atoms: C_4  and  C_5
REMARK    6  A    between atoms: C_6  and  C_7
REMARK    7  A    between atoms: C_7  and  N_8
REMARK    8  A    between atoms: N_8  and  C_9
REMARK    9  A    between atoms: N_8  and  S_13
REMARK   10  A    between atoms: C_9  and  C_10
REMARK   11  A    between atoms: C_10  and  C_11
REMARK   12  A    between atoms: C_10  and  C_12
REMARK   13  A    between atoms: S_13  and  C_16
REMARK                            x       y       z     vdW  Elec       q    Type
REMARK                         _______ _______ _______ _____ _____    ______ ____
ROOT
ATOM      1  N   UNL     1       2.327  -3.341  -0.490  0.00  0.00    -0.178 NA
ENDROOT
BRANCH   1   2
ATOM      2  S   UNL     1       3.649  -3.978   0.278  0.00  0.00    +0.067 S 
ATOM      3  O   UNL     1       4.003  -5.156  -0.433  0.00  0.00    -0.152 OA
ATOM      4  O   UNL     1       4.560  -2.905   0.476  0.00  0.00    -0.152 OA
BRANCH   2   5
ATOM      5  C   UNL     1       3.123  -4.494   1.878  0.00  0.00    +0.144 A 
ATOM      6  C   UNL     1       2.639  -5.698   2.270  0.00  0.00    +0.037 A 
ATOM      7  C   UNL     1       2.285  -5.880   3.594  0.00  0.00    +0.025 A 
ATOM      8  C   UNL     1       2.434  -4.848   4.462  0.00  0.00    +0.057 A 
ATOM      9  S   UNL     1       3.099  -3.571   3.406  0.00  0.00    -0.062 S 
ATOM     10 BR   UNL     1       2.045  -4.781   6.311  0.00  0.00    -0.043 Br
ENDBRANCH   2   5
ENDBRANCH   1   2
BRANCH   1  11
ATOM     11  C   UNL     1       2.026  -1.912  -0.366  0.00  0.00    +0.091 C 
BRANCH  11  12
ATOM     12  C   UNL     1       1.030  -1.698   0.775  0.00  0.00    -0.062 C 
BRANCH  12  13
ATOM     13  N   UNL     1       0.728  -0.266   0.899  0.00  0.00    +0.380 N 
ATOM     14  H   UNL     1       1.587   0.250   1.013  0.00  0.00    -0.082 HD
BRANCH  13  16
ATOM     15  C   UNL     1      -0.148   1.713  -0.247  0.00  0.00    -0.017 C 
ATOM     16  C   UNL     1       0.036   0.196  -0.312  0.00  0.00    -0.082 C 
ENDBRANCH  13  16
BRANCH  13  17
ATOM     17  C   UNL     1      -0.134  -0.047   2.068  0.00  0.00    -0.082 C 
ATOM     18  C   UNL     1       0.639  -0.389   3.343  0.00  0.00    -0.017 C 
ENDBRANCH  13  17
ENDBRANCH  12  13
ENDBRANCH  11  12
ENDBRANCH   1  11
BRANCH   1  19
ATOM     19  C   UNL     1       1.459  -4.205  -1.293  0.00  0.00    +0.112 C 
BRANCH  19  20
ATOM     20  C   UNL     1       1.914  -4.170  -2.753  0.00  0.00    -0.001 C 
ATOM     21  C   UNL     1       1.099  -5.178  -3.566  0.00  0.00    +0.008 C 
ATOM     22  C   UNL     1       1.699  -2.765  -3.320  0.00  0.00    +0.008 C 
ENDBRANCH  19  20
ENDBRANCH   1  19
TORSDOF 9
