REMARK  Name = ZINC20436965
REMARK  7 active torsions:
REMARK  status: ('A' for Active; 'I' for Inactive)
REMARK    1  A    between atoms: C_1  and  C_2
REMARK    2  A    between atoms: C_4  and  C_35
REMARK    3  A    between atoms: C_6  and  N_8
REMARK    4  A    between atoms: N_8  and  C_9
REMARK    5  A    between atoms: C_9  and  C_10
REMARK    6  A    between atoms: N_12  and  C_13
REMARK    7  A    between atoms: C_18  and  C_19
REMARK                            x       y       z     vdW  Elec       q    Type
REMARK                         _______ _______ _______ _____ _____    ______ ____
ROOT
ATOM      1  N   UNL     1      -0.079   5.257   0.038  0.00  0.00    -0.273 N 
ATOM      2  C   UNL     1      -1.271   5.939  -0.060  0.00  0.00    +0.136 C 
ATOM      3  N   UNL     1      -2.499   5.426  -0.073  0.00  0.00    -0.362 N 
ATOM      4  C   UNL     1      -3.574   6.330  -0.301  0.00  0.00    +0.117 C 
ATOM      5  C   UNL     1      -5.043   6.036  -0.064  0.00  0.00    +0.191 C 
ATOM      6  S   UNL     1      -5.753   7.736  -0.265  0.00  0.00    -0.028 S 
ATOM      7  O   UNL     1      -6.427   8.101   0.931  0.00  0.00    -0.174 OA
ATOM      8  O   UNL     1      -6.440   7.807  -1.507  0.00  0.00    -0.174 OA
ATOM      9  C   UNL     1      -4.173   8.701  -0.390  0.00  0.00    +0.182 C 
ATOM     10  C   UNL     1      -3.247   7.725   0.345  0.00  0.00    +0.099 C 
ATOM     11  S   UNL     1      -1.506   7.717  -0.206  0.00  0.00    -0.085 S 
ATOM     12  H   UNL     1      -2.646   4.347   0.089  0.00  0.00    +0.162 HD
ENDROOT
BRANCH   1  18
ATOM     13  C   UNL     1      -1.311   1.016  -2.122  0.00  0.00    +0.044 C 
ATOM     14  C   UNL     1      -0.661   1.777  -0.995  0.00  0.00    -0.048 A 
ATOM     15  C   UNL     1      -0.057   1.091   0.042  0.00  0.00    +0.006 A 
ATOM     16  C   UNL     1       0.536   1.786   1.081  0.00  0.00    -0.048 A 
ATOM     17  C   UNL     1       0.535   3.167   1.080  0.00  0.00    +0.027 A 
ATOM     18  C   UNL     1      -0.071   3.858   0.039  0.00  0.00    +0.037 A 
ATOM     19  C   UNL     1      -0.670   3.158  -1.000  0.00  0.00    +0.027 A 
ATOM     20  C   UNL     1       1.188   1.034   2.213  0.00  0.00    +0.044 C 
ENDBRANCH   1  18
BRANCH   1  21
ATOM     21  C   UNL     1       1.182   5.996   0.140  0.00  0.00    +0.208 C 
BRANCH  21  22
ATOM     22  C   UNL     1       1.730   6.248  -1.241  0.00  0.00    +0.235 C 
ATOM     23  O   UNL     1       1.127   5.850  -2.215  0.00  0.00    -0.274 OA
ATOM     24  N   UNL     1       2.890   6.917  -1.394  0.00  0.00    -0.284 N 
ATOM     25  H   UNL     1       3.484   7.198  -0.511  0.00  0.00    +0.155 HD
BRANCH  24  26
ATOM     26  C   UNL     1       3.340   7.253  -2.676  0.00  0.00    +0.045 A 
ATOM     27  C   UNL     1       2.433   7.386  -3.719  0.00  0.00    +0.024 A 
ATOM     28  C   UNL     1       2.880   7.723  -4.982  0.00  0.00    +0.002 A 
ATOM     29  C   UNL     1       4.230   7.919  -5.210  0.00  0.00    +0.001 A 
ATOM     30  C   UNL     1       5.136   7.783  -4.174  0.00  0.00    +0.014 A 
ATOM     31  C   UNL     1       4.695   7.450  -2.908  0.00  0.00    +0.076 A 
BRANCH  31  32
ATOM     32  C   UNL     1       5.683   7.301  -1.780  0.00  0.00    +0.419 C 
ATOM     33  F   UNL     1       6.975   7.547  -2.257  0.00  0.00    -0.166 F 
ATOM     34  F   UNL     1       5.377   8.218  -0.768  0.00  0.00    -0.166 F 
ATOM     35  F   UNL     1       5.614   6.001  -1.268  0.00  0.00    -0.166 F 
ENDBRANCH  31  32
ENDBRANCH  24  26
ENDBRANCH  21  22
ENDBRANCH   1  21
TORSDOF 5
