REMARK  Name = ZINC50307507
REMARK  5 active torsions:
REMARK  status: ('A' for Active; 'I' for Inactive)
REMARK    1  A    between atoms: C_1  and  C_2
REMARK    2  A    between atoms: C_2  and  C_3
REMARK    3  A    between atoms: C_4  and  N_23
REMARK    4  A    between atoms: C_5  and  C_9
REMARK    5  A    between atoms: C_15  and  C_17
REMARK                            x       y       z     vdW  Elec       q    Type
REMARK                         _______ _______ _______ _____ _____    ______ ____
ROOT
ATOM      1  C   UNL     1      -4.619  -1.627  -1.438  0.00  0.00    +0.269 C 
ATOM      2  O   UNL     1      -4.659  -1.531  -2.650  0.00  0.00    -0.268 OA
ATOM      3  N   UNL     1      -5.700  -2.061  -0.760  0.00  0.00    -0.293 N 
ATOM      4  C   UNL     1      -5.757  -2.320   0.690  0.00  0.00    +0.108 C 
ATOM      5  C   UNL     1      -6.912  -3.338   0.865  0.00  0.00    +0.021 C 
ATOM      6  C   UNL     1      -7.927  -2.844  -0.199  0.00  0.00    +0.024 C 
ATOM      7  C   UNL     1      -7.018  -2.349  -1.343  0.00  0.00    +0.080 C 
ENDROOT
BRANCH   1  10
ATOM      8  C   UNL     1      -1.334  -0.601  -0.234  0.00  0.00    +0.057 A 
ATOM      9  C   UNL     1      -2.177  -0.798  -1.283  0.00  0.00    +0.078 A 
ATOM     10  C   UNL     1      -3.387  -1.267  -0.711  0.00  0.00    +0.168 A 
ATOM     11  N   UNL     1      -3.204  -1.321   0.595  0.00  0.00    -0.167 NA
ATOM     12  N   UNL     1      -2.013  -0.942   0.892  0.00  0.00    -0.279 N 
ATOM     13  H   UNL     1      -1.652  -0.902   1.792  0.00  0.00    +0.189 HD
BRANCH   9  14
ATOM     14  N   UNL     1      -1.907  -0.583  -2.642  0.00  0.00    -0.355 N 
ATOM     15  H   UNL     1      -1.035  -0.257  -2.918  0.00  0.00    +0.142 HD
ATOM     16  H   UNL     1      -2.591  -0.760  -3.306  0.00  0.00    +0.142 HD
ENDBRANCH   9  14
BRANCH   8  18
ATOM     17  C   UNL     1       0.092   1.425  -0.330  0.00  0.00    +0.010 C 
ATOM     18  C   UNL     1       0.087  -0.104  -0.308  0.00  0.00    +0.053 C 
ENDBRANCH   8  18
ENDBRANCH   1  10
BRANCH   7  19
ATOM     19  C   UNL     1      -7.602  -1.077  -1.963  0.00  0.00    +0.010 C 
ATOM     20  C   UNL     1      -7.697   0.013  -0.894  0.00  0.00    +0.005 C 
ATOM     21  C   UNL     1      -8.281   1.285  -1.513  0.00  0.00    +0.000 C 
ATOM     22  C   UNL     1      -9.677   0.989  -2.064  0.00  0.00    +0.000 C 
ATOM     23  C   UNL     1      -9.582  -0.102  -3.133  0.00  0.00    +0.000 C 
ATOM     24  C   UNL     1      -8.998  -1.373  -2.514  0.00  0.00    +0.005 C 
ENDBRANCH   7  19
TORSDOF 4
