REMARK  Name = ZINC22681970
REMARK  12 active torsions:
REMARK  status: ('A' for Active; 'I' for Inactive)
REMARK    1  A    between atoms: C_1  and  C_2
REMARK    2  A    between atoms: C_2  and  N_3
REMARK    3  A    between atoms: N_3  and  C_4
REMARK    4  A    between atoms: N_3  and  C_6
REMARK    5  A    between atoms: C_4  and  C_5
REMARK    6  A    between atoms: C_6  and  C_8
REMARK    7  A    between atoms: C_6  and  C_28
REMARK    8  A    between atoms: C_8  and  N_9
REMARK    9  A    between atoms: C_10  and  C_12
REMARK   10  A    between atoms: C_12  and  N_13
REMARK   11  A    between atoms: C_16  and  C_20
REMARK   12  A    between atoms: C_16  and  C_21
REMARK                            x       y       z     vdW  Elec       q    Type
REMARK                         _______ _______ _______ _____ _____    ______ ____
ROOT
ATOM      1  N   UNL     1       2.612  -3.641  -0.711  0.00  0.00    -0.315 N 
ATOM      2  C   UNL     1       2.252  -2.344  -0.647  0.00  0.00    +0.231 C 
ATOM      3  O   UNL     1       2.357  -1.636  -1.626  0.00  0.00    -0.274 OA
ATOM      4  H   UNL     1       2.469  -4.296   0.161  0.00  0.00    +0.149 HD
ENDROOT
BRANCH   1   5
ATOM      5  C   UNL     1       3.195  -4.179  -1.943  0.00  0.00    +0.093 C 
BRANCH   5   6
ATOM      6  C   UNL     1       3.557  -5.651  -1.736  0.00  0.00    -0.019 C 
BRANCH   6   7
ATOM      7  C   UNL     1       4.646  -6.041  -2.701  0.00  0.00    -0.041 A 
ATOM      8  C   UNL     1       4.395  -6.048  -4.061  0.00  0.00    +0.003 A 
ATOM      9  C   UNL     1       5.394  -6.406  -4.946  0.00  0.00    +0.000 A 
ATOM     10  C   UNL     1       6.645  -6.757  -4.473  0.00  0.00    +0.001 A 
ATOM     11  C   UNL     1       6.897  -6.750  -3.114  0.00  0.00    +0.020 A 
ATOM     12  C   UNL     1       5.899  -6.387  -2.228  0.00  0.00    +0.043 A 
ATOM     13 CL   UNL     1       6.217  -6.370  -0.521  0.00  0.00    -0.083 Cl
ENDBRANCH   6   7
BRANCH   6  14
ATOM     14  N   UNL     1       2.371  -6.485  -1.972  0.00  0.00    +0.385 N 
ATOM     15  H   UNL     1       2.132  -6.436  -3.045  0.00  0.00    -0.081 HD
BRANCH  14  17
ATOM     16  C   UNL     1       3.264  -8.595  -2.838  0.00  0.00    -0.017 C 
ATOM     17  C   UNL     1       2.639  -7.889  -1.633  0.00  0.00    -0.081 C 
ENDBRANCH  14  17
BRANCH  14  18
ATOM     18  C   UNL     1       1.212  -5.976  -1.228  0.00  0.00    -0.081 C 
ATOM     19  C   UNL     1       0.038  -5.774  -2.188  0.00  0.00    -0.017 C 
ENDBRANCH  14  18
ENDBRANCH   6  14
ENDBRANCH   5   6
ENDBRANCH   1   5
BRANCH   2  20
ATOM     20  C   UNL     1       1.718  -1.774   0.642  0.00  0.00    +0.213 C 
BRANCH  20  21
ATOM     21  N   UNL     1       1.516  -0.330   0.490  0.00  0.00    -0.215 N 
ATOM     22  C   UNL     1       0.369   0.233   0.061  0.00  0.00    +0.251 C 
ATOM     23  O   UNL     1      -0.651  -0.338  -0.260  0.00  0.00    -0.272 OA
ATOM     24  C   UNL     1       0.620   1.727   0.065  0.00  0.00    +0.135 C 
ATOM     25  N   UNL     1       2.009   1.844   0.540  0.00  0.00    -0.281 N 
ATOM     26  C   UNL     1       2.447   0.592   0.762  0.00  0.00    +0.310 C 
ATOM     27  O   UNL     1       3.563   0.327   1.164  0.00  0.00    -0.252 OA
ATOM     28  C   UNL     1      -0.339   2.432   1.027  0.00  0.00    +0.047 C 
ATOM     29  H   UNL     1       2.473   2.836   0.645  0.00  0.00    +0.152 HD
BRANCH  24  30
ATOM     30  C   UNL     1       0.486   2.291  -1.326  0.00  0.00    -0.015 A 
ATOM     31  C   UNL     1      -0.372   1.696  -2.233  0.00  0.00    +0.009 A 
ATOM     32  C   UNL     1      -0.499   2.215  -3.507  0.00  0.00    +0.039 A 
ATOM     33  C   UNL     1       0.242   3.324  -3.880  0.00  0.00    +0.123 A 
ATOM     34  C   UNL     1       1.105   3.915  -2.973  0.00  0.00    +0.039 A 
ATOM     35  C   UNL     1       1.226   3.398  -1.697  0.00  0.00    +0.009 A 
ATOM     36  F   UNL     1       0.122   3.829  -5.127  0.00  0.00    -0.205 F 
ENDBRANCH  24  30
ENDBRANCH  20  21
ENDBRANCH   2  20
TORSDOF 9
