REMARK  Name = ZINC57478320
REMARK  8 active torsions:
REMARK  status: ('A' for Active; 'I' for Inactive)
REMARK    1  A    between atoms: C_1  and  O_2
REMARK    2  A    between atoms: O_2  and  C_3
REMARK    3  A    between atoms: C_6  and  C_9
REMARK    4  A    between atoms: C_11  and  C_30
REMARK    5  A    between atoms: C_12  and  C_17
REMARK    6  A    between atoms: C_17  and  N_18
REMARK    7  A    between atoms: C_30  and  O_32
REMARK    8  A    between atoms: O_32  and  C_33
REMARK                            x       y       z     vdW  Elec       q    Type
REMARK                         _______ _______ _______ _____ _____    ______ ____
ROOT
ATOM      1  C   UNL     1      -5.068  -2.611  -0.032  0.00  0.00    +0.144 C 
ATOM      2  C   UNL     1      -5.288  -3.003  -1.479  0.00  0.00    +0.079 C 
ATOM      3  C   UNL     1      -5.472  -4.312  -1.754  0.00  0.00    +0.038 C 
ATOM      4  N   UNL     1      -5.460  -5.250  -0.761  0.00  0.00    -0.271 N 
ATOM      5  C   UNL     1      -5.271  -4.960   0.532  0.00  0.00    +0.304 C 
ATOM      6  O   UNL     1      -5.276  -5.864   1.345  0.00  0.00    -0.252 OA
ATOM      7  N   UNL     1      -5.072  -3.698   0.962  0.00  0.00    -0.288 N 
ATOM      8  H   UNL     1      -5.598  -6.178  -1.006  0.00  0.00    +0.156 HD
ATOM      9  H   UNL     1      -4.936  -3.511   1.903  0.00  0.00    +0.151 HD
ENDROOT
BRANCH   1  13
ATOM     10  C   UNL     1      -1.304  -0.604   0.231  0.00  0.00    +0.120 A 
ATOM     11  C   UNL     1      -2.477   0.130   0.119  0.00  0.00    +0.046 A 
ATOM     12  C   UNL     1      -3.692  -0.522   0.034  0.00  0.00    +0.009 A 
ATOM     13  C   UNL     1      -3.740  -1.903   0.061  0.00  0.00    -0.022 A 
ATOM     14  C   UNL     1      -2.574  -2.636   0.172  0.00  0.00    +0.009 A 
ATOM     15  C   UNL     1      -1.355  -1.990   0.252  0.00  0.00    +0.046 A 
BRANCH  10  17
ATOM     16  C   UNL     1      -0.131   1.463   0.287  0.00  0.00    +0.277 C 
ATOM     17  O   UNL     1      -0.107   0.035   0.314  0.00  0.00    -0.495 OA
ENDBRANCH  10  17
ENDBRANCH   1  13
BRANCH   2  18
ATOM     18  C   UNL     1      -5.300  -2.031  -2.506  0.00  0.00    +0.339 C 
ATOM     19  O   UNL     1      -4.252  -1.601  -2.950  0.00  0.00    -0.245 OA
BRANCH  18  20
ATOM     20  O   UNL     1      -6.475  -1.581  -2.995  0.00  0.00    -0.465 OA
ATOM     21  C   UNL     1      -6.413  -0.599  -4.031  0.00  0.00    +0.280 C 
ENDBRANCH  18  20
ENDBRANCH   2  18
BRANCH   3  22
ATOM     22  C   UNL     1      -5.695  -4.746  -3.180  0.00  0.00    +0.136 C 
BRANCH  22  23
ATOM     23  N   UNL     1      -4.582  -5.601  -3.612  0.00  0.00    -0.294 NA
ATOM     24  C   UNL     1      -3.325  -4.843  -3.662  0.00  0.00    +0.103 C 
ATOM     25  C   UNL     1      -2.163  -5.804  -3.938  0.00  0.00    +0.122 C 
ATOM     26  N   UNL     1      -2.473  -6.575  -5.152  0.00  0.00    -0.314 N 
ATOM     27  C   UNL     1      -3.777  -7.252  -5.232  0.00  0.00    +0.122 C 
ATOM     28  C   UNL     1      -4.875  -6.234  -4.905  0.00  0.00    +0.103 C 
ATOM     29  C   UNL     1      -1.558  -6.663  -6.194  0.00  0.00    +0.099 A 
ATOM     30  C   UNL     1      -0.281  -6.133  -6.038  0.00  0.00    +0.042 A 
ATOM     31  C   UNL     1       0.619  -6.227  -7.083  0.00  0.00    +0.005 A 
ATOM     32  C   UNL     1       0.210  -6.850  -8.256  0.00  0.00    +0.018 A 
ATOM     33  C   UNL     1      -1.072  -7.353  -8.342  0.00  0.00    +0.084 A 
ATOM     34  N   UNL     1      -1.908  -7.254  -7.326  0.00  0.00    -0.350 N 
ATOM     35  H   UNL     1      -2.803  -7.620  -7.412  0.00  0.00    +0.166 HD
ENDBRANCH  22  23
ENDBRANCH   3  22
TORSDOF 6
