REMARK  Name = ZINC09469741
REMARK  15 active torsions:
REMARK  status: ('A' for Active; 'I' for Inactive)
REMARK    1  A    between atoms: C_1  and  C_2
REMARK    2  A    between atoms: C_2  and  N_64
REMARK    3  A    between atoms: C_3  and  C_4
REMARK    4  A    between atoms: C_3  and  N_64
REMARK    5  A    between atoms: C_5  and  C_6
REMARK    6  A    between atoms: C_5  and  N_64
REMARK    7  A    between atoms: C_9  and  C_12
REMARK    8  A    between atoms: C_12  and  N_13
REMARK    9  A    between atoms: N_16  and  C_17
REMARK   10  A    between atoms: C_17  and  C_18
REMARK   11  A    between atoms: C_18  and  N_19
REMARK   12  A    between atoms: N_19  and  C_20
REMARK   13  A    between atoms: C_23  and  S_29
REMARK   14  A    between atoms: C_25  and  N_26
REMARK   15  A    between atoms: S_29  and  C_32
REMARK                            x       y       z     vdW  Elec       q    Type
REMARK                         _______ _______ _______ _____ _____    ______ ____
ROOT
ATOM      1  N   UNL     1      -3.951  -0.200   4.554  0.00  0.00    -0.295 N 
ATOM      2  C   UNL     1      -4.399   0.149   5.776  0.00  0.00    +0.300 C 
ATOM      3  O   UNL     1      -5.338   0.914   5.884  0.00  0.00    -0.253 OA
ATOM      4  N   UNL     1      -3.807  -0.350   6.879  0.00  0.00    -0.298 N 
ATOM      5  H   UNL     1      -3.202  -0.810   4.468  0.00  0.00    +0.151 HD
ATOM      6  H   UNL     1      -3.058  -0.961   6.793  0.00  0.00    +0.150 HD
ENDROOT
BRANCH   1   7
ATOM      7  C   UNL     1      -4.595   0.343   3.355  0.00  0.00    +0.141 C 
BRANCH   7  11
ATOM      8  C   UNL     1      -2.653  -1.193  -0.126  0.00  0.00    -0.064 A 
ATOM      9  C   UNL     1      -2.207  -0.019   0.454  0.00  0.00    +0.002 A 
ATOM     10  C   UNL     1      -2.837   0.480   1.578  0.00  0.00    +0.005 A 
ATOM     11  C   UNL     1      -3.909  -0.199   2.127  0.00  0.00    -0.030 A 
ATOM     12  C   UNL     1      -4.352  -1.375   1.551  0.00  0.00    +0.005 A 
ATOM     13  C   UNL     1      -3.723  -1.872   0.425  0.00  0.00    +0.002 A 
BRANCH   8  14
ATOM     14  C   UNL     1      -1.968  -1.734  -1.354  0.00  0.00    -0.043 C 
BRANCH  14  15
ATOM     15  N   UNL     1      -2.643  -1.195  -2.553  0.00  0.00    +0.382 N 
ATOM     16  H   UNL     1      -3.652  -1.366  -2.473  0.00  0.00    -0.081 HD
BRANCH  15  18
ATOM     17  C   UNL     1      -0.918   0.555  -2.830  0.00  0.00    -0.017 C 
ATOM     18  C   UNL     1      -2.409   0.261  -2.652  0.00  0.00    -0.082 C 
ENDBRANCH  15  18
BRANCH  15  19
ATOM     19  C   UNL     1      -2.135  -1.871  -3.766  0.00  0.00    -0.082 C 
ATOM     20  C   UNL     1      -3.051  -1.526  -4.942  0.00  0.00    -0.017 C 
ENDBRANCH  15  19
ENDBRANCH  14  15
ENDBRANCH   8  14
ENDBRANCH   7  11
ENDBRANCH   1   7
BRANCH   4  21
ATOM     21  C   UNL     1      -4.295   0.029   8.207  0.00  0.00    +0.124 C 
BRANCH  21  22
ATOM     22  C   UNL     1      -3.455  -0.672   9.278  0.00  0.00    +0.120 C 
BRANCH  22  23
ATOM     23  N   UNL     1      -3.943  -0.293  10.606  0.00  0.00    -0.341 N 
ATOM     24  H   UNL     1      -4.692   0.317  10.692  0.00  0.00    +0.146 HD
BRANCH  23  25
ATOM     25  C   UNL     1      -3.329  -0.811  11.749  0.00  0.00    +0.058 A 
ATOM     26  C   UNL     1      -2.222  -1.641  11.629  0.00  0.00    +0.027 A 
ATOM     27  C   UNL     1      -1.617  -2.151  12.761  0.00  0.00    +0.029 A 
ATOM     28  C   UNL     1      -2.114  -1.837  14.014  0.00  0.00    +0.090 A 
ATOM     29  C   UNL     1      -3.216  -1.011  14.136  0.00  0.00    +0.061 A 
ATOM     30  C   UNL     1      -3.821  -0.492  13.008  0.00  0.00    +0.149 A 
BRANCH  28  31
ATOM     31  S   UNL     1      -1.340  -2.490  15.455  0.00  0.00    -0.006 S 
ATOM     32  O   UNL     1      -2.367  -2.518  16.437  0.00  0.00    -0.170 OA
ATOM     33  O   UNL     1      -0.721  -3.693  15.021  0.00  0.00    -0.170 OA
ATOM     34  C   UNL     1      -0.080  -1.265  15.904  0.00  0.00    +0.200 C 
ENDBRANCH  28  31
BRANCH  30  35
ATOM     35  N   UNL     1      -4.998   0.396  13.141  0.00  0.00    +0.058 N 
ATOM     36  O   UNL     1      -5.124   1.354  12.399  0.00  0.00    -0.126 OA
ATOM     37  O   UNL     1      -5.839   0.170  13.992  0.00  0.00    -0.126 OA
ENDBRANCH  30  35
ENDBRANCH  23  25
ENDBRANCH  22  23
ENDBRANCH  21  22
ENDBRANCH   4  21
TORSDOF 12
