REMARK  Name = ZINC21762285
REMARK  6 active torsions:
REMARK  status: ('A' for Active; 'I' for Inactive)
REMARK    1  A    between atoms: C_1  and  C_2
REMARK    2  A    between atoms: C_2  and  C_4
REMARK    3  A    between atoms: C_2  and  S_19
REMARK    4  A    between atoms: N_6  and  C_7
REMARK    5  A    between atoms: C_12  and  C_13
REMARK    6  A    between atoms: S_19  and  C_20
REMARK                            x       y       z     vdW  Elec       q    Type
REMARK                         _______ _______ _______ _____ _____    ______ ____
ROOT
ATOM      1  C   UNL     1       1.983   3.581  -0.124  0.00  0.00    +0.230 C 
ATOM      2  O   UNL     1       1.133   4.357   0.260  0.00  0.00    -0.274 OA
ATOM      3  N   UNL     1       3.135   4.047  -0.646  0.00  0.00    -0.284 N 
ATOM      4  H   UNL     1       3.942   3.348  -0.910  0.00  0.00    +0.155 HD
ENDROOT
BRANCH   3   5
ATOM      5  C   UNL     1       3.304   5.419  -0.852  0.00  0.00    +0.041 A 
ATOM      6  C   UNL     1       2.198   6.239  -1.025  0.00  0.00    +0.024 A 
ATOM      7  C   UNL     1       2.367   7.595  -1.224  0.00  0.00    +0.002 A 
ATOM      8  C   UNL     1       3.638   8.143  -1.262  0.00  0.00    +0.001 A 
ATOM      9  C   UNL     1       4.747   7.339  -1.097  0.00  0.00    +0.010 A 
ATOM     10  C   UNL     1       4.589   5.970  -0.891  0.00  0.00    +0.003 A 
BRANCH  10  11
ATOM     11  C   UNL     1       5.778   5.102  -0.713  0.00  0.00    -0.016 A 
ATOM     12  C   UNL     1       5.846   4.221   0.365  0.00  0.00    +0.008 A 
ATOM     13  C   UNL     1       6.952   3.412   0.523  0.00  0.00    +0.001 A 
ATOM     14  C   UNL     1       7.998   3.481  -0.380  0.00  0.00    +0.000 A 
ATOM     15  C   UNL     1       7.939   4.357  -1.448  0.00  0.00    +0.001 A 
ATOM     16  C   UNL     1       6.835   5.167  -1.619  0.00  0.00    +0.008 A 
ENDBRANCH  10  11
ENDBRANCH   3   5
BRANCH   1  18
ATOM     17  C   UNL     1       2.377   1.574   1.278  0.00  0.00    +0.029 C 
ATOM     18  C   UNL     1       1.751   2.096  -0.017  0.00  0.00    +0.137 C 
BRANCH  18  19
ATOM     19  S   UNL     1      -0.028   1.763  -0.003  0.00  0.00    -0.073 S 
BRANCH  19  20
ATOM     20  C   UNL     1      -0.010   0.001  -0.025  0.00  0.00    +0.192 A 
ATOM     21  N   UNL     1      -1.160  -0.663  -0.016  0.00  0.00    -0.207 NA
ATOM     22  C   UNL     1      -1.209  -1.984  -0.037  0.00  0.00    +0.129 A 
ATOM     23  C   UNL     1       0.005  -2.726  -0.059  0.00  0.00    +0.047 A 
ATOM     24  C   UNL     1       0.212  -4.164  -0.079  0.00  0.00    +0.021 A 
ATOM     25  C   UNL     1       1.464  -4.644  -0.099  0.00  0.00    +0.048 A 
ATOM     26  S   UNL     1       2.474  -3.176  -0.091  0.00  0.00    -0.077 S 
ATOM     27  C   UNL     1       1.188  -1.956  -0.062  0.00  0.00    +0.114 A 
ATOM     28  N   UNL     1       1.152  -0.637  -0.045  0.00  0.00    -0.215 NA
ATOM     29  N   UNL     1      -2.428  -2.638  -0.033  0.00  0.00    -0.343 N 
ATOM     30  H   UNL     1      -2.462  -3.737  -0.050  0.00  0.00    +0.144 HD
ATOM     31  H   UNL     1      -3.363  -2.059  -0.011  0.00  0.00    +0.144 HD
ENDBRANCH  19  20
ENDBRANCH  18  19
ENDBRANCH   1  18
TORSDOF 5
