REMARK  Name = ZINC11037238
REMARK  7 active torsions:
REMARK  status: ('A' for Active; 'I' for Inactive)
REMARK    1  A    between atoms: C_1  and  C_2
REMARK    2  A    between atoms: C_2  and  C_3
REMARK    3  A    between atoms: C_8  and  N_9
REMARK    4  A    between atoms: C_10  and  C_12
REMARK    5  A    between atoms: C_12  and  N_65
REMARK    6  A    between atoms: C_18  and  C_20
REMARK    7  A    between atoms: N_23  and  C_25
REMARK                            x       y       z     vdW  Elec       q    Type
REMARK                         _______ _______ _______ _____ _____    ______ ____
ROOT
ATOM      1  C   UNL     1       0.898   0.678  -0.633  0.00  0.00    -0.059 C 
ATOM      2  C   UNL     1       0.096   0.828   0.663  0.00  0.00    +0.089 C 
ATOM      3  N   UNL     1      -0.323   2.232   0.794  0.00  0.00    -0.300 N 
ATOM      4  C   UNL     1      -0.999   2.867  -0.347  0.00  0.00    +0.089 C 
ATOM      5  C   UNL     1      -0.153   2.637  -1.603  0.00  0.00    -0.059 C 
ATOM      6  C   UNL     1      -0.092   2.918   1.931  0.00  0.00    +0.267 C 
ATOM      7  O   UNL     1      -0.337   4.108   1.983  0.00  0.00    -0.268 OA
ATOM      8  N   UNL     1       0.082   1.185  -1.758  0.00  0.00    +0.387 N 
ATOM      9  H   UNL     1      -0.822   0.699  -1.759  0.00  0.00    -0.081 HD
ENDROOT
BRANCH   6  10
ATOM     10  C   UNL     1       0.458   2.226   3.114  0.00  0.00    +0.151 A 
ATOM     11  C   UNL     1       0.861   2.827   4.328  0.00  0.00    +0.006 A 
ATOM     12  C   UNL     1       1.292   1.816   5.114  0.00  0.00    +0.049 A 
ATOM     13  N   UNL     1       1.157   0.669   4.395  0.00  0.00    -0.236 N 
ATOM     14  N   UNL     1       0.671   0.930   3.235  0.00  0.00    -0.161 NA
ATOM     15  C   UNL     1       1.745   2.353   6.453  0.00  0.00    +0.056 C 
ATOM     16  C   UNL     1       1.945   3.870   6.228  0.00  0.00    +0.011 C 
ATOM     17  C   UNL     1       0.983   4.147   5.051  0.00  0.00    +0.040 C 
BRANCH  13  18
ATOM     18  C   UNL     1       1.500  -0.611   4.853  0.00  0.00    +0.066 A 
ATOM     19  C   UNL     1       2.597  -0.780   5.687  0.00  0.00    +0.030 A 
ATOM     20  C   UNL     1       2.930  -2.041   6.141  0.00  0.00    +0.040 A 
ATOM     21  C   UNL     1       2.177  -3.138   5.757  0.00  0.00    +0.124 A 
ATOM     22  C   UNL     1       1.085  -2.971   4.921  0.00  0.00    +0.040 A 
ATOM     23  C   UNL     1       0.746  -1.712   4.469  0.00  0.00    +0.030 A 
ATOM     24  F   UNL     1       2.507  -4.371   6.198  0.00  0.00    -0.205 F 
ENDBRANCH  13  18
ENDBRANCH   6  10
BRANCH   8  25
ATOM     25  C   UNL     1       0.769   0.919  -3.039  0.00  0.00    +0.019 C 
BRANCH  25  27
ATOM     26  N   UNL     1       0.222   1.062  -5.447  0.00  0.00    -0.287 N 
ATOM     27  C   UNL     1      -0.172   1.243  -4.171  0.00  0.00    +0.201 C 
ATOM     28  O   UNL     1      -1.283   1.665  -3.933  0.00  0.00    -0.278 OA
ATOM     29  H   UNL     1       1.103   0.704  -5.637  0.00  0.00    +0.155 HD
BRANCH  26  35
ATOM     30  C   UNL     1      -0.124   1.816  -7.716  0.00  0.00    -0.026 A 
ATOM     31  C   UNL     1      -0.978   2.141  -8.752  0.00  0.00    +0.005 A 
ATOM     32  C   UNL     1      -2.346   2.045  -8.577  0.00  0.00    +0.000 A 
ATOM     33  C   UNL     1      -2.864   1.623  -7.366  0.00  0.00    +0.002 A 
ATOM     34  C   UNL     1      -2.015   1.292  -6.329  0.00  0.00    +0.023 A 
ATOM     35  C   UNL     1      -0.641   1.393  -6.498  0.00  0.00    +0.036 A 
BRANCH  30  37
ATOM     36  C   UNL     1       1.927   0.555  -8.311  0.00  0.00    +0.009 C 
ATOM     37  C   UNL     1       1.367   1.920  -7.907  0.00  0.00    +0.033 C 
ENDBRANCH  30  37
ENDBRANCH  26  35
ENDBRANCH  25  27
ENDBRANCH   8  25
TORSDOF 6
