REMARK  Name = ZINC25071140
REMARK  10 active torsions:
REMARK  status: ('A' for Active; 'I' for Inactive)
REMARK    1  A    between atoms: C_1  and  C_2
REMARK    2  A    between atoms: C_2  and  O_3
REMARK    3  A    between atoms: O_3  and  C_4
REMARK    4  A    between atoms: C_6  and  C_11
REMARK    5  A    between atoms: C_9  and  O_10
REMARK    6  A    between atoms: C_13  and  C_27
REMARK    7  A    between atoms: C_14  and  C_26
REMARK    8  A    between atoms: N_15  and  C_19
REMARK    9  A    between atoms: N_29  and  C_30
REMARK   10  A    between atoms: N_29  and  C_31
REMARK                            x       y       z     vdW  Elec       q    Type
REMARK                         _______ _______ _______ _____ _____    ______ ____
ROOT
ATOM      1  C   UNL     1      -2.625   3.261   5.736  0.00  0.00    +0.139 C 
ATOM      2  C   UNL     1      -2.366   2.029   6.579  0.00  0.00    +0.056 C 
ATOM      3  C   UNL     1      -2.884   1.999   7.825  0.00  0.00    +0.025 C 
ATOM      4  N   UNL     1      -3.618   3.045   8.309  0.00  0.00    -0.255 N 
ATOM      5  C   UNL     1      -3.877   4.157   7.608  0.00  0.00    +0.142 C 
ATOM      6  S   UNL     1      -4.811   5.394   8.334  0.00  0.00    -0.018 S 
ATOM      7  N   UNL     1      -3.427   4.332   6.350  0.00  0.00    -0.315 N 
ATOM      8  C   UNL     1      -2.650   0.792   8.697  0.00  0.00    +0.062 C 
ATOM      9  H   UNL     1      -3.646   5.249   5.783  0.00  0.00    +0.149 HD
ENDROOT
BRANCH   4  10
ATOM     10  C   UNL     1      -4.128   2.950   9.610  0.00  0.00    +0.040 A 
ATOM     11  C   UNL     1      -5.418   2.482   9.819  0.00  0.00    +0.025 A 
ATOM     12  C   UNL     1      -5.916   2.384  11.104  0.00  0.00    +0.022 A 
ATOM     13  C   UNL     1      -5.134   2.762  12.181  0.00  0.00    +0.041 A 
ATOM     14  C   UNL     1      -3.849   3.233  11.975  0.00  0.00    +0.022 A 
ATOM     15  C   UNL     1      -3.345   3.329  10.693  0.00  0.00    +0.025 A 
ATOM     16 CL   UNL     1      -5.765   2.644  13.794  0.00  0.00    -0.084 Cl
ENDBRANCH   4  10
BRANCH   1  19
ATOM     17  C   UNL     1      -3.264   2.364   2.123  0.00  0.00    +0.162 A 
ATOM     18  C   UNL     1      -2.624   2.766   3.284  0.00  0.00    +0.055 A 
ATOM     19  C   UNL     1      -3.323   2.822   4.475  0.00  0.00    -0.019 A 
ATOM     20  C   UNL     1      -4.662   2.478   4.511  0.00  0.00    +0.009 A 
ATOM     21  C   UNL     1      -5.307   2.076   3.357  0.00  0.00    +0.049 A 
ATOM     22  C   UNL     1      -4.613   2.023   2.158  0.00  0.00    +0.158 A 
BRANCH  22  23
ATOM     23  O   UNL     1      -5.248   1.632   1.020  0.00  0.00    -0.503 OA
ATOM     24  H   UNL     1      -6.314   1.363   1.050  0.00  0.00    +0.292 HD
ENDBRANCH  22  23
BRANCH  17  25
ATOM     25  O   UNL     1      -2.578   2.308   0.950  0.00  0.00    -0.489 OA
BRANCH  25  27
ATOM     26  C   UNL     1      -0.562   2.385  -0.381  0.00  0.00    +0.048 C 
ATOM     27  C   UNL     1      -1.182   2.607   1.001  0.00  0.00    +0.226 C 
ENDBRANCH  25  27
ENDBRANCH  17  25
ENDBRANCH   1  19
BRANCH   2  28
ATOM     28  C   UNL     1      -1.605   0.944   6.076  0.00  0.00    +0.246 C 
ATOM     29  O   UNL     1      -2.131   0.114   5.357  0.00  0.00    -0.270 OA
ATOM     30  N   UNL     1      -0.300   0.832   6.393  0.00  0.00    -0.304 N 
ATOM     31  C   UNL     1       0.511  -0.229   5.791  0.00  0.00    +0.132 C 
ATOM     32  C   UNL     1       0.307   1.770   7.340  0.00  0.00    +0.132 C 
ENDBRANCH   2  28
TORSDOF 6
