REMARK  Name = ZINC52124993
REMARK  6 active torsions:
REMARK  status: ('A' for Active; 'I' for Inactive)
REMARK    1  A    between atoms: C_1  and  C_2
REMARK    2  A    between atoms: C_5  and  N_21
REMARK    3  A    between atoms: C_6  and  C_8
REMARK    4  A    between atoms: N_16  and  C_17
REMARK    5  A    between atoms: C_17  and  C_18
REMARK    6  A    between atoms: C_17  and  C_19
REMARK                            x       y       z     vdW  Elec       q    Type
REMARK                         _______ _______ _______ _____ _____    ______ ____
ROOT
ATOM      1  C   UNL     1       0.010  -2.858   2.551  0.00  0.00    +0.144 A 
ATOM      2  N   UNL     1       0.185  -4.154   2.644  0.00  0.00    -0.227 NA
ATOM      3  C   UNL     1       0.270  -4.510   3.950  0.00  0.00    +0.090 A 
ATOM      4  C   UNL     1       0.451  -5.734   4.601  0.00  0.00    +0.033 A 
ATOM      5  C   UNL     1       0.496  -5.780   5.965  0.00  0.00    +0.040 A 
ATOM      6  C   UNL     1       0.362  -4.620   6.718  0.00  0.00    +0.125 A 
ATOM      7  C   UNL     1       0.182  -3.400   6.096  0.00  0.00    +0.066 A 
ATOM      8  C   UNL     1       0.135  -3.335   4.710  0.00  0.00    +0.072 A 
ATOM      9  N   UNL     1      -0.023  -2.305   3.804  0.00  0.00    -0.321 N 
ATOM     10  F   UNL     1       0.408  -4.685   8.067  0.00  0.00    -0.205 F 
ENDROOT
BRANCH   1  16
ATOM     11  C   UNL     1       1.333   0.976  -0.351  0.00  0.00    +0.044 C 
ATOM     12  C   UNL     1       0.507  -0.263  -0.116  0.00  0.00    -0.050 A 
ATOM     13  C   UNL     1      -0.379  -0.696  -1.088  0.00  0.00    +0.005 A 
ATOM     14  C   UNL     1      -1.141  -1.829  -0.884  0.00  0.00    +0.024 A 
ATOM     15  C   UNL     1      -1.022  -2.543   0.300  0.00  0.00    +0.035 A 
ATOM     16  C   UNL     1      -0.125  -2.107   1.286  0.00  0.00    +0.038 A 
ATOM     17  C   UNL     1       0.642  -0.963   1.064  0.00  0.00    +0.016 A 
BRANCH  15  18
ATOM     18  N   UNL     1      -1.789  -3.686   0.508  0.00  0.00    -0.357 N 
ATOM     19  H   UNL     1      -2.456  -3.948  -0.146  0.00  0.00    +0.142 HD
ATOM     20  H   UNL     1      -1.657  -4.220   1.307  0.00  0.00    +0.142 HD
ENDBRANCH  15  18
ENDBRANCH   1  16
BRANCH   9  21
ATOM     21  C   UNL     1      -0.196  -0.885   4.122  0.00  0.00    +0.083 C 
ATOM     22  C   UNL     1      -1.440  -0.707   4.995  0.00  0.00    +0.030 C 
ATOM     23  C   UNL     1       1.034  -0.378   4.878  0.00  0.00    +0.030 C 
ENDBRANCH   9  21
TORSDOF 3
