REMARK  Name = ZINC12756168
REMARK  7 active torsions:
REMARK  status: ('A' for Active; 'I' for Inactive)
REMARK    1  A    between atoms: C_1  and  C_2
REMARK    2  A    between atoms: C_2  and  C_27
REMARK    3  A    between atoms: N_5  and  C_9
REMARK    4  A    between atoms: C_9  and  C_10
REMARK    5  A    between atoms: C_10  and  C_12
REMARK    6  A    between atoms: C_10  and  O_26
REMARK    7  A    between atoms: C_12  and  N_13
REMARK                            x       y       z     vdW  Elec       q    Type
REMARK                         _______ _______ _______ _____ _____    ______ ____
ROOT
ATOM      1  C   UNL     1      -4.318   4.893   3.231  0.00  0.00    +0.151 C 
ENDROOT
BRANCH   1   6
ATOM      2  C   UNL     1      -2.673   5.060  -1.169  0.00  0.00    +0.047 C 
ATOM      3  C   UNL     1      -2.558   4.140   0.048  0.00  0.00    +0.138 C 
ATOM      4  C   UNL     1      -2.712   4.929   1.334  0.00  0.00    +0.251 C 
ATOM      5  O   UNL     1      -2.004   5.829   1.730  0.00  0.00    -0.272 OA
ATOM      6  N   UNL     1      -3.801   4.420   1.945  0.00  0.00    -0.221 N 
ATOM      7  C   UNL     1      -4.350   3.431   1.231  0.00  0.00    +0.310 C 
ATOM      8  O   UNL     1      -5.341   2.817   1.578  0.00  0.00    -0.252 OA
ATOM      9  N   UNL     1      -3.683   3.190   0.088  0.00  0.00    -0.281 N 
ATOM     10  H   UNL     1      -3.901   2.521  -0.580  0.00  0.00    +0.152 HD
BRANCH   3  11
ATOM     11  C   UNL     1      -1.243   3.404   0.032  0.00  0.00    +0.022 A 
ATOM     12  C   UNL     1      -1.224   2.023   0.019  0.00  0.00    +0.047 A 
ATOM     13  C   UNL     1      -0.016   1.347   0.009  0.00  0.00    +0.124 A 
ATOM     14  C   UNL     1       1.173   2.055   0.002  0.00  0.00    +0.041 A 
ATOM     15  C   UNL     1       1.155   3.437   0.010  0.00  0.00    +0.041 A 
ATOM     16  C   UNL     1      -0.054   4.113   0.026  0.00  0.00    +0.129 A 
ATOM     17  F   UNL     1      -0.072   5.464   0.034  0.00  0.00    -0.205 F 
ATOM     18  F   UNL     1       0.002  -0.004   0.002  0.00  0.00    -0.205 F 
ENDBRANCH   3  11
ENDBRANCH   1   6
BRANCH   1  19
ATOM     19  C   UNL     1      -3.666   4.100   4.365  0.00  0.00    +0.152 C 
BRANCH  19  20
ATOM     20  O   UNL     1      -3.968   2.712   4.211  0.00  0.00    -0.388 OA
ATOM     21  H   UNL     1      -4.913   2.510   4.230  0.00  0.00    +0.210 HD
ENDBRANCH  19  20
BRANCH  19  22
ATOM     22  C   UNL     1      -4.206   4.593   5.709  0.00  0.00    +0.155 C 
BRANCH  22  23
ATOM     23  N   UNL     1      -3.496   3.919   6.798  0.00  0.00    -0.337 N 
ATOM     24  C   UNL     1      -3.891   2.729   7.383  0.00  0.00    +0.050 A 
ATOM     25  C   UNL     1      -4.965   1.877   7.140  0.00  0.00    +0.026 A 
ATOM     26  C   UNL     1      -5.115   0.727   7.886  0.00  0.00    +0.002 A 
ATOM     27  C   UNL     1      -4.201   0.404   8.876  0.00  0.00    +0.001 A 
ATOM     28  C   UNL     1      -3.128   1.232   9.127  0.00  0.00    +0.010 A 
ATOM     29  C   UNL     1      -2.964   2.397   8.382  0.00  0.00    +0.008 A 
ATOM     30  C   UNL     1      -1.957   3.474   8.392  0.00  0.00    +0.008 A 
ATOM     31  C   UNL     1      -2.337   4.384   7.394  0.00  0.00    +0.050 A 
ATOM     32  C   UNL     1      -1.560   5.517   7.173  0.00  0.00    +0.026 A 
ATOM     33  C   UNL     1      -0.429   5.737   7.931  0.00  0.00    +0.002 A 
ATOM     34  C   UNL     1      -0.055   4.836   8.916  0.00  0.00    +0.001 A 
ATOM     35  C   UNL     1      -0.812   3.708   9.150  0.00  0.00    +0.010 A 
ENDBRANCH  22  23
ENDBRANCH  19  22
ENDBRANCH   1  19
TORSDOF 6
