REMARK  Name = ZINC40309755
REMARK  11 active torsions:
REMARK  status: ('A' for Active; 'I' for Inactive)
REMARK    1  A    between atoms: C_1  and  O_2
REMARK    2  A    between atoms: O_2  and  C_3
REMARK    3  A    between atoms: C_6  and  O_35
REMARK    4  A    between atoms: C_7  and  C_9
REMARK    5  A    between atoms: N_22  and  C_23
REMARK    6  A    between atoms: C_25  and  C_31
REMARK    7  A    between atoms: C_28  and  O_29
REMARK    8  A    between atoms: O_29  and  C_30
REMARK    9  A    between atoms: C_31  and  O_33
REMARK   10  A    between atoms: O_33  and  C_34
REMARK   11  A    between atoms: O_35  and  C_36
REMARK                            x       y       z     vdW  Elec       q    Type
REMARK                         _______ _______ _______ _____ _____    ______ ____
ROOT
ATOM      1  C   UNL     1      -2.568  -4.041  -0.042  0.00  0.00    +0.160 C 
ATOM      2  C   UNL     1      -3.057  -4.431   1.331  0.00  0.00    +0.064 A 
ATOM      3  C   UNL     1      -2.441  -5.330   2.128  0.00  0.00    +0.066 A 
ATOM      4  N   UNL     1      -3.145  -5.421   3.261  0.00  0.00    -0.240 NA
ATOM      5  C   UNL     1      -4.173  -4.616   3.195  0.00  0.00    +0.197 A 
ATOM      6  N   UNL     1      -4.152  -3.980   2.000  0.00  0.00    -0.346 N 
ATOM      7  H   UNL     1      -4.795  -3.328   1.683  0.00  0.00    +0.167 HD
ATOM      8  C   UNL     1      -1.186  -6.078   1.757  0.00  0.00    +0.076 C 
ATOM      9  C   UNL     1      -0.501  -5.350   0.594  0.00  0.00    +0.116 C 
ATOM     10  N   UNL     1      -1.510  -4.996  -0.418  0.00  0.00    -0.272 N 
ATOM     11  C   UNL     1      -1.470  -5.532  -1.654  0.00  0.00    +0.307 C 
ATOM     12  O   UNL     1      -0.621  -6.357  -1.932  0.00  0.00    -0.252 OA
ATOM     13  N   UNL     1      -2.371  -5.153  -2.583  0.00  0.00    -0.266 N 
ATOM     14  H   UNL     1      -3.009  -4.450  -2.381  0.00  0.00    +0.156 HD
ENDROOT
BRANCH   1  19
ATOM     15  C   UNL     1      -1.233  -0.744   1.233  0.00  0.00    +0.121 A 
ATOM     16  C   UNL     1      -0.978  -0.070   0.047  0.00  0.00    +0.049 A 
ATOM     17  C   UNL     1      -1.239  -0.681  -1.164  0.00  0.00    +0.049 A 
ATOM     18  C   UNL     1      -1.754  -1.969  -1.194  0.00  0.00    +0.126 A 
ATOM     19  C   UNL     1      -2.008  -2.642  -0.009  0.00  0.00    +0.024 A 
ATOM     20  C   UNL     1      -1.743  -2.033   1.202  0.00  0.00    +0.055 A 
BRANCH  15  22
ATOM     21  C   UNL     1      -0.452   1.187   2.381  0.00  0.00    +0.277 C 
ATOM     22  O   UNL     1      -0.977  -0.142   2.425  0.00  0.00    -0.495 OA
ENDBRANCH  15  22
BRANCH  18  23
ATOM     23  O   UNL     1      -2.011  -2.570  -2.386  0.00  0.00    -0.495 OA
ATOM     24  C   UNL     1      -1.726  -1.818  -3.567  0.00  0.00    +0.277 C 
ENDBRANCH  18  23
ENDBRANCH   1  19
BRANCH  13  25
ATOM     25  C   UNL     1      -2.386  -5.774  -3.840  0.00  0.00    +0.078 A 
ATOM     26  C   UNL     1      -1.243  -6.384  -4.323  0.00  0.00    +0.042 A 
ATOM     27  C   UNL     1      -1.262  -7.002  -5.577  0.00  0.00    +0.061 A 
ATOM     28  C   UNL     1      -2.436  -6.999  -6.336  0.00  0.00    +0.018 A 
ATOM     29  C   UNL     1      -3.571  -6.389  -5.848  0.00  0.00    +0.048 A 
ATOM     30  C   UNL     1      -3.555  -5.781  -4.601  0.00  0.00    +0.141 A 
BRANCH  30  31
ATOM     31  O   UNL     1      -4.678  -5.186  -4.122  0.00  0.00    -0.493 OA
ATOM     32  C   UNL     1      -5.840  -5.231  -4.954  0.00  0.00    +0.277 C 
ENDBRANCH  30  31
BRANCH  27  33
ATOM     33  C   UNL     1      -0.047  -7.654  -6.098  0.00  0.00    +0.339 C 
ATOM     34  O   UNL     1       0.973  -7.655  -5.437  0.00  0.00    -0.245 OA
BRANCH  33  35
ATOM     35  O   UNL     1      -0.067  -8.249  -7.306  0.00  0.00    -0.464 OA
ATOM     36  C   UNL     1       1.146  -8.861  -7.748  0.00  0.00    +0.280 C 
ENDBRANCH  33  35
ENDBRANCH  27  33
ENDBRANCH  13  25
TORSDOF 7
