REMARK  Name = ZINC06443856
REMARK  10 active torsions:
REMARK  status: ('A' for Active; 'I' for Inactive)
REMARK    1  A    between atoms: C_1  and  C_2
REMARK    2  A    between atoms: C_12  and  C_14
REMARK    3  A    between atoms: C_14  and  C_16
REMARK    4  A    between atoms: C_14  and  N_68
REMARK    5  A    between atoms: N_20  and  C_21
REMARK    6  A    between atoms: C_21  and  C_22
REMARK    7  A    between atoms: C_28  and  C_29
REMARK    8  A    between atoms: C_28  and  N_68
REMARK    9  A    between atoms: C_34  and  C_35
REMARK   10  A    between atoms: C_34  and  N_68
REMARK                            x       y       z     vdW  Elec       q    Type
REMARK                         _______ _______ _______ _____ _____    ______ ____
ROOT
ATOM      1  C   UNL     1      -4.656   6.088  -0.012  0.00  0.00    +0.039 C 
ENDROOT
BRANCH   1  13
ATOM      2  C   UNL     1       1.322   3.631  -1.210  0.00  0.00    +0.046 C 
ATOM      3  C   UNL     1       0.799   4.465  -0.069  0.00  0.00    -0.026 A 
ATOM      4  C   UNL     1       1.639   4.834   0.960  0.00  0.00    +0.005 A 
ATOM      5  C   UNL     1       1.170   5.601   2.017  0.00  0.00    +0.001 A 
ATOM      6  C   UNL     1      -0.136   6.001   2.060  0.00  0.00    +0.010 A 
ATOM      7  C   UNL     1      -1.005   5.644   1.024  0.00  0.00    -0.001 A 
ATOM      8  C   UNL     1      -0.533   4.865  -0.050  0.00  0.00    +0.052 A 
ATOM      9  N   UNL     1      -1.395   4.510  -1.065  0.00  0.00    -0.322 N 
ATOM     10  H   UNL     1      -1.068   3.974  -1.804  0.00  0.00    +0.169 HD
ATOM     11  C   UNL     1      -2.683   4.897  -1.046  0.00  0.00    +0.251 A 
ATOM     12  O   UNL     1      -3.416   4.565  -1.961  0.00  0.00    -0.268 OA
ATOM     13  C   UNL     1      -3.206   5.678   0.007  0.00  0.00    +0.011 A 
ATOM     14  C   UNL     1      -2.409   6.059   1.036  0.00  0.00    +0.017 A 
ENDBRANCH   1  13
BRANCH   1  15
ATOM     15  C   UNL     1      -4.878   7.191   0.991  0.00  0.00    +0.143 A 
ATOM     16  N   UNL     1      -4.150   8.270   1.143  0.00  0.00    -0.115 NA
ATOM     17  N   UNL     1      -4.663   8.965   2.099  0.00  0.00    -0.023 NA
ATOM     18  N   UNL     1      -5.695   8.354   2.566  0.00  0.00    -0.044 NA
ATOM     19  N   UNL     1      -5.861   7.256   1.909  0.00  0.00    -0.226 N 
BRANCH  19  20
ATOM     20  C   UNL     1      -6.919   6.266   2.122  0.00  0.00    +0.182 C 
BRANCH  20  21
ATOM     21  C   UNL     1      -6.513   5.327   3.229  0.00  0.00    -0.026 A 
ATOM     22  C   UNL     1      -5.743   4.215   2.945  0.00  0.00    +0.005 A 
ATOM     23  C   UNL     1      -5.367   3.357   3.961  0.00  0.00    +0.000 A 
ATOM     24  C   UNL     1      -5.769   3.605   5.260  0.00  0.00    +0.000 A 
ATOM     25  C   UNL     1      -6.544   4.714   5.544  0.00  0.00    +0.000 A 
ATOM     26  C   UNL     1      -6.916   5.576   4.528  0.00  0.00    +0.005 A 
ENDBRANCH  20  21
ENDBRANCH  19  20
ENDBRANCH   1  15
BRANCH   1  27
ATOM     27  N   UNL     1      -5.000   6.550  -1.373  0.00  0.00    +0.394 N 
ATOM     28  H   UNL     1      -4.573   5.915  -2.058  0.00  0.00    -0.080 HD
BRANCH  27  29
ATOM     29  C   UNL     1      -4.476   7.915  -1.591  0.00  0.00    -0.034 C 
BRANCH  29  30
ATOM     30  C   UNL     1      -3.004   7.822  -1.902  0.00  0.00    -0.027 A 
ATOM     31  C   UNL     1      -2.397   7.501  -3.071  0.00  0.00    +0.009 A 
ATOM     32  C   UNL     1      -1.016   7.482  -3.126  0.00  0.00    +0.008 A 
ATOM     33  C   UNL     1      -0.309   7.775  -2.007  0.00  0.00    +0.045 A 
ATOM     34  S   UNL     1      -1.607   8.099  -0.825  0.00  0.00    -0.103 S 
ENDBRANCH  29  30
ENDBRANCH  27  29
BRANCH  27  35
ATOM     35  C   UNL     1      -6.466   6.537  -1.555  0.00  0.00    -0.045 C 
BRANCH  35  36
ATOM     36  C   UNL     1      -6.910   5.104  -1.854  0.00  0.00    +0.102 C 
ATOM     37  C   UNL     1      -8.405   5.073  -2.239  0.00  0.00    +0.032 C 
ATOM     38  C   UNL     1      -8.931   3.768  -1.600  0.00  0.00    +0.030 C 
ATOM     39  C   UNL     1      -7.691   3.165  -0.904  0.00  0.00    +0.160 C 
ATOM     40  O   UNL     1      -6.819   4.291  -0.663  0.00  0.00    -0.378 OA
ENDBRANCH  35  36
ENDBRANCH  27  35
ENDBRANCH   1  27
TORSDOF 9
