REMARK  Name = ZINC00986037
REMARK  7 active torsions:
REMARK  status: ('A' for Active; 'I' for Inactive)
REMARK    1  A    between atoms: C_1  and  O_2
REMARK    2  A    between atoms: O_2  and  C_3
REMARK    3  A    between atoms: C_3  and  C_5
REMARK    4  A    between atoms: C_8  and  C_11
REMARK    5  A    between atoms: C_13  and  C_31
REMARK    6  A    between atoms: C_14  and  N_30
REMARK    7  A    between atoms: C_21  and  C_24
REMARK                            x       y       z     vdW  Elec       q    Type
REMARK                         _______ _______ _______ _____ _____    ______ ____
ROOT
ATOM      1  C   UNL     1       5.632   6.811   0.031  0.00  0.00    +0.101 C 
ATOM      2  C   UNL     1       6.351   6.679   1.344  0.00  0.00    +0.098 C 
ATOM      3  C   UNL     1       5.692   6.245   2.446  0.00  0.00    +0.198 C 
ATOM      4  O   UNL     1       4.389   5.928   2.402  0.00  0.00    -0.445 OA
ATOM      5  C   UNL     1       3.815   5.616   1.225  0.00  0.00    +0.115 C 
ATOM      6  C   UNL     1       4.355   6.005   0.056  0.00  0.00    +0.046 C 
ATOM      7  C   UNL     1       3.756   5.674  -1.174  0.00  0.00    +0.164 C 
ATOM      8  O   UNL     1       4.262   6.063  -2.208  0.00  0.00    -0.292 OA
ATOM      9  C   UNL     1       2.501   4.846  -1.232  0.00  0.00    +0.088 C 
ATOM     10  C   UNL     1       2.451   3.937   0.000  0.00  0.00    +0.034 C 
ATOM     11  C   UNL     1       2.535   4.812   1.252  0.00  0.00    +0.083 C 
ENDROOT
BRANCH   1  15
ATOM     12  C   UNL     1       4.689  10.925  -0.663  0.00  0.00    +0.059 A 
ATOM     13  C   UNL     1       5.500  10.230  -1.562  0.00  0.00    +0.015 A 
ATOM     14  C   UNL     1       5.800   8.903  -1.332  0.00  0.00    +0.005 A 
ATOM     15  C   UNL     1       5.300   8.261  -0.213  0.00  0.00    -0.035 A 
ATOM     16  C   UNL     1       4.491   8.942   0.680  0.00  0.00    +0.005 A 
ATOM     17  C   UNL     1       4.188  10.271   0.465  0.00  0.00    +0.015 A 
BRANCH  12  18
ATOM     18  C   UNL     1       4.364  12.346  -0.902  0.00  0.00    +0.339 C 
ATOM     19  O   UNL     1       4.802  12.912  -1.883  0.00  0.00    -0.245 OA
BRANCH  18  21
ATOM     20  C   UNL     1       3.303  14.407  -0.331  0.00  0.00    +0.280 C 
ATOM     21  O   UNL     1       3.581  13.013  -0.032  0.00  0.00    -0.464 OA
ENDBRANCH  18  21
ENDBRANCH  12  18
ENDBRANCH   1  15
BRANCH  10  22
ATOM     22  C   UNL     1       1.156   3.165   0.008  0.00  0.00    -0.043 A 
ATOM     23  C   UNL     1       1.175   1.783   0.000  0.00  0.00    +0.004 A 
ATOM     24  C   UNL     1      -0.013   1.076   0.008  0.00  0.00    +0.000 A 
ATOM     25  C   UNL     1      -1.219   1.751   0.017  0.00  0.00    +0.000 A 
ATOM     26  C   UNL     1      -1.238   3.133   0.029  0.00  0.00    +0.000 A 
ATOM     27  C   UNL     1      -0.050   3.840   0.022  0.00  0.00    +0.004 A 
ENDBRANCH  10  22
BRANCH   3  28
ATOM     28  N   UNL     1       6.372   6.127   3.633  0.00  0.00    -0.328 N 
ATOM     29  H   UNL     1       5.910   5.817   4.428  0.00  0.00    +0.145 HD
ATOM     30  H   UNL     1       7.314   6.354   3.676  0.00  0.00    +0.145 HD
ENDBRANCH   3  28
BRANCH   2  31
ATOM     31  C   UNL     1       7.741   7.013   1.431  0.00  0.00    +0.101 C 
ATOM     32  N   UNL     1       8.844   7.278   1.500  0.00  0.00    -0.191 NA
ENDBRANCH   2  31
TORSDOF 6
