REMARK  Name = ZINC39674681
REMARK  7 active torsions:
REMARK  status: ('A' for Active; 'I' for Inactive)
REMARK    1  A    between atoms: C_1  and  C_2
REMARK    2  A    between atoms: C_4  and  C_14
REMARK    3  A    between atoms: C_7  and  C_12
REMARK    4  A    between atoms: C_14  and  C_15
REMARK    5  A    between atoms: C_15  and  N_16
REMARK    6  A    between atoms: C_17  and  C_19
REMARK    7  A    between atoms: C_30  and  C_32
REMARK                            x       y       z     vdW  Elec       q    Type
REMARK                         _______ _______ _______ _____ _____    ______ ____
ROOT
ATOM      1  C   UNL     1       1.239  -1.628  -7.110  0.00  0.00    +0.100 C 
ATOM      2  C   UNL     1      -0.142  -2.061  -7.650  0.00  0.00    +0.121 C 
ATOM      3  N   UNL     1       0.116  -2.477  -9.049  0.00  0.00    -0.296 N 
ATOM      4  C   UNL     1       1.415  -3.189  -8.988  0.00  0.00    +0.115 C 
ATOM      5  C   UNL     1       2.258  -2.371  -7.990  0.00  0.00    -0.004 C 
ATOM      6  C   UNL     1       3.114  -3.301  -7.136  0.00  0.00    -0.010 C 
ATOM      7  C   UNL     1       4.158  -3.985  -8.023  0.00  0.00    -0.082 C 
ATOM      8  N   UNL     1       4.998  -2.967  -8.667  0.00  0.00    +0.379 N 
ATOM      9  C   UNL     1       4.182  -2.135  -9.559  0.00  0.00    -0.082 C 
ATOM     10  C   UNL     1       3.139  -1.373  -8.736  0.00  0.00    -0.010 C 
ATOM     11  C   UNL     1      -0.654  -2.256 -10.132  0.00  0.00    +0.247 C 
ATOM     12  O   UNL     1      -1.634  -1.541 -10.046  0.00  0.00    -0.270 OA
ATOM     13  H   UNL     1       5.421  -2.385  -7.959  0.00  0.00    -0.086 HD
ATOM     14  H   UNL     1       5.723  -3.421  -9.202  0.00  0.00    -0.086 HD
ENDROOT
BRANCH  11  15
ATOM     15  C   UNL     1      -0.309  -2.883 -11.425  0.00  0.00    +0.037 A 
ATOM     16  C   UNL     1       0.514  -4.010 -11.459  0.00  0.00    +0.014 A 
ATOM     17  C   UNL     1       0.833  -4.591 -12.669  0.00  0.00    +0.021 A 
ATOM     18  C   UNL     1       0.338  -4.059 -13.848  0.00  0.00    +0.041 A 
ATOM     19  C   UNL     1      -0.480  -2.941 -13.820  0.00  0.00    +0.021 A 
ATOM     20  C   UNL     1      -0.810  -2.355 -12.616  0.00  0.00    +0.014 A 
ATOM     21 CL   UNL     1       0.744  -4.795 -15.366  0.00  0.00    -0.084 Cl
ENDBRANCH  11  15
BRANCH   1  23
ATOM     22  N   UNL     1       2.159  -1.308  -4.836  0.00  0.00    -0.315 N 
ATOM     23  C   UNL     1       1.391  -2.039  -5.668  0.00  0.00    +0.218 C 
ATOM     24  O   UNL     1       0.824  -3.029  -5.257  0.00  0.00    -0.275 OA
ATOM     25  H   UNL     1       2.613  -0.516  -5.165  0.00  0.00    +0.149 HD
BRANCH  22  26
ATOM     26  C   UNL     1       2.307  -1.708  -3.435  0.00  0.00    +0.108 C 
BRANCH  26  27
ATOM     27  C   UNL     1       3.222  -0.716  -2.715  0.00  0.00    +0.052 C 
BRANCH  27  30
ATOM     28  C   UNL     1       5.667  -0.400  -0.610  0.00  0.00    +0.035 C 
ATOM     29  C   UNL     1       4.190  -0.428  -0.209  0.00  0.00    +0.103 C 
ATOM     30  C   UNL     1       3.375  -1.127  -1.273  0.00  0.00    -0.037 C 
ATOM     31  C   UNL     1       2.808  -2.202  -0.667  0.00  0.00    +0.000 A 
ATOM     32  C   UNL     1       1.946  -3.219  -1.154  0.00  0.00    +0.028 A 
ATOM     33  C   UNL     1       1.507  -4.213  -0.311  0.00  0.00    +0.052 A 
ATOM     34  C   UNL     1       1.910  -4.251   1.090  0.00  0.00    +0.021 A 
ATOM     35  C   UNL     1       2.727  -3.312   1.609  0.00  0.00    +0.027 A 
ATOM     36  C   UNL     1       3.224  -2.228   0.753  0.00  0.00    +0.043 A 
ATOM     37  N   UNL     1       4.014  -1.214   1.016  0.00  0.00    -0.378 N 
ATOM     38  H   UNL     1       4.415  -1.017   1.877  0.00  0.00    +0.160 HD
BRANCH  33  39
ATOM     39  C   UNL     1       0.637  -5.231  -0.820  0.00  0.00    +0.099 C 
ATOM     40  N   UNL     1      -0.052  -6.039  -1.223  0.00  0.00    -0.191 NA
ENDBRANCH  33  39
ENDBRANCH  27  30
ENDBRANCH  26  27
ENDBRANCH  22  26
ENDBRANCH   1  23
TORSDOF 6
