REMARK  Name = ZINC09576025
REMARK  7 active torsions:
REMARK  status: ('A' for Active; 'I' for Inactive)
REMARK    1  A    between atoms: C_3  and  O_31
REMARK    2  A    between atoms: C_6  and  N_7
REMARK    3  A    between atoms: C_8  and  C_10
REMARK    4  A    between atoms: C_10  and  N_11
REMARK    5  A    between atoms: C_12  and  C_14
REMARK    6  A    between atoms: N_19  and  S_21
REMARK    7  A    between atoms: S_21  and  C_24
REMARK                            x       y       z     vdW  Elec       q    Type
REMARK                         _______ _______ _______ _____ _____    ______ ____
ROOT
ATOM      1  N   UNL     1       3.801  -4.711  -0.371  0.00  0.00    -0.306 N 
ATOM      2  C   UNL     1       4.058  -6.028  -0.491  0.00  0.00    +0.218 C 
ATOM      3  O   UNL     1       3.144  -6.825  -0.505  0.00  0.00    -0.275 OA
ATOM      4  H   UNL     1       4.532  -4.073  -0.360  0.00  0.00    +0.149 HD
ENDROOT
BRANCH   2   5
ATOM      5  C   UNL     1       5.481  -6.511  -0.607  0.00  0.00    +0.091 C 
ATOM      6  C   UNL     1       6.264  -6.097   0.641  0.00  0.00    +0.015 C 
ATOM      7  C   UNL     1       7.717  -6.558   0.509  0.00  0.00    +0.018 C 
ATOM      8  C   UNL     1       7.756  -8.085   0.399  0.00  0.00    +0.109 C 
ATOM      9  N   UNL     1       6.888  -8.501  -0.711  0.00  0.00    -0.176 NA
ATOM     10  C   UNL     1       5.494  -8.038  -0.730  0.00  0.00    +0.122 C 
BRANCH   9  11
ATOM     11  S   UNL     1       7.470  -9.474  -1.919  0.00  0.00    +0.061 S 
ATOM     12  O   UNL     1       8.575 -10.182  -1.373  0.00  0.00    -0.153 OA
ATOM     13  O   UNL     1       6.347 -10.134  -2.485  0.00  0.00    -0.153 OA
BRANCH  11  14
ATOM     14  C   UNL     1       8.118  -8.418  -3.171  0.00  0.00    +0.106 A 
ATOM     15  C   UNL     1       7.302  -7.986  -4.200  0.00  0.00    +0.031 A 
ATOM     16  C   UNL     1       7.808  -7.153  -5.181  0.00  0.00    +0.040 A 
ATOM     17  C   UNL     1       9.135  -6.761  -5.138  0.00  0.00    +0.124 A 
ATOM     18  C   UNL     1       9.953  -7.199  -4.110  0.00  0.00    +0.040 A 
ATOM     19  C   UNL     1       9.443  -8.027  -3.128  0.00  0.00    +0.031 A 
ATOM     20  F   UNL     1       9.632  -5.951  -6.099  0.00  0.00    -0.205 F 
ENDBRANCH  11  14
ENDBRANCH   9  11
ENDBRANCH   2   5
BRANCH   1  21
ATOM     21  C   UNL     1       2.417  -4.241  -0.258  0.00  0.00    +0.200 C 
BRANCH  21  23
ATOM     22  N   UNL     1       1.234  -2.083  -0.020  0.00  0.00    -0.284 N 
ATOM     23  C   UNL     1       2.405  -2.739  -0.137  0.00  0.00    +0.234 C 
ATOM     24  O   UNL     1       3.449  -2.122  -0.144  0.00  0.00    -0.274 OA
ATOM     25  H   UNL     1       0.405  -2.580   0.062  0.00  0.00    +0.155 HD
BRANCH  22  31
ATOM     26  C   UNL     1       2.138   0.027  -0.775  0.00  0.00    +0.027 A 
ATOM     27  C   UNL     1       2.117   1.408  -0.773  0.00  0.00    +0.047 A 
ATOM     28  C   UNL     1       1.173   2.087  -0.017  0.00  0.00    +0.117 A 
ATOM     29  C   UNL     1       0.249   1.379   0.739  0.00  0.00    +0.047 A 
ATOM     30  C   UNL     1       0.269  -0.001   0.738  0.00  0.00    +0.027 A 
ATOM     31  C   UNL     1       1.213  -0.681  -0.019  0.00  0.00    +0.034 A 
BRANCH  28  32
ATOM     32  O   UNL     1       1.153   3.446  -0.015  0.00  0.00    -0.507 OA
ATOM     33  H   UNL     1       0.592   3.832  -0.702  0.00  0.00    +0.292 HD
ENDBRANCH  28  32
ENDBRANCH  22  31
ENDBRANCH  21  23
ENDBRANCH   1  21
TORSDOF 7
