REMARK  Name = ZINC20275564
REMARK  8 active torsions:
REMARK  status: ('A' for Active; 'I' for Inactive)
REMARK    1  A    between atoms: C_1  and  C_2
REMARK    2  A    between atoms: C_17  and  C_29
REMARK    3  A    between atoms: C_22  and  C_23
REMARK    4  A    between atoms: C_22  and  O_28
REMARK    5  A    between atoms: C_23  and  S_24
REMARK    6  A    between atoms: S_24  and  C_25
REMARK    7  A    between atoms: C_25  and  C_26
REMARK    8  A    between atoms: C_26  and  N_27
REMARK                            x       y       z     vdW  Elec       q    Type
REMARK                         _______ _______ _______ _____ _____    ______ ____
ROOT
ATOM      1  C   UNL     1       0.864   6.373   0.549  0.00  0.00    +0.012 C 
ATOM      2  C   UNL     1       1.014   5.592  -0.763  0.00  0.00    -0.026 C 
ATOM      3  C   UNL     1       0.027   6.184  -1.770  0.00  0.00    +0.007 C 
ATOM      4  C   UNL     1       0.346   7.655  -2.037  0.00  0.00    +0.001 C 
ATOM      5  C   UNL     1       1.776   7.796  -2.556  0.00  0.00    +0.000 C 
ATOM      6  C   UNL     1       2.763   7.218  -1.541  0.00  0.00    +0.004 C 
ATOM      7  C   UNL     1       2.434   5.750  -1.280  0.00  0.00    -0.005 C 
ATOM      8  C   UNL     1       3.424   5.159  -0.280  0.00  0.00    +0.004 C 
ATOM      9  C   UNL     1       3.152   3.675  -0.108  0.00  0.00    +0.004 C 
ATOM     10  C   UNL     1       1.719   3.355   0.292  0.00  0.00    -0.004 C 
ATOM     11  C   UNL     1       0.672   4.157  -0.449  0.00  0.00    -0.001 C 
ATOM     12  C   UNL     1       0.137   3.377  -1.645  0.00  0.00    +0.005 C 
ATOM     13  C   UNL     1      -0.733   2.212  -1.130  0.00  0.00    +0.010 C 
ATOM     14  C   UNL     1      -0.019   1.530   0.011  0.00  0.00    +0.001 C 
ATOM     15  C   UNL     1       1.484   1.877  -0.002  0.00  0.00    +0.001 C 
ATOM     16  C   UNL     1       2.032   0.935   1.086  0.00  0.00    +0.007 C 
ATOM     17  C   UNL     1       1.252  -0.381   0.840  0.00  0.00    +0.036 C 
ATOM     18  C   UNL     1       0.002  -0.004   0.002  0.00  0.00    +0.081 C 
ATOM     19  C   UNL     1      -0.661   1.963   1.341  0.00  0.00    +0.014 C 
ENDROOT
BRANCH  18  20
ATOM     20  O   UNL     1      -1.177  -0.514   0.625  0.00  0.00    -0.387 OA
ATOM     21  H   UNL     1      -1.330  -1.600   0.707  0.00  0.00    +0.210 HD
ENDBRANCH  18  20
BRANCH  18  22
ATOM     22  C   UNL     1       0.152  -0.573  -1.407  0.00  0.00    +0.104 C 
BRANCH  22  23
ATOM     23  S   UNL     1       0.316  -2.377  -1.317  0.00  0.00    -0.160 S 
BRANCH  23  24
ATOM     24  C   UNL     1       0.483  -2.890  -3.049  0.00  0.00    +0.050 C 
BRANCH  24  25
ATOM     25  C   UNL     1       0.631  -4.411  -3.118  0.00  0.00    -0.076 C 
BRANCH  25  26
ATOM     26  N   UNL     1       0.766  -4.826  -4.521  0.00  0.00    +0.379 N 
ATOM     27  H   UNL     1       0.873  -5.920  -4.570  0.00  0.00    -0.090 HD
ATOM     28  H   UNL     1       1.655  -4.351  -4.960  0.00  0.00    -0.090 HD
ATOM     29  H   UNL     1      -0.129  -4.519  -5.082  0.00  0.00    -0.090 HD
ENDBRANCH  25  26
ENDBRANCH  24  25
ENDBRANCH  23  24
ENDBRANCH  22  23
ENDBRANCH  18  22
TORSDOF 6
