REMARK  Name = ZINC00522331
REMARK  7 active torsions:
REMARK  status: ('A' for Active; 'I' for Inactive)
REMARK    1  A    between atoms: C_1  and  C_2
REMARK    2  A    between atoms: C_4  and  C_25
REMARK    3  A    between atoms: C_5  and  N_9
REMARK    4  A    between atoms: C_6  and  C_8
REMARK    5  A    between atoms: C_13  and  N_17
REMARK    6  A    between atoms: N_17  and  C_18
REMARK    7  A    between atoms: N_17  and  O_24
REMARK                            x       y       z     vdW  Elec       q    Type
REMARK                         _______ _______ _______ _____ _____    ______ ____
ROOT
ATOM      1  N   UNL     1       0.084  -4.131  -0.027  0.00  0.00    -0.208 N 
ATOM      2  C   UNL     1      -1.022  -4.885   0.003  0.00  0.00    +0.229 C 
ATOM      3  O   UNL     1      -2.156  -4.466   0.094  0.00  0.00    -0.275 OA
ATOM      4  C   UNL     1      -0.632  -6.344  -0.096  0.00  0.00    +0.133 C 
ATOM      5  C   UNL     1       0.907  -6.301  -0.189  0.00  0.00    +0.207 C 
ATOM      6  C   UNL     1       1.224  -4.822  -0.139  0.00  0.00    +0.252 C 
ATOM      7  O   UNL     1       2.336  -4.341  -0.189  0.00  0.00    -0.272 OA
ENDROOT
BRANCH   1  12
ATOM      8  C   UNL     1      -0.057   1.535   0.274  0.00  0.00    +0.044 C 
ATOM      9  C   UNL     1      -0.020   0.031   0.194  0.00  0.00    -0.050 A 
ATOM     10  C   UNL     1       0.006  -0.594  -1.039  0.00  0.00    +0.008 A 
ATOM     11  C   UNL     1       0.040  -1.973  -1.115  0.00  0.00    -0.028 A 
ATOM     12  C   UNL     1       0.049  -2.731   0.048  0.00  0.00    +0.050 A 
ATOM     13  C   UNL     1       0.024  -2.101   1.284  0.00  0.00    -0.028 A 
ATOM     14  C   UNL     1      -0.005  -0.721   1.354  0.00  0.00    +0.008 A 
ATOM     15  C   UNL     1       0.034  -2.920   2.549  0.00  0.00    +0.046 C 
ATOM     16  C   UNL     1       0.067  -2.654  -2.460  0.00  0.00    +0.046 C 
ENDBRANCH   1  12
BRANCH   5  17
ATOM     17  N   UNL     1       1.512  -7.005   0.944  0.00  0.00    -0.243 N 
BRANCH  17  18
ATOM     18  C   UNL     1       2.416  -8.046   0.718  0.00  0.00    +0.065 A 
ATOM     19  C   UNL     1       2.631  -8.512  -0.573  0.00  0.00    +0.028 A 
ATOM     20  C   UNL     1       3.526  -9.541  -0.793  0.00  0.00    +0.002 A 
ATOM     21  C   UNL     1       4.206 -10.107   0.269  0.00  0.00    +0.000 A 
ATOM     22  C   UNL     1       3.994  -9.645   1.555  0.00  0.00    +0.002 A 
ATOM     23  C   UNL     1       3.105  -8.613   1.782  0.00  0.00    +0.028 A 
ENDBRANCH  17  18
BRANCH  17  24
ATOM     24  O   UNL     1       1.180  -6.631   2.269  0.00  0.00    -0.286 OA
ATOM     25  H   UNL     1       1.629  -7.152   2.949  0.00  0.00    +0.244 HD
ENDBRANCH  17  24
ENDBRANCH   5  17
TORSDOF 4
