REMARK  Name = ZINC01029906
REMARK  5 active torsions:
REMARK  status: ('A' for Active; 'I' for Inactive)
REMARK    1  A    between atoms: C_4  and  C_7
REMARK    2  A    between atoms: C_7  and  C_8
REMARK    3  A    between atoms: C_7  and  C_14
REMARK    4  A    between atoms: C_7  and  O_29
REMARK    5  A    between atoms: N_16  and  N_17
REMARK                            x       y       z     vdW  Elec       q    Type
REMARK                         _______ _______ _______ _____ _____    ______ ____
ROOT
ATOM      1  C   UNL     1       4.228  -0.707  -1.292  0.00  0.00    +0.273 C 
ATOM      2  O   UNL     1       3.996  -1.711  -1.931  0.00  0.00    -0.270 OA
ATOM      3  N   UNL     1       4.985   0.272  -1.826  0.00  0.00    -0.203 N 
ATOM      4  H   UNL     1       5.170   1.075  -1.315  0.00  0.00    +0.177 HD
ENDROOT
BRANCH   3   5
ATOM      5  N   UNL     1       5.506   0.128  -3.119  0.00  0.00    -0.174 NA
ATOM      6  C   UNL     1       6.149   1.122  -3.680  0.00  0.00    +0.153 C 
ATOM      7  C   UNL     1       6.293   2.506  -3.171  0.00  0.00    +0.029 A 
ATOM      8  C   UNL     1       5.833   3.153  -2.030  0.00  0.00    +0.012 A 
ATOM      9  C   UNL     1       6.138   4.484  -1.826  0.00  0.00    +0.002 A 
ATOM     10  C   UNL     1       6.899   5.172  -2.757  0.00  0.00    +0.017 A 
ATOM     11  C   UNL     1       7.361   4.538  -3.894  0.00  0.00    +0.040 A 
ATOM     12  C   UNL     1       7.064   3.197  -4.115  0.00  0.00    +0.057 A 
ATOM     13  N   UNL     1       7.397   2.336  -5.155  0.00  0.00    -0.279 N 
ATOM     14  C   UNL     1       6.895   1.106  -4.955  0.00  0.00    +0.269 C 
ATOM     15  O   UNL     1       7.028   0.148  -5.694  0.00  0.00    -0.268 OA
ATOM     16 BR   UNL     1       8.398   5.495  -5.152  0.00  0.00    -0.048 Br
ATOM     17  H   UNL     1       7.928   2.591  -5.926  0.00  0.00    +0.155 HD
ENDBRANCH   3   5
BRANCH   1  18
ATOM     18  C   UNL     1       3.667  -0.552   0.099  0.00  0.00    +0.194 C 
BRANCH  18  22
ATOM     19  C   UNL     1       0.001   1.632  -0.079  0.00  0.00    +0.000 A 
ATOM     20  C   UNL     1       0.919   1.903   0.918  0.00  0.00    +0.000 A 
ATOM     21  C   UNL     1       2.106   1.196   0.976  0.00  0.00    +0.007 A 
ATOM     22  C   UNL     1       2.374   0.218   0.036  0.00  0.00    -0.003 A 
ATOM     23  C   UNL     1       1.455  -0.053  -0.960  0.00  0.00    +0.007 A 
ATOM     24  C   UNL     1       0.269   0.654  -1.019  0.00  0.00    +0.000 A 
ENDBRANCH  18  22
BRANCH  18  25
ATOM     25  C   UNL     1       3.414  -1.914   0.692  0.00  0.00    -0.003 A 
ATOM     26  C   UNL     1       4.155  -2.345   1.776  0.00  0.00    +0.007 A 
ATOM     27  C   UNL     1       3.922  -3.594   2.321  0.00  0.00    +0.000 A 
ATOM     28  C   UNL     1       2.947  -4.412   1.781  0.00  0.00    +0.000 A 
ATOM     29  C   UNL     1       2.205  -3.981   0.697  0.00  0.00    +0.000 A 
ATOM     30  C   UNL     1       2.435  -2.730   0.156  0.00  0.00    +0.007 A 
ENDBRANCH  18  25
BRANCH  18  31
ATOM     31  O   UNL     1       4.604   0.155   0.913  0.00  0.00    -0.371 OA
ATOM     32  H   UNL     1       5.462  -0.283   0.998  0.00  0.00    +0.212 HD
ENDBRANCH  18  31
ENDBRANCH   1  18
TORSDOF 5
