REMARK  Name = ZINC22170561
REMARK  5 active torsions:
REMARK  status: ('A' for Active; 'I' for Inactive)
REMARK    1  A    between atoms: C_4  and  S_9
REMARK    2  A    between atoms: C_5  and  C_7
REMARK    3  A    between atoms: C_7  and  N_8
REMARK    4  A    between atoms: S_9  and  N_12
REMARK    5  A    between atoms: N_12  and  C_13
REMARK                            x       y       z     vdW  Elec       q    Type
REMARK                         _______ _______ _______ _____ _____    ______ ____
ROOT
ATOM      1  C   UNL     1      -4.138   3.159   5.304  0.00  0.00    +0.000 A 
ATOM      2  C   UNL     1      -3.178   3.976   4.735  0.00  0.00    +0.002 A 
ATOM      3  C   UNL     1      -2.057   3.421   4.149  0.00  0.00    +0.029 A 
ATOM      4  C   UNL     1      -1.894   2.048   4.132  0.00  0.00    +0.107 A 
ATOM      5  C   UNL     1      -2.855   1.231   4.696  0.00  0.00    -0.039 A 
ATOM      6  C   UNL     1      -3.975   1.787   5.286  0.00  0.00    +0.003 A 
ENDROOT
BRANCH   4   7
ATOM      7  S   UNL     1      -0.464   1.339   3.385  0.00  0.00    +0.059 S 
ATOM      8  O   UNL     1       0.075   0.423   4.327  0.00  0.00    -0.153 OA
ATOM      9  O   UNL     1       0.293   2.418   2.853  0.00  0.00    -0.153 OA
BRANCH   7  10
ATOM     10  N   UNL     1      -0.981   0.441   2.093  0.00  0.00    -0.187 NA
ATOM     11  H   UNL     1      -0.975  -0.657   2.165  0.00  0.00    +0.148 HD
BRANCH  10  12
ATOM     12  C   UNL     1      -1.639   1.097   0.961  0.00  0.00    +0.077 C 
ATOM     13  C   UNL     1      -1.252   0.412  -0.373  0.00  0.00    +0.020 C 
ATOM     14  C   UNL     1      -2.411   0.756  -1.330  0.00  0.00    +0.002 C 
ATOM     15  C   UNL     1      -3.635   1.057  -0.447  0.00  0.00    +0.002 C 
ATOM     16  C   UNL     1      -3.176   0.886   1.016  0.00  0.00    +0.020 C 
ENDBRANCH  10  12
ENDBRANCH   7  10
ENDBRANCH   4   7
BRANCH   5  17
ATOM     17  C   UNL     1      -2.681  -0.266   4.672  0.00  0.00    -0.049 C 
BRANCH  17  18
ATOM     18  N   UNL     1      -1.860  -0.681   5.817  0.00  0.00    +0.381 N 
ATOM     19  H   UNL     1      -1.732  -1.774   5.800  0.00  0.00    -0.090 HD
ATOM     20  H   UNL     1      -2.357  -0.385   6.752  0.00  0.00    -0.090 HD
ATOM     21  H   UNL     1      -0.874  -0.196   5.757  0.00  0.00    -0.090 HD
ENDBRANCH  17  18
ENDBRANCH   5  17
TORSDOF 5
