REMARK  Name = ZINC20457692
REMARK  8 active torsions:
REMARK  status: ('A' for Active; 'I' for Inactive)
REMARK    1  A    between atoms: C_3  and  S_29
REMARK    2  A    between atoms: C_6  and  C_7
REMARK    3  A    between atoms: C_7  and  C_8
REMARK    4  A    between atoms: C_8  and  N_9
REMARK    5  A    between atoms: N_9  and  C_10
REMARK    6  A    between atoms: N_15  and  C_18
REMARK    7  A    between atoms: C_22  and  C_24
REMARK    8  A    between atoms: S_29  and  N_32
REMARK                            x       y       z     vdW  Elec       q    Type
REMARK                         _______ _______ _______ _____ _____    ______ ____
ROOT
ATOM      1  C   UNL     1      -3.491  -1.963  -2.947  0.00  0.00    +0.026 C 
ATOM      2  C   UNL     1      -4.752  -2.810  -2.679  0.00  0.00    +0.090 C 
ATOM      3  C   UNL     1      -4.422  -4.145  -3.311  0.00  0.00    +0.225 C 
ATOM      4  O   UNL     1      -5.152  -5.113  -3.328  0.00  0.00    -0.275 OA
ATOM      5  N   UNL     1      -3.197  -4.088  -3.847  0.00  0.00    -0.212 N 
ATOM      6  C   UNL     1      -2.580  -2.905  -3.703  0.00  0.00    +0.213 C 
ATOM      7  O   UNL     1      -1.472  -2.632  -4.112  0.00  0.00    -0.277 OA
ENDROOT
BRANCH   5   8
ATOM      8  C   UNL     1      -2.606  -5.175  -4.508  0.00  0.00    +0.044 A 
ATOM      9  C   UNL     1      -3.125  -5.620  -5.716  0.00  0.00    +0.025 A 
ATOM     10  C   UNL     1      -2.542  -6.690  -6.365  0.00  0.00    +0.022 A 
ATOM     11  C   UNL     1      -1.440  -7.320  -5.811  0.00  0.00    +0.053 A 
ATOM     12  C   UNL     1      -0.921  -6.878  -4.607  0.00  0.00    +0.075 A 
ATOM     13  C   UNL     1      -1.498  -5.804  -3.958  0.00  0.00    +0.037 A 
ATOM     14 CL   UNL     1      -0.709  -8.665  -6.629  0.00  0.00    -0.083 Cl
BRANCH  12  15
ATOM     15  C   UNL     1       0.278  -7.566  -4.007  0.00  0.00    +0.419 C 
ATOM     16  F   UNL     1       0.615  -6.946  -2.799  0.00  0.00    -0.166 F 
ATOM     17  F   UNL     1      -0.026  -8.911  -3.772  0.00  0.00    -0.166 F 
ATOM     18  F   UNL     1       1.357  -7.479  -4.893  0.00  0.00    -0.166 F 
ENDBRANCH  12  15
ENDBRANCH   5   8
BRANCH   1  19
ATOM     19  N   UNL     1      -2.870  -1.547  -1.683  0.00  0.00    +0.387 N 
ATOM     20  H   UNL     1      -2.566  -2.362  -1.173  0.00  0.00    -0.085 HD
ATOM     21  H   UNL     1      -3.542  -1.036  -1.130  0.00  0.00    -0.085 HD
BRANCH  19  22
ATOM     22  C   UNL     1      -1.714  -0.686  -1.965  0.00  0.00    -0.077 C 
BRANCH  22  23
ATOM     23  C   UNL     1      -1.067  -0.252  -0.648  0.00  0.00    +0.016 C 
BRANCH  23  29
ATOM     24  C   UNL     1      -0.046   2.000  -1.039  0.00  0.00    +0.005 A 
ATOM     25  C   UNL     1       1.042   2.810  -1.305  0.00  0.00    +0.029 A 
ATOM     26  C   UNL     1       2.296   2.251  -1.469  0.00  0.00    +0.105 A 
ATOM     27  C   UNL     1       2.461   0.882  -1.367  0.00  0.00    +0.029 A 
ATOM     28  C   UNL     1       1.373   0.072  -1.100  0.00  0.00    +0.005 A 
ATOM     29  C   UNL     1       0.119   0.631  -0.938  0.00  0.00    -0.049 A 
BRANCH  26  30
ATOM     30  S   UNL     1       3.683   3.284  -1.808  0.00  0.00    +0.056 S 
ATOM     31  O   UNL     1       4.647   2.467  -2.459  0.00  0.00    -0.153 OA
ATOM     32  O   UNL     1       3.170   4.472  -2.395  0.00  0.00    -0.153 OA
BRANCH  30  33
ATOM     33  N   UNL     1       4.337   3.719  -0.351  0.00  0.00    -0.204 NA
ATOM     34  H   UNL     1       3.939   3.400   0.474  0.00  0.00    +0.144 HD
ATOM     35  H   UNL     1       5.118   4.294  -0.322  0.00  0.00    +0.144 HD
ENDBRANCH  30  33
ENDBRANCH  26  30
ENDBRANCH  23  29
ENDBRANCH  22  23
ENDBRANCH  19  22
ENDBRANCH   1  19
TORSDOF 8
