REMARK  Name = ZINC00907060
REMARK  12 active torsions:
REMARK  status: ('A' for Active; 'I' for Inactive)
REMARK    1  A    between atoms: C_1  and  C_2
REMARK    2  A    between atoms: C_7  and  N_8
REMARK    3  A    between atoms: C_9  and  C_11
REMARK    4  A    between atoms: C_11  and  C_13
REMARK    5  A    between atoms: C_11  and  S_14
REMARK    6  A    between atoms: S_14  and  C_15
REMARK    7  A    between atoms: C_18  and  C_21
REMARK    8  A    between atoms: N_19  and  C_20
REMARK    9  A    between atoms: C_21  and  S_22
REMARK   10  A    between atoms: S_22  and  C_23
REMARK   11  A    between atoms: C_25  and  C_30
REMARK   12  A    between atoms: C_27  and  C_29
REMARK                            x       y       z     vdW  Elec       q    Type
REMARK                         _______ _______ _______ _____ _____    ______ ____
ROOT
ATOM      1  C   UNL     1       3.900   2.126  -0.792  0.00  0.00    +0.192 A 
ATOM      2  N   UNL     1       3.854   3.371  -0.378  0.00  0.00    -0.122 NA
ATOM      3  N   UNL     1       4.998   3.931  -0.551  0.00  0.00    -0.133 NA
ATOM      4  C   UNL     1       5.832   3.087  -1.088  0.00  0.00    +0.144 A 
ATOM      5  N   UNL     1       5.163   1.907  -1.261  0.00  0.00    -0.308 N 
ATOM      6  C   UNL     1       5.692   0.665  -1.831  0.00  0.00    +0.152 C 
ENDROOT
BRANCH   1   7
ATOM      7  S   UNL     1       2.579   0.961  -0.756  0.00  0.00    -0.074 S 
BRANCH   7   8
ATOM      8  C   UNL     1       1.280   1.980  -0.015  0.00  0.00    +0.137 C 
ATOM      9  C   UNL     1       1.676   2.350   1.416  0.00  0.00    +0.029 C 
BRANCH   8  11
ATOM     10  N   UNL     1      -1.191   1.867   0.018  0.00  0.00    -0.284 N 
ATOM     11  C   UNL     1      -0.014   1.209   0.005  0.00  0.00    +0.230 C 
ATOM     12  O   UNL     1       0.003  -0.004   0.005  0.00  0.00    -0.274 OA
ATOM     13  H   UNL     1      -1.205   2.833   0.099  0.00  0.00    +0.155 HD
BRANCH  10  20
ATOM     14  C   UNL     1      -3.551   3.051   1.078  0.00  0.00    +0.045 C 
ATOM     15  C   UNL     1      -3.566   1.696   0.418  0.00  0.00    -0.029 A 
ATOM     16  C   UNL     1      -4.750   0.992   0.314  0.00  0.00    +0.005 A 
ATOM     17  C   UNL     1      -4.765  -0.251  -0.292  0.00  0.00    +0.000 A 
ATOM     18  C   UNL     1      -3.596  -0.793  -0.796  0.00  0.00    +0.002 A 
ATOM     19  C   UNL     1      -2.411  -0.091  -0.699  0.00  0.00    +0.023 A 
ATOM     20  C   UNL     1      -2.391   1.155  -0.086  0.00  0.00    +0.036 A 
ENDBRANCH  10  20
ENDBRANCH   8  11
ENDBRANCH   7   8
ENDBRANCH   1   7
BRANCH   4  21
ATOM     21  C   UNL     1       7.269   3.360  -1.451  0.00  0.00    +0.153 C 
BRANCH  21  22
ATOM     22  S   UNL     1       7.355   3.975  -3.151  0.00  0.00    -0.078 S 
BRANCH  22  23
ATOM     23  C   UNL     1       9.095   4.205  -3.307  0.00  0.00    +0.189 A 
ATOM     24  N   UNL     1       9.880   3.922  -2.276  0.00  0.00    -0.227 NA
ATOM     25  C   UNL     1      11.190   4.078  -2.361  0.00  0.00    +0.043 A 
ATOM     26  C   UNL     1      11.739   4.554  -3.542  0.00  0.00    +0.046 A 
ATOM     27  C   UNL     1      10.890   4.845  -4.598  0.00  0.00    +0.043 A 
ATOM     28  N   UNL     1       9.588   4.662  -4.449  0.00  0.00    -0.227 NA
ATOM     29  C   UNL     1      11.442   5.365  -5.900  0.00  0.00    +0.066 C 
ATOM     30  C   UNL     1      12.075   3.748  -1.188  0.00  0.00    +0.066 C 
ENDBRANCH  22  23
ENDBRANCH  21  22
ENDBRANCH   4  21
TORSDOF 7
