REMARK  Name = ZINC39659853
REMARK  6 active torsions:
REMARK  status: ('A' for Active; 'I' for Inactive)
REMARK    1  A    between atoms: C_1  and  C_2
REMARK    2  A    between atoms: C_2  and  C_3
REMARK    3  A    between atoms: C_3  and  C_5
REMARK    4  A    between atoms: C_3  and  C_11
REMARK    5  A    between atoms: C_15  and  C_24
REMARK    6  A    between atoms: N_26  and  C_27
REMARK                            x       y       z     vdW  Elec       q    Type
REMARK                         _______ _______ _______ _____ _____    ______ ____
ROOT
ATOM      1  C   UNL     1       0.838  -2.159   1.176  0.00  0.00    +0.223 C 
ATOM      2  O   UNL     1       0.403  -2.870   2.057  0.00  0.00    -0.275 OA
ATOM      3  N   UNL     1       1.528  -2.700   0.152  0.00  0.00    -0.300 N 
ATOM      4  C   UNL     1       2.137  -2.000  -1.003  0.00  0.00    +0.121 C 
ATOM      5  C   UNL     1       3.483  -2.723  -1.232  0.00  0.00    +0.100 C 
ATOM      6  C   UNL     1       3.286  -4.121  -0.621  0.00  0.00    -0.004 C 
ATOM      7  C   UNL     1       1.853  -4.129  -0.069  0.00  0.00    +0.115 C 
ATOM      8  C   UNL     1       4.283  -4.347   0.512  0.00  0.00    -0.010 C 
ATOM      9  C   UNL     1       4.106  -5.764   1.065  0.00  0.00    -0.082 C 
ATOM     10  N   UNL     1       4.324  -6.741  -0.008  0.00  0.00    +0.379 N 
ATOM     11  C   UNL     1       3.304  -6.577  -1.050  0.00  0.00    -0.082 C 
ATOM     12  C   UNL     1       3.447  -5.194  -1.693  0.00  0.00    -0.010 C 
ATOM     13  H   UNL     1       5.239  -6.600  -0.409  0.00  0.00    -0.086 HD
ATOM     14  H   UNL     1       4.268  -7.674   0.372  0.00  0.00    -0.086 HD
ENDROOT
BRANCH   5  15
ATOM     15  C   UNL     1       3.777  -2.829  -2.706  0.00  0.00    +0.218 C 
ATOM     16  O   UNL     1       2.866  -2.920  -3.502  0.00  0.00    -0.275 OA
ATOM     17  N   UNL     1       5.053  -2.823  -3.141  0.00  0.00    -0.312 N 
ATOM     18  H   UNL     1       5.781  -2.751  -2.505  0.00  0.00    +0.149 HD
BRANCH  17  19
ATOM     19  C   UNL     1       5.339  -2.926  -4.574  0.00  0.00    +0.073 C 
ATOM     20  C   UNL     1       5.360  -4.400  -4.985  0.00  0.00    +0.022 C 
ATOM     21  C   UNL     1       5.260  -4.506  -6.508  0.00  0.00    +0.002 C 
ATOM     22  C   UNL     1       4.188  -3.541  -7.018  0.00  0.00    +0.000 C 
ATOM     23  C   UNL     1       4.848  -2.434  -7.841  0.00  0.00    +0.000 C 
ATOM     24  C   UNL     1       5.527  -1.436  -6.901  0.00  0.00    +0.000 C 
ATOM     25  C   UNL     1       6.830  -2.040  -6.372  0.00  0.00    +0.002 C 
ATOM     26  C   UNL     1       6.701  -2.295  -4.869  0.00  0.00    +0.022 C 
ENDBRANCH  17  19
ENDBRANCH   5  15
BRANCH   1  27
ATOM     27  C   UNL     1       0.607  -0.671   1.226  0.00  0.00    +0.105 C 
BRANCH  27  28
ATOM     28  C   UNL     1      -0.184  -0.326   2.462  0.00  0.00    -0.036 A 
ATOM     29  C   UNL     1      -1.440  -0.870   2.652  0.00  0.00    +0.004 A 
ATOM     30  C   UNL     1      -2.165  -0.554   3.786  0.00  0.00    +0.000 A 
ATOM     31  C   UNL     1      -1.634   0.306   4.729  0.00  0.00    +0.000 A 
ATOM     32  C   UNL     1      -0.377   0.849   4.539  0.00  0.00    +0.000 A 
ATOM     33  C   UNL     1       0.350   0.529   3.408  0.00  0.00    +0.004 A 
ENDBRANCH  27  28
BRANCH  27  35
ATOM     34  C   UNL     1      -0.298   1.291  -0.028  0.00  0.00    +0.005 C 
ATOM     35  C   UNL     1      -0.172  -0.233  -0.016  0.00  0.00    +0.014 C 
ENDBRANCH  27  35
ENDBRANCH   1  27
TORSDOF 5
