REMARK  Name = ZINC67312961
REMARK  6 active torsions:
REMARK  status: ('A' for Active; 'I' for Inactive)
REMARK    1  A    between atoms: C_1  and  C_2
REMARK    2  A    between atoms: C_5  and  N_11
REMARK    3  A    between atoms: C_7  and  C_8
REMARK    4  A    between atoms: N_14  and  C_15
REMARK    5  A    between atoms: C_15  and  C_17
REMARK    6  A    between atoms: C_15  and  C_22
REMARK                            x       y       z     vdW  Elec       q    Type
REMARK                         _______ _______ _______ _____ _____    ______ ____
ROOT
ATOM      1  N   UNL     1       1.112  -4.088   0.340  0.00  0.00    -0.269 N 
ATOM      2  C   UNL     1       0.941  -4.531  -0.921  0.00  0.00    +0.304 C 
ATOM      3  O   UNL     1       1.883  -4.561  -1.689  0.00  0.00    -0.252 OA
ATOM      4  N   UNL     1      -0.276  -4.942  -1.332  0.00  0.00    -0.292 N 
ATOM      5  H   UNL     1       0.348  -3.995   0.929  0.00  0.00    +0.156 HD
ATOM      6  H   UNL     1      -1.042  -4.849  -0.745  0.00  0.00    +0.151 HD
ENDROOT
BRANCH   1  11
ATOM      7  C   UNL     1       6.304  -2.744   2.222  0.00  0.00    +0.044 C 
ATOM      8  C   UNL     1       4.928  -3.103   1.721  0.00  0.00    -0.038 A 
ATOM      9  C   UNL     1       3.829  -2.384   2.147  0.00  0.00    +0.006 A 
ATOM     10  C   UNL     1       2.566  -2.709   1.690  0.00  0.00    +0.023 A 
ATOM     11  C   UNL     1       2.394  -3.762   0.799  0.00  0.00    +0.035 A 
ATOM     12  C   UNL     1       3.491  -4.489   0.365  0.00  0.00    +0.036 A 
ATOM     13  C   UNL     1       4.767  -4.158   0.822  0.00  0.00    +0.041 A 
BRANCH  13  14
ATOM     14  C   UNL     1       5.943  -4.926   0.360  0.00  0.00    +0.242 C 
ATOM     15  O   UNL     1       7.062  -4.566   0.668  0.00  0.00    -0.270 OA
ATOM     16  N   UNL     1       5.774  -6.023  -0.404  0.00  0.00    -0.325 N 
ATOM     17  H   UNL     1       4.880  -6.310  -0.650  0.00  0.00    +0.145 HD
ATOM     18  H   UNL     1       6.545  -6.527  -0.707  0.00  0.00    +0.145 HD
ENDBRANCH  13  14
ENDBRANCH   1  11
BRANCH   4  19
ATOM     19  C   UNL     1      -0.440  -5.528  -2.664  0.00  0.00    +0.114 C 
BRANCH  19  20
ATOM     20  C   UNL     1      -0.114  -6.998  -2.610  0.00  0.00    +0.010 A 
ATOM     21  C   UNL     1       0.565  -7.756  -3.505  0.00  0.00    +0.013 A 
ATOM     22  C   UNL     1       0.748  -9.101  -3.244  0.00  0.00    +0.008 A 
ATOM     23  C   UNL     1       0.242  -9.623  -2.100  0.00  0.00    +0.045 A 
ATOM     24  S   UNL     1      -0.515  -8.193  -1.345  0.00  0.00    -0.100 S 
ENDBRANCH  19  20
BRANCH  19  25
ATOM     25  C   UNL     1      -1.886  -5.343  -3.128  0.00  0.00    +0.014 C 
ATOM     26  C   UNL     1      -2.064  -5.920  -4.547  0.00  0.00    +0.006 C 
ATOM     27  C   UNL     1      -3.046  -4.940  -5.236  0.00  0.00    +0.000 C 
ATOM     28  C   UNL     1      -2.595  -3.563  -4.688  0.00  0.00    +0.000 C 
ATOM     29  C   UNL     1      -2.224  -3.845  -3.217  0.00  0.00    +0.006 C 
ENDBRANCH  19  25
ENDBRANCH   4  19
TORSDOF 5
