REMARK  Name = ZINC04759730
REMARK  3 active torsions:
REMARK  status: ('A' for Active; 'I' for Inactive)
REMARK    1  A    between atoms: C_4  and  O_26
REMARK    2  A    between atoms: C_5  and  N_7
REMARK    3  A    between atoms: N_15  and  C_16
REMARK                            x       y       z     vdW  Elec       q    Type
REMARK                         _______ _______ _______ _____ _____    ______ ____
ROOT
ATOM      1  N   UNL     1      -9.115   1.052   0.430  0.00  0.00    -0.324 N 
ATOM      2  C   UNL     1      -8.153   0.790  -0.648  0.00  0.00    +0.124 C 
ATOM      3  C   UNL     1      -6.900   0.131  -0.062  0.00  0.00    +0.128 C 
ATOM      4  N   UNL     1      -6.395   0.977   1.030  0.00  0.00    -0.283 N 
ATOM      5  C   UNL     1      -7.336   1.391   2.082  0.00  0.00    +0.128 C 
ATOM      6  C   UNL     1      -8.573   2.005   1.408  0.00  0.00    +0.124 C 
ATOM      7  C   UNL     1      -5.103   1.358   1.069  0.00  0.00    +0.303 C 
ATOM      8  O   UNL     1      -4.681   1.981   2.024  0.00  0.00    -0.253 OA
ATOM      9  N   UNL     1      -4.279   1.049   0.049  0.00  0.00    -0.294 N 
ATOM     10  H   UNL     1      -4.595   0.491  -0.679  0.00  0.00    +0.151 HD
ENDROOT
BRANCH   9  11
ATOM     11  C   UNL     1      -2.904   1.557   0.038  0.00  0.00    +0.037 C 
ATOM     12  C   UNL     1      -2.188   1.063  -1.221  0.00  0.00    +0.029 C 
ATOM     13  C   UNL     1      -0.753   1.593  -1.232  0.00  0.00    -0.008 C 
ATOM     14  C   UNL     1      -0.013   1.087   0.008  0.00  0.00    +0.007 C 
ATOM     15  C   UNL     1      -0.729   1.581   1.266  0.00  0.00    -0.008 C 
ATOM     16  C   UNL     1      -2.164   1.050   1.278  0.00  0.00    +0.029 C 
ATOM     17  C   UNL     1      -0.750   3.110   1.274  0.00  0.00    +0.007 C 
ATOM     18  C   UNL     1      -1.490   3.617   0.035  0.00  0.00    -0.008 C 
ATOM     19  C   UNL     1      -0.774   3.123  -1.224  0.00  0.00    +0.007 C 
ATOM     20  C   UNL     1      -2.925   3.087   0.046  0.00  0.00    +0.029 C 
ENDBRANCH   9  11
BRANCH   1  25
ATOM     21  C   UNL     1     -11.593   3.111  -1.345  0.00  0.00    +0.002 A 
ATOM     22  C   UNL     1     -12.752   2.395  -1.106  0.00  0.00    +0.004 A 
ATOM     23  C   UNL     1     -12.710   1.233  -0.358  0.00  0.00    +0.047 A 
ATOM     24  C   UNL     1     -11.504   0.783   0.155  0.00  0.00    +0.138 A 
ATOM     25  C   UNL     1     -10.336   1.503  -0.086  0.00  0.00    +0.072 A 
ATOM     26  C   UNL     1     -10.387   2.671  -0.833  0.00  0.00    +0.027 A 
BRANCH  24  27
ATOM     27  O   UNL     1     -11.461  -0.360   0.892  0.00  0.00    -0.505 OA
ATOM     28  H   UNL     1     -11.587  -0.221   1.840  0.00  0.00    +0.292 HD
ENDBRANCH  24  27
ENDBRANCH   1  25
TORSDOF 3
