REMARK  Name = ZINC25783110
REMARK  7 active torsions:
REMARK  status: ('A' for Active; 'I' for Inactive)
REMARK    1  A    between atoms: C_1  and  C_2
REMARK    2  A    between atoms: C_9  and  C_11
REMARK    3  A    between atoms: C_12  and  C_38
REMARK    4  A    between atoms: C_16  and  C_18
REMARK    5  A    between atoms: C_27  and  C_30
REMARK    6  A    between atoms: C_33  and  O_36
REMARK    7  A    between atoms: O_36  and  C_37
REMARK                            x       y       z     vdW  Elec       q    Type
REMARK                         _______ _______ _______ _____ _____    ______ ____
ROOT
ATOM      1  C   UNL     1      -9.787  -3.702  -1.289  0.00  0.00    +0.043 C 
ATOM      2  C   UNL     1      -9.102  -3.393  -2.402  0.00  0.00    +0.014 C 
ATOM      3  N   UNL     1      -7.753  -3.175  -2.347  0.00  0.00    -0.321 N 
ATOM      4  C   UNL     1      -7.144  -2.873  -1.159  0.00  0.00    +0.016 C 
ATOM      5  C   UNL     1      -7.747  -3.163   0.013  0.00  0.00    +0.024 C 
ATOM      6  C   UNL     1      -9.101  -3.827   0.039  0.00  0.00    +0.092 C 
ATOM      7  C   UNL     1      -7.131  -2.859   1.240  0.00  0.00    +0.162 C 
ATOM      8  O   UNL     1      -7.708  -3.119   2.277  0.00  0.00    -0.292 OA
ATOM      9  C   UNL     1      -5.768  -2.223   1.294  0.00  0.00    +0.088 C 
ATOM     10  C   UNL     1      -4.983  -2.620   0.039  0.00  0.00    +0.032 C 
ATOM     11  C   UNL     1      -5.790  -2.207  -1.194  0.00  0.00    +0.059 C 
ATOM     12  C   UNL     1      -9.825  -3.285  -3.720  0.00  0.00    +0.061 C 
ATOM     13  H   UNL     1      -7.147  -3.243  -3.263  0.00  0.00    +0.152 HD
ENDROOT
BRANCH   1  22
ATOM     14  C   UNL     1     -17.482  -4.638  -0.597  0.00  0.00    +0.045 C 
ATOM     15  C   UNL     1     -15.984  -4.533  -0.469  0.00  0.00    -0.032 A 
ATOM     16  C   UNL     1     -15.376  -4.644   0.774  0.00  0.00    +0.008 A 
ATOM     17  C   UNL     1     -13.998  -4.547   0.846  0.00  0.00    +0.044 A 
ATOM     18  C   UNL     1     -13.273  -4.332  -0.321  0.00  0.00    +0.125 A 
ATOM     19  N   UNL     1     -13.889  -4.231  -1.488  0.00  0.00    -0.240 NA
ATOM     20  C   UNL     1     -15.201  -4.325  -1.588  0.00  0.00    +0.116 A 
ATOM     21  N   UNL     1     -11.885  -4.226  -0.262  0.00  0.00    -0.267 N 
ATOM     22  C   UNL     1     -11.185  -3.915  -1.371  0.00  0.00    +0.248 C 
ATOM     23  O   UNL     1     -11.755  -3.817  -2.442  0.00  0.00    -0.270 OA
ATOM     24  H   UNL     1     -11.361  -4.397   0.690  0.00  0.00    +0.157 HD
ENDBRANCH   1  22
BRANCH   6  25
ATOM     25  C   UNL     1      -8.928  -5.287   0.371  0.00  0.00    -0.017 A 
ATOM     26  C   UNL     1      -9.496  -5.818   1.519  0.00  0.00    +0.007 A 
ATOM     27  C   UNL     1      -9.315  -7.167   1.782  0.00  0.00    +0.020 A 
ATOM     28  C   UNL     1      -8.571  -7.931   0.902  0.00  0.00    +0.111 A 
ATOM     29  N   UNL     1      -8.040  -7.391  -0.177  0.00  0.00    -0.263 NA
ATOM     30  C   UNL     1      -8.196  -6.112  -0.461  0.00  0.00    +0.115 A 
ENDBRANCH   6  25
BRANCH  10  31
ATOM     31  C   UNL     1      -3.651  -1.915   0.032  0.00  0.00    -0.043 A 
ATOM     32  C   UNL     1      -2.481  -2.652   0.015  0.00  0.00    +0.007 A 
ATOM     33  C   UNL     1      -1.259  -2.009   0.009  0.00  0.00    +0.046 A 
ATOM     34  C   UNL     1      -1.206  -0.623   0.018  0.00  0.00    +0.120 A 
ATOM     35  C   UNL     1      -2.381   0.114   0.039  0.00  0.00    +0.046 A 
ATOM     36  C   UNL     1      -3.601  -0.534   0.040  0.00  0.00    +0.007 A 
BRANCH  34  37
ATOM     37  O   UNL     1      -0.004   0.013   0.011  0.00  0.00    -0.495 OA
ATOM     38  C   UNL     1      -0.025   1.441   0.021  0.00  0.00    +0.277 C 
ENDBRANCH  34  37
ENDBRANCH  10  31
TORSDOF 4
