REMARK  Name = ZINC38671415
REMARK  1 active torsions:
REMARK  status: ('A' for Active; 'I' for Inactive)
REMARK    1  A    between atoms: N_16  and  C_17
REMARK                            x       y       z     vdW  Elec       q    Type
REMARK                         _______ _______ _______ _____ _____    ______ ____
ROOT
ATOM      1  C   UNL     1      -0.017   1.380   0.010  0.00  0.00    +0.000 A 
ATOM      2  C   UNL     1       1.170   2.091   0.002  0.00  0.00    +0.001 A 
ATOM      3  C   UNL     1       2.380   1.427  -0.013  0.00  0.00    +0.010 A 
ATOM      4  C   UNL     1       2.404   0.032  -0.021  0.00  0.00    +0.005 A 
ATOM      5  C   UNL     1       1.206  -0.673  -0.013  0.00  0.00    -0.033 A 
ATOM      6  C   UNL     1       0.002  -0.004   0.002  0.00  0.00    +0.004 A 
ATOM      7  C   UNL     1       1.562  -2.140  -0.025  0.00  0.00    +0.080 C 
ATOM      8  C   UNL     1       3.055  -2.187  -0.041  0.00  0.00    +0.023 A 
ATOM      9  C   UNL     1       3.563  -0.919  -0.039  0.00  0.00    +0.084 A 
ATOM     10  N   UNL     1       4.908  -0.811  -0.052  0.00  0.00    -0.224 NA
ATOM     11  C   UNL     1       5.700  -1.859  -0.066  0.00  0.00    +0.166 A 
ATOM     12  S   UNL     1       4.515  -3.197  -0.063  0.00  0.00    -0.056 S 
ATOM     13  N   UNL     1       7.088  -1.912  -0.081  0.00  0.00    -0.248 N 
ATOM     14  C   UNL     1       7.807  -0.772  -0.081  0.00  0.00    +0.310 C 
ATOM     15  O   UNL     1       7.240   0.304  -0.069  0.00  0.00    -0.252 OA
ATOM     16  N   UNL     1       9.153  -0.824  -0.096  0.00  0.00    -0.263 N 
ATOM     17  H   UNL     1       7.540  -2.771  -0.091  0.00  0.00    +0.158 HD
ATOM     18  H   UNL     1       9.605  -1.682  -0.105  0.00  0.00    +0.157 HD
ENDROOT
BRANCH  16  19
ATOM     19  C   UNL     1       9.899   0.358  -0.096  0.00  0.00    +0.073 A 
ATOM     20  C   UNL     1      11.251   0.520  -0.115  0.00  0.00    +0.031 A 
ATOM     21  C   UNL     1      11.768   1.803  -0.111  0.00  0.00    +0.009 A 
ATOM     22  C   UNL     1      10.917   2.856  -0.089  0.00  0.00    +0.047 A 
ATOM     23  S   UNL     1       9.325   2.049  -0.080  0.00  0.00    -0.082 S 
ENDBRANCH  16  19
TORSDOF 1
