REMARK  Name = ZINC09526586
REMARK  11 active torsions:
REMARK  status: ('A' for Active; 'I' for Inactive)
REMARK    1  A    between atoms: C_1  and  C_2
REMARK    2  A    between atoms: C_2  and  O_3
REMARK    3  A    between atoms: O_3  and  C_4
REMARK    4  A    between atoms: C_4  and  C_6
REMARK    5  A    between atoms: C_7  and  C_32
REMARK    6  A    between atoms: C_10  and  S_15
REMARK    7  A    between atoms: S_15  and  N_18
REMARK    8  A    between atoms: N_18  and  C_19
REMARK    9  A    between atoms: C_24  and  C_25
REMARK   10  A    between atoms: N_26  and  C_31
REMARK   11  A    between atoms: N_29  and  C_30
REMARK                            x       y       z     vdW  Elec       q    Type
REMARK                         _______ _______ _______ _____ _____    ______ ____
ROOT
ATOM      1  S   UNL     1       3.140   2.082   5.068  0.00  0.00    +0.072 S 
ATOM      2  O   UNL     1       3.108   1.990   6.486  0.00  0.00    -0.150 OA
ATOM      3  O   UNL     1       3.831   1.140   4.259  0.00  0.00    -0.150 OA
ENDROOT
BRANCH   1   8
ATOM      4  C   UNL     1      -2.160   1.533   1.780  0.00  0.00    +0.215 A 
ATOM      5  C   UNL     1      -0.834   1.311   1.577  0.00  0.00    +0.010 A 
ATOM      6  C   UNL     1      -0.168   1.670   2.828  0.00  0.00    +0.026 A 
ATOM      7  C   UNL     1       1.162   1.672   3.256  0.00  0.00    +0.040 A 
ATOM      8  C   UNL     1       1.464   2.078   4.526  0.00  0.00    +0.109 A 
ATOM      9  C   UNL     1       0.458   2.488   5.391  0.00  0.00    +0.032 A 
ATOM     10  C   UNL     1      -0.859   2.493   4.987  0.00  0.00    +0.049 A 
ATOM     11  C   UNL     1      -1.191   2.084   3.701  0.00  0.00    +0.136 A 
ATOM     12  O   UNL     1      -2.359   1.983   3.037  0.00  0.00    -0.448 OA
ATOM     13  C   UNL     1      -0.183   0.804   0.316  0.00  0.00    +0.048 C 
BRANCH   4  14
ATOM     14  C   UNL     1      -3.216   1.313   0.784  0.00  0.00    +0.375 C 
ATOM     15  O   UNL     1      -2.930   0.901  -0.324  0.00  0.00    -0.241 OA
BRANCH  14  16
ATOM     16  O   UNL     1      -4.502   1.569   1.097  0.00  0.00    -0.459 OA
BRANCH  16  18
ATOM     17  C   UNL     1      -6.883   1.673   0.600  0.00  0.00    +0.048 C 
ATOM     18  C   UNL     1      -5.493   1.329   0.063  0.00  0.00    +0.229 C 
ENDBRANCH  16  18
ENDBRANCH  14  16
ENDBRANCH   4  14
ENDBRANCH   1   8
BRANCH   1  19
ATOM     19  N   UNL     1       3.770   3.570   4.705  0.00  0.00    -0.216 N 
ATOM     20  H   UNL     1       4.529   3.642   4.106  0.00  0.00    +0.174 HD
BRANCH  19  21
ATOM     21  C   UNL     1       3.205   4.723   5.260  0.00  0.00    +0.053 A 
ATOM     22  C   UNL     1       2.704   4.694   6.554  0.00  0.00    +0.052 A 
ATOM     23  C   UNL     1       2.146   5.838   7.101  0.00  0.00    +0.071 A 
ATOM     24  C   UNL     1       2.091   7.015   6.351  0.00  0.00    +0.070 A 
ATOM     25  C   UNL     1       2.594   7.037   5.060  0.00  0.00    +0.033 A 
ATOM     26  C   UNL     1       3.154   5.897   4.518  0.00  0.00    -0.026 A 
ATOM     27  C   UNL     1       3.705   5.924   3.116  0.00  0.00    +0.046 C 
ATOM     28  N   UNL     1       1.484   7.978   7.158  0.00  0.00    -0.295 N 
ATOM     29  C   UNL     1       1.185   7.411   8.342  0.00  0.00    +0.330 A 
ATOM     30  O   UNL     1       0.647   7.979   9.274  0.00  0.00    -0.246 OA
ATOM     31  N   UNL     1       1.572   6.122   8.338  0.00  0.00    -0.295 N 
ATOM     32  C   UNL     1       1.416   5.178   9.448  0.00  0.00    +0.154 C 
ATOM     33  C   UNL     1       1.218   9.368   6.781  0.00  0.00    +0.154 C 
ENDBRANCH  19  21
ENDBRANCH   1  19
TORSDOF 6
