REMARK  Name = ZINC35622084
REMARK  5 active torsions:
REMARK  status: ('A' for Active; 'I' for Inactive)
REMARK    1  A    between atoms: C_1  and  C_2
REMARK    2  A    between atoms: C_7  and  N_8
REMARK    3  A    between atoms: N_8  and  C_9
REMARK    4  A    between atoms: C_9  and  C_15
REMARK    5  A    between atoms: N_19  and  C_20
REMARK                            x       y       z     vdW  Elec       q    Type
REMARK                         _______ _______ _______ _____ _____    ______ ____
ROOT
ATOM      1  C   UNL     1      -0.085  -0.759   4.058  0.00  0.00    +0.094 C 
ATOM      2  C   UNL     1      -1.315  -1.662   4.167  0.00  0.00    +0.034 C 
ATOM      3  C   UNL     1      -2.578  -0.801   4.215  0.00  0.00    +0.003 C 
ATOM      4  C   UNL     1      -2.517   0.127   5.430  0.00  0.00    +0.000 C 
ATOM      5  C   UNL     1      -1.287   1.031   5.320  0.00  0.00    +0.003 C 
ATOM      6  C   UNL     1      -0.024   0.169   5.273  0.00  0.00    +0.034 C 
ENDROOT
BRANCH   1   7
ATOM      7  C   UNL     1       1.159  -1.607   4.011  0.00  0.00    +0.180 A 
ATOM      8  N   UNL     1       1.206  -2.913   3.962  0.00  0.00    -0.111 NA
ATOM      9  N   UNL     1       2.423  -3.322   3.931  0.00  0.00    -0.023 NA
ATOM     10  N   UNL     1       3.231  -2.318   3.958  0.00  0.00    -0.039 NA
ATOM     11  N   UNL     1       2.434  -1.160   4.005  0.00  0.00    -0.195 N 
BRANCH  11  12
ATOM     12  C   UNL     1       2.869   0.173   4.042  0.00  0.00    +0.069 A 
ATOM     13  C   UNL     1       2.312   1.110   3.182  0.00  0.00    +0.029 A 
ATOM     14  C   UNL     1       2.742   2.422   3.220  0.00  0.00    +0.022 A 
ATOM     15  C   UNL     1       3.727   2.803   4.114  0.00  0.00    +0.041 A 
ATOM     16  C   UNL     1       4.284   1.871   4.972  0.00  0.00    +0.022 A 
ATOM     17  C   UNL     1       3.853   0.559   4.941  0.00  0.00    +0.029 A 
ATOM     18 CL   UNL     1       4.266   4.452   4.158  0.00  0.00    -0.084 Cl
ENDBRANCH  11  12
ENDBRANCH   1   7
BRANCH   1  19
ATOM     19  N   UNL     1      -0.175   0.043   2.835  0.00  0.00    -0.331 N 
ATOM     20  H   UNL     1      -0.179   1.012   2.889  0.00  0.00    +0.147 HD
BRANCH  19  27
ATOM     21  C   UNL     1      -0.613   1.662   0.537  0.00  0.00    +0.045 C 
ATOM     22  C   UNL     1      -0.469   0.165   0.443  0.00  0.00    -0.030 A 
ATOM     23  C   UNL     1      -0.543  -0.460  -0.787  0.00  0.00    +0.005 A 
ATOM     24  C   UNL     1      -0.412  -1.834  -0.874  0.00  0.00    +0.000 A 
ATOM     25  C   UNL     1      -0.205  -2.586   0.268  0.00  0.00    +0.002 A 
ATOM     26  C   UNL     1      -0.130  -1.967   1.500  0.00  0.00    +0.023 A 
ATOM     27  C   UNL     1      -0.257  -0.587   1.591  0.00  0.00    +0.031 A 
ENDBRANCH  19  27
ENDBRANCH   1  19
TORSDOF 4
