REMARK  Name = ZINC09521674
REMARK  8 active torsions:
REMARK  status: ('A' for Active; 'I' for Inactive)
REMARK    1  A    between atoms: C_1  and  C_2
REMARK    2  A    between atoms: C_6  and  C_8
REMARK    3  A    between atoms: C_8  and  S_9
REMARK    4  A    between atoms: S_9  and  C_10
REMARK    5  A    between atoms: N_16  and  C_17
REMARK    6  A    between atoms: C_21  and  C_24
REMARK    7  A    between atoms: C_22  and  C_23
REMARK    8  A    between atoms: C_25  and  O_27
REMARK                            x       y       z     vdW  Elec       q    Type
REMARK                         _______ _______ _______ _____ _____    ______ ____
ROOT
ATOM      1  C   UNL     1       3.443   1.470  -1.056  0.00  0.00    +0.194 A 
ATOM      2  N   UNL     1       4.007   1.981   0.026  0.00  0.00    -0.202 NA
ATOM      3  C   UNL     1       3.465   1.790   1.226  0.00  0.00    +0.171 A 
ATOM      4  C   UNL     1       2.276   1.039   1.325  0.00  0.00    +0.100 A 
ATOM      5  C   UNL     1       1.931   0.991   2.695  0.00  0.00    +0.150 A 
ATOM      6  N   UNL     1       2.822   1.659   3.370  0.00  0.00    -0.172 NA
ATOM      7  N   UNL     1       3.790   2.171   2.497  0.00  0.00    -0.214 N 
ATOM      8  C   UNL     1       1.718   0.511   0.147  0.00  0.00    +0.227 A 
ATOM      9  N   UNL     1       2.326   0.752  -1.005  0.00  0.00    -0.187 NA
ENDROOT
BRANCH   7  10
ATOM     10  C   UNL     1       4.901   2.941   2.864  0.00  0.00    +0.071 A 
ATOM     11  C   UNL     1       5.861   3.273   1.917  0.00  0.00    +0.028 A 
ATOM     12  C   UNL     1       6.953   4.037   2.281  0.00  0.00    +0.002 A 
ATOM     13  C   UNL     1       7.096   4.461   3.589  0.00  0.00    +0.004 A 
ATOM     14  C   UNL     1       6.145   4.128   4.536  0.00  0.00    -0.046 A 
ATOM     15  C   UNL     1       5.048   3.369   4.177  0.00  0.00    -0.022 A 
ATOM     16  C   UNL     1       4.011   3.007   5.209  0.00  0.00    +0.046 C 
ATOM     17  C   UNL     1       6.305   4.594   5.960  0.00  0.00    +0.044 C 
ENDBRANCH   7  10
BRANCH   8  18
ATOM     18  O   UNL     1       0.580  -0.222   0.189  0.00  0.00    -0.492 OA
ATOM     19  H   UNL     1       0.728  -1.171   0.300  0.00  0.00    +0.294 HD
ENDBRANCH   8  18
BRANCH   1  20
ATOM     20  S   UNL     1       4.201   1.752  -2.621  0.00  0.00    -0.081 S 
BRANCH  20  21
ATOM     21  C   UNL     1       3.048   0.860  -3.694  0.00  0.00    +0.112 C 
BRANCH  21  27
ATOM     22  C   UNL     1       3.015   3.251  -8.090  0.00  0.00    +0.044 C 
ATOM     23  C   UNL     1       3.492   2.111  -7.228  0.00  0.00    -0.050 A 
ATOM     24  C   UNL     1       4.351   1.162  -7.751  0.00  0.00    +0.003 A 
ATOM     25  C   UNL     1       4.788   0.116  -6.960  0.00  0.00    +0.001 A 
ATOM     26  C   UNL     1       4.367   0.018  -5.647  0.00  0.00    +0.004 A 
ATOM     27  C   UNL     1       3.508   0.967  -5.125  0.00  0.00    -0.037 A 
ATOM     28  C   UNL     1       3.066   2.010  -5.917  0.00  0.00    +0.007 A 
ENDBRANCH  21  27
ENDBRANCH  20  21
ENDBRANCH   1  20
TORSDOF 5
