REMARK  Name = ZINC07983334
REMARK  7 active torsions:
REMARK  status: ('A' for Active; 'I' for Inactive)
REMARK    1  A    between atoms: C_1  and  C_2
REMARK    2  A    between atoms: C_3  and  C_28
REMARK    3  A    between atoms: C_9  and  C_12
REMARK    4  A    between atoms: C_12  and  O_14
REMARK    5  A    between atoms: O_14  and  C_15
REMARK    6  A    between atoms: C_15  and  C_16
REMARK    7  A    between atoms: N_21  and  C_22
REMARK                            x       y       z     vdW  Elec       q    Type
REMARK                         _______ _______ _______ _____ _____    ______ ____
ROOT
ATOM      1  O   UNL     1      -1.360  -0.507   0.012  0.00  0.00    -0.452 OA
ENDROOT
BRANCH   1   2
ATOM      2  C   UNL     1      -1.518  -1.845   0.007  0.00  0.00    +0.340 C 
ATOM      3  O   UNL     1      -0.545  -2.572  -0.006  0.00  0.00    -0.245 OA
BRANCH   2  12
ATOM      4  C   UNL     1      -4.052  -6.988   0.002  0.00  0.00    +0.046 C 
ATOM      5  C   UNL     1      -4.854  -5.712   0.018  0.00  0.00    -0.022 A 
ATOM      6  C   UNL     1      -6.192  -5.609   0.031  0.00  0.00    +0.017 A 
ATOM      7  N   UNL     1      -6.560  -4.291   0.042  0.00  0.00    -0.358 N 
ATOM      8  H   UNL     1      -7.474  -3.968   0.053  0.00  0.00    +0.166 HD
ATOM      9  C   UNL     1      -5.442  -3.492   0.036  0.00  0.00    +0.047 A 
ATOM     10  C   UNL     1      -4.322  -4.346   0.020  0.00  0.00    +0.004 A 
ATOM     11  C   UNL     1      -3.037  -3.810   0.011  0.00  0.00    +0.025 A 
ATOM     12  C   UNL     1      -2.874  -2.427   0.017  0.00  0.00    +0.060 A 
ATOM     13  C   UNL     1      -3.997  -1.588   0.038  0.00  0.00    +0.017 A 
ATOM     14  C   UNL     1      -5.256  -2.111   0.042  0.00  0.00    +0.027 A 
ATOM     15  C   UNL     1      -7.149  -6.774   0.034  0.00  0.00    +0.063 C 
ENDBRANCH   2  12
ENDBRANCH   1   2
BRANCH   1  16
ATOM     16  C   UNL     1       0.002  -0.004   0.002  0.00  0.00    +0.328 C 
BRANCH  16  17
ATOM     17  C   UNL     1      -0.018   1.503   0.010  0.00  0.00    +0.258 C 
ATOM     18  O   UNL     1      -1.076   2.095   0.018  0.00  0.00    -0.272 OA
ATOM     19  N   UNL     1       1.139   2.192   0.003  0.00  0.00    -0.237 N 
ATOM     20  C   UNL     1       1.121   3.540   0.010  0.00  0.00    +0.306 C 
ATOM     21  O   UNL     1       0.061   4.133   0.024  0.00  0.00    -0.252 OA
ATOM     22  N   UNL     1       2.279   4.230   0.003  0.00  0.00    -0.296 N 
ATOM     23  H   UNL     1       1.986   1.719  -0.008  0.00  0.00    +0.159 HD
ATOM     24  H   UNL     1       3.126   3.756  -0.008  0.00  0.00    +0.151 HD
BRANCH  22  25
ATOM     25  C   UNL     1       2.259   5.695   0.011  0.00  0.00    +0.074 C 
ATOM     26  C   UNL     1       2.113   6.211  -1.422  0.00  0.00    +0.022 C 
ATOM     27  C   UNL     1       2.092   7.740  -1.413  0.00  0.00    +0.002 C 
ATOM     28  C   UNL     1       3.398   8.265  -0.813  0.00  0.00    +0.000 C 
ATOM     29  C   UNL     1       3.545   7.749   0.620  0.00  0.00    +0.002 C 
ATOM     30  C   UNL     1       3.565   6.219   0.611  0.00  0.00    +0.022 C 
ENDBRANCH  22  25
ENDBRANCH  16  17
ENDBRANCH   1  16
TORSDOF 5
