REMARK  Name = ZINC09870360
REMARK  9 active torsions:
REMARK  status: ('A' for Active; 'I' for Inactive)
REMARK    1  A    between atoms: C_3  and  N_28
REMARK    2  A    between atoms: C_4  and  N_25
REMARK    3  A    between atoms: C_6  and  C_7
REMARK    4  A    between atoms: C_7  and  O_9
REMARK    5  A    between atoms: O_9  and  C_10
REMARK    6  A    between atoms: C_10  and  C_11
REMARK    7  A    between atoms: N_13  and  C_14
REMARK    8  A    between atoms: C_19  and  C_20
REMARK    9  A    between atoms: N_28  and  C_29
REMARK                            x       y       z     vdW  Elec       q    Type
REMARK                         _______ _______ _______ _____ _____    ______ ____
ROOT
ATOM      1  O   UNL     1      -4.473   4.279  -0.252  0.00  0.00    -0.452 OA
ENDROOT
BRANCH   1   2
ATOM      2  C   UNL     1      -4.591   2.941  -0.149  0.00  0.00    +0.340 C 
ATOM      3  O   UNL     1      -5.690   2.436  -0.026  0.00  0.00    -0.245 OA
BRANCH   2   9
ATOM      4  C   UNL     1      -2.124   2.670  -0.329  0.00  0.00    +0.017 A 
ATOM      5  C   UNL     1      -1.004   1.870  -0.362  0.00  0.00    +0.026 A 
ATOM      6  C   UNL     1      -1.134   0.488  -0.255  0.00  0.00    +0.058 A 
ATOM      7  C   UNL     1      -2.395  -0.088  -0.119  0.00  0.00    +0.148 A 
ATOM      8  C   UNL     1      -3.510   0.701  -0.080  0.00  0.00    +0.049 A 
ATOM      9  C   UNL     1      -3.389   2.090  -0.187  0.00  0.00    +0.061 A 
BRANCH   7  10
ATOM     10  N   UNL     1      -2.527  -1.558  -0.011  0.00  0.00    +0.058 N 
ATOM     11  O   UNL     1      -3.631  -2.072  -0.013  0.00  0.00    -0.126 OA
ATOM     12  O   UNL     1      -1.532  -2.254   0.080  0.00  0.00    -0.126 OA
ENDBRANCH   7  10
BRANCH   6  13
ATOM     13  N   UNL     1      -0.003  -0.320  -0.289  0.00  0.00    -0.339 N 
ATOM     14  H   UNL     1      -0.097  -1.284  -0.328  0.00  0.00    +0.146 HD
BRANCH  13  15
ATOM     15  C   UNL     1       1.330   0.286  -0.274  0.00  0.00    +0.071 C 
ATOM     16  C   UNL     1       2.396  -0.328  -1.183  0.00  0.00    +0.024 C 
ATOM     17  C   UNL     1       2.472  -0.533   0.331  0.00  0.00    +0.024 C 
ENDBRANCH  13  15
ENDBRANCH   6  13
ENDBRANCH   2   9
ENDBRANCH   1   2
BRANCH   1  18
ATOM     18  C   UNL     1      -5.700   5.055  -0.208  0.00  0.00    +0.328 C 
BRANCH  18  19
ATOM     19  C   UNL     1      -5.373   6.520  -0.336  0.00  0.00    +0.255 C 
ATOM     20  O   UNL     1      -4.220   6.876  -0.454  0.00  0.00    -0.272 OA
ATOM     21  N   UNL     1      -6.363   7.435  -0.321  0.00  0.00    -0.282 N 
ATOM     22  H   UNL     1      -7.289   7.148  -0.295  0.00  0.00    +0.155 HD
BRANCH  21  23
ATOM     23  C   UNL     1      -6.054   8.800  -0.342  0.00  0.00    +0.045 A 
ATOM     24  C   UNL     1      -4.945   9.252  -1.045  0.00  0.00    +0.025 A 
ATOM     25  C   UNL     1      -4.643  10.599  -1.065  0.00  0.00    +0.022 A 
ATOM     26  C   UNL     1      -5.444  11.499  -0.384  0.00  0.00    +0.042 A 
ATOM     27  C   UNL     1      -6.549  11.052   0.319  0.00  0.00    +0.034 A 
ATOM     28  C   UNL     1      -6.859   9.706   0.337  0.00  0.00    +0.077 A 
ATOM     29 CL   UNL     1      -5.061  13.192  -0.410  0.00  0.00    -0.084 Cl
BRANCH  28  30
ATOM     30  C   UNL     1      -8.066   9.220   1.097  0.00  0.00    +0.419 C 
ATOM     31  F   UNL     1      -8.712  10.309   1.691  0.00  0.00    -0.166 F 
ATOM     32  F   UNL     1      -8.945   8.581   0.216  0.00  0.00    -0.166 F 
ATOM     33  F   UNL     1      -7.662   8.320   2.088  0.00  0.00    -0.166 F 
ENDBRANCH  28  30
ENDBRANCH  21  23
ENDBRANCH  18  19
ENDBRANCH   1  18
TORSDOF 9
