REMARK  Name = ZINC46025266
REMARK  9 active torsions:
REMARK  status: ('A' for Active; 'I' for Inactive)
REMARK    1  A    between atoms: C_1  and  C_2
REMARK    2  A    between atoms: C_2  and  C_3
REMARK    3  A    between atoms: C_2  and  C_4
REMARK    4  A    between atoms: C_2  and  C_5
REMARK    5  A    between atoms: C_11  and  N_13
REMARK    6  A    between atoms: N_16  and  N_17
REMARK    7  A    between atoms: N_17  and  C_18
REMARK    8  A    between atoms: C_18  and  N_20
REMARK    9  A    between atoms: N_20  and  C_21
REMARK                            x       y       z     vdW  Elec       q    Type
REMARK                         _______ _______ _______ _____ _____    ______ ____
ROOT
ATOM      1  N   UNL     1       2.555  -1.341  -0.231  0.00  0.00    -0.295 N 
ATOM      2  C   UNL     1       3.771  -0.914   0.164  0.00  0.00    +0.316 C 
ATOM      3  O   UNL     1       4.339  -0.037  -0.457  0.00  0.00    -0.251 OA
ATOM      4  N   UNL     1       4.357  -1.460   1.248  0.00  0.00    -0.219 N 
ATOM      5  H   UNL     1       2.102  -2.040   0.265  0.00  0.00    +0.151 HD
ATOM      6  H   UNL     1       5.232  -1.153   1.532  0.00  0.00    +0.174 HD
ENDROOT
BRANCH   1  12
ATOM      7  C   UNL     1       0.398  -0.763  -1.229  0.00  0.00    +0.015 C 
ATOM      8  C   UNL     1      -0.081  -2.207  -1.063  0.00  0.00    +0.006 C 
ATOM      9  C   UNL     1       0.294  -3.014  -2.307  0.00  0.00    +0.000 C 
ATOM     10  C   UNL     1       1.813  -2.998  -2.487  0.00  0.00    +0.002 C 
ATOM     11  C   UNL     1       2.292  -1.554  -2.653  0.00  0.00    +0.022 C 
ATOM     12  C   UNL     1       1.917  -0.747  -1.409  0.00  0.00    +0.078 C 
BRANCH   7  14
ATOM     13  C   UNL     1       0.641   1.441  -0.078  0.00  0.00    +0.011 C 
ATOM     14  C   UNL     1       0.023   0.045   0.015  0.00  0.00    -0.033 C 
ATOM     15  C   UNL     1       0.553  -0.665   1.263  0.00  0.00    +0.011 C 
ATOM     16  C   UNL     1      -1.499   0.166   0.105  0.00  0.00    +0.011 C 
ENDBRANCH   7  14
ENDBRANCH   1  12
BRANCH   4  17
ATOM     17  N   UNL     1       3.703  -2.471   1.964  0.00  0.00    -0.245 N 
ATOM     18  H   UNL     1       2.828  -2.778   1.679  0.00  0.00    +0.172 HD
BRANCH  17  19
ATOM     19  C   UNL     1       4.289  -3.017   3.047  0.00  0.00    +0.147 C 
ATOM     20  S   UNL     1       3.490  -4.253   3.922  0.00  0.00    -0.017 S 
BRANCH  19  21
ATOM     21  N   UNL     1       5.505  -2.591   3.442  0.00  0.00    -0.323 N 
ATOM     22  H   UNL     1       5.958  -1.891   2.947  0.00  0.00    +0.148 HD
BRANCH  21  23
ATOM     23  C   UNL     1       6.143  -3.184   4.620  0.00  0.00    +0.072 C 
ATOM     24  C   UNL     1       5.705  -2.431   5.894  0.00  0.00    +0.022 C 
ATOM     25  C   UNL     1       6.977  -2.409   6.777  0.00  0.00    +0.002 C 
ATOM     26  C   UNL     1       8.109  -2.196   5.742  0.00  0.00    +0.002 C 
ATOM     27  C   UNL     1       7.671  -3.034   4.524  0.00  0.00    +0.022 C 
ENDBRANCH  21  23
ENDBRANCH  19  21
ENDBRANCH  17  19
ENDBRANCH   4  17
TORSDOF 6
