REMARK  Name = ZINC01769558
REMARK  11 active torsions:
REMARK  status: ('A' for Active; 'I' for Inactive)
REMARK    1  A    between atoms: C_1  and  C_2
REMARK    2  A    between atoms: C_2  and  O_3
REMARK    3  A    between atoms: O_3  and  C_4
REMARK    4  A    between atoms: C_4  and  C_6
REMARK    5  A    between atoms: C_7  and  C_32
REMARK    6  A    between atoms: C_10  and  N_11
REMARK    7  A    between atoms: C_12  and  C_14
REMARK    8  A    between atoms: C_14  and  C_30
REMARK    9  A    between atoms: C_15  and  C_16
REMARK   10  A    between atoms: C_19  and  C_21
REMARK   11  A    between atoms: C_24  and  N_27
REMARK                            x       y       z     vdW  Elec       q    Type
REMARK                         _______ _______ _______ _____ _____    ______ ____
ROOT
ATOM      1  N   UNL     1      -1.222  -2.361   2.484  0.00  0.00    -0.275 N 
ATOM      2  C   UNL     1      -1.241  -3.231   3.513  0.00  0.00    +0.259 C 
ATOM      3  O   UNL     1      -1.290  -4.428   3.298  0.00  0.00    -0.269 OA
ATOM      4  H   UNL     1      -1.183  -1.407   2.656  0.00  0.00    +0.156 HD
ENDROOT
BRANCH   1   9
ATOM      5  C   UNL     1      -1.248  -2.094   0.003  0.00  0.00    +0.095 A 
ATOM      6  C   UNL     1      -1.290  -2.848  -1.236  0.00  0.00    +0.005 A 
ATOM      7  C   UNL     1      -1.340  -4.200  -1.127  0.00  0.00    +0.056 A 
ATOM      8  S   UNL     1      -1.333  -4.469   0.633  0.00  0.00    -0.080 S 
ATOM      9  C   UNL     1      -1.259  -2.829   1.182  0.00  0.00    +0.087 A 
BRANCH   6  10
ATOM     10  C   UNL     1      -1.277  -2.175  -2.557  0.00  0.00    -0.016 A 
ATOM     11  C   UNL     1      -2.169  -1.136  -2.820  0.00  0.00    +0.011 A 
ATOM     12  C   UNL     1      -2.151  -0.510  -4.050  0.00  0.00    +0.039 A 
ATOM     13  C   UNL     1      -1.255  -0.918  -5.025  0.00  0.00    +0.123 A 
ATOM     14  C   UNL     1      -0.371  -1.954  -4.769  0.00  0.00    +0.039 A 
ATOM     15  C   UNL     1      -0.378  -2.583  -3.541  0.00  0.00    +0.011 A 
ATOM     16  F   UNL     1      -1.245  -0.305  -6.229  0.00  0.00    -0.205 F 
ENDBRANCH   6  10
BRANCH   5  17
ATOM     17  C   UNL     1      -1.192  -0.633   0.010  0.00  0.00    +0.342 C 
ATOM     18  O   UNL     1      -2.221   0.016   0.023  0.00  0.00    -0.245 OA
BRANCH  17  19
ATOM     19  O   UNL     1       0.002  -0.004   0.002  0.00  0.00    -0.461 OA
BRANCH  19  21
ATOM     20  C   UNL     1       1.418   1.954  -0.001  0.00  0.00    +0.048 C 
ATOM     21  C   UNL     1      -0.017   1.425   0.010  0.00  0.00    +0.229 C 
ENDBRANCH  19  21
ENDBRANCH  17  19
ENDBRANCH   5  17
ENDBRANCH   1   9
BRANCH   2  22
ATOM     22  C   UNL     1      -1.202  -2.735   4.893  0.00  0.00    +0.117 C 
ATOM     23  C   UNL     1      -1.221  -3.631   5.954  0.00  0.00    +0.070 C 
BRANCH  23  24
ATOM     24  C   UNL     1      -1.183  -3.157   7.275  0.00  0.00    +0.130 A 
ATOM     25  C   UNL     1      -1.202  -3.938   8.421  0.00  0.00    +0.050 A 
ATOM     26  C   UNL     1      -1.147  -3.063   9.505  0.00  0.00    +0.050 A 
ATOM     27  C   UNL     1      -1.106  -1.784   8.991  0.00  0.00    +0.136 A 
ATOM     28  O   UNL     1      -1.129  -1.861   7.650  0.00  0.00    -0.455 OA
BRANCH  27  29
ATOM     29  C   UNL     1      -1.048  -0.540   9.782  0.00  0.00    +0.017 A 
ATOM     30  C   UNL     1      -1.036  -0.596  11.178  0.00  0.00    +0.014 A 
ATOM     31  C   UNL     1      -0.976   0.571  11.911  0.00  0.00    +0.033 A 
ATOM     32  C   UNL     1      -0.939   1.795  11.267  0.00  0.00    +0.126 A 
ATOM     33  C   UNL     1      -0.956   1.858   9.884  0.00  0.00    +0.033 A 
ATOM     34  C   UNL     1      -1.010   0.700   9.139  0.00  0.00    +0.014 A 
BRANCH  32  35
ATOM     35  N   UNL     1      -0.881   3.043  12.060  0.00  0.00    +0.056 N 
ATOM     36  O   UNL     1      -0.848   4.123  11.496  0.00  0.00    -0.126 OA
ATOM     37  O   UNL     1      -0.866   2.991  13.277  0.00  0.00    -0.126 OA
ENDBRANCH  32  35
ENDBRANCH  27  29
ENDBRANCH  23  24
BRANCH  22  38
ATOM     38  C   UNL     1      -1.144  -1.327   5.147  0.00  0.00    +0.104 C 
ATOM     39  N   UNL     1      -1.098  -0.210   5.348  0.00  0.00    -0.191 NA
ENDBRANCH  22  38
ENDBRANCH   2  22
TORSDOF 10
