REMARK  Name = ZINC20016079
REMARK  5 active torsions:
REMARK  status: ('A' for Active; 'I' for Inactive)
REMARK    1  A    between atoms: C_1  and  C_2
REMARK    2  A    between atoms: C_8  and  N_10
REMARK    3  A    between atoms: N_10  and  S_11
REMARK    4  A    between atoms: S_11  and  C_14
REMARK    5  A    between atoms: N_20  and  N_21
REMARK                            x       y       z     vdW  Elec       q    Type
REMARK                         _______ _______ _______ _____ _____    ______ ____
ROOT
ATOM      1  S   UNL     1      -2.735   0.837   0.020  0.00  0.00    +0.060 S 
ATOM      2  O   UNL     1      -3.725   1.700  -0.522  0.00  0.00    -0.153 OA
ATOM      3  O   UNL     1      -2.447  -0.438  -0.539  0.00  0.00    -0.153 OA
ENDROOT
BRANCH   1   4
ATOM      4  C   UNL     1      -1.222   1.741   0.017  0.00  0.00    +0.123 A 
ATOM      5  C   UNL     1      -1.235   3.129   0.031  0.00  0.00    +0.033 A 
ATOM      6  C   UNL     1      -0.026   3.801   0.023  0.00  0.00    +0.046 A 
ATOM      7  C   UNL     1       1.156   3.066   0.007  0.00  0.00    +0.132 A 
ATOM      8  N   UNL     1       1.126   1.743   0.001  0.00  0.00    -0.237 NA
ATOM      9  C   UNL     1      -0.013   1.076   0.008  0.00  0.00    +0.141 A 
ATOM     10  N   UNL     1       2.378   3.728  -0.001  0.00  0.00    -0.268 N 
ATOM     11  H   UNL     1       2.408   4.828   0.005  0.00  0.00    +0.167 HD
BRANCH  10  12
ATOM     12  N   UNL     1       3.542   3.013  -0.016  0.00  0.00    -0.255 NA
ATOM     13  H   UNL     1       4.397   3.705  -0.020  0.00  0.00    +0.140 HD
ATOM     14  H   UNL     1       3.591   2.374   0.879  0.00  0.00    +0.140 HD
ENDBRANCH  10  12
ENDBRANCH   1   4
BRANCH   1  15
ATOM     15  N   UNL     1      -3.147   0.577   1.602  0.00  0.00    -0.187 NA
ATOM     16  H   UNL     1      -3.011  -0.425   2.036  0.00  0.00    +0.148 HD
BRANCH  15  23
ATOM     17  C   UNL     1      -5.822   0.866   2.676  0.00  0.00    +0.009 C 
ATOM     18  C   UNL     1      -4.576   1.297   3.452  0.00  0.00    +0.005 C 
ATOM     19  C   UNL     1      -4.923   2.481   4.357  0.00  0.00    +0.005 C 
ATOM     20  C   UNL     1      -3.676   2.912   5.133  0.00  0.00    +0.000 C 
ATOM     21  C   UNL     1      -2.580   3.326   4.149  0.00  0.00    +0.002 C 
ATOM     22  C   UNL     1      -2.233   2.141   3.245  0.00  0.00    +0.020 C 
ATOM     23  C   UNL     1      -3.479   1.711   2.468  0.00  0.00    +0.079 C 
ENDBRANCH  15  23
ENDBRANCH   1  15
TORSDOF 4
