REMARK  Name = ZINC09353461
REMARK  10 active torsions:
REMARK  status: ('A' for Active; 'I' for Inactive)
REMARK    1  A    between atoms: C_1  and  C_2
REMARK    2  A    between atoms: C_2  and  N_3
REMARK    3  A    between atoms: N_3  and  C_4
REMARK    4  A    between atoms: N_3  and  S_6
REMARK    5  A    between atoms: C_4  and  C_5
REMARK    6  A    between atoms: S_6  and  C_9
REMARK    7  A    between atoms: C_12  and  N_30
REMARK    8  A    between atoms: C_13  and  N_15
REMARK    9  A    between atoms: C_16  and  C_18
REMARK   10  A    between atoms: C_18  and  N_19
REMARK                            x       y       z     vdW  Elec       q    Type
REMARK                         _______ _______ _______ _____ _____    ______ ____
ROOT
ATOM      1  C   UNL     1      -2.893   0.525   2.029  0.00  0.00    +0.107 A 
ATOM      2  C   UNL     1      -2.204   1.399   2.849  0.00  0.00    +0.030 A 
ATOM      3  C   UNL     1      -2.828   2.530   3.340  0.00  0.00    +0.027 A 
ATOM      4  C   UNL     1      -4.150   2.792   3.009  0.00  0.00    +0.051 A 
ATOM      5  C   UNL     1      -4.845   1.911   2.182  0.00  0.00    +0.057 A 
ATOM      6  C   UNL     1      -4.209   0.781   1.689  0.00  0.00    +0.053 A 
ENDROOT
BRANCH   4   7
ATOM      7  N   UNL     1      -4.783   3.936   3.505  0.00  0.00    -0.328 N 
ATOM      8  C   UNL     1      -5.528   4.024   4.770  0.00  0.00    +0.105 C 
ATOM      9  C   UNL     1      -6.068   5.465   4.885  0.00  0.00    +0.020 C 
ATOM     10  C   UNL     1      -6.078   5.951   3.412  0.00  0.00    +0.020 C 
ATOM     11  C   UNL     1      -4.810   5.256   2.849  0.00  0.00    +0.105 C 
ENDBRANCH   4   7
BRANCH   5  12
ATOM     12  N   UNL     1      -6.180   2.169   1.844  0.00  0.00    -0.283 N 
ATOM     13  C   UNL     1      -6.994   1.155   1.490  0.00  0.00    +0.235 C 
ATOM     14  O   UNL     1      -6.601   0.009   1.561  0.00  0.00    -0.274 OA
ATOM     15  H   UNL     1      -6.519   3.078   1.865  0.00  0.00    +0.155 HD
BRANCH  13  16
ATOM     16  C   UNL     1      -8.392   1.444   1.008  0.00  0.00    +0.214 C 
BRANCH  16  17
ATOM     17  N   UNL     1      -9.069   0.184   0.689  0.00  0.00    -0.215 N 
ATOM     18  C   UNL     1      -9.039  -0.407  -0.525  0.00  0.00    +0.247 C 
ATOM     19  O   UNL     1      -8.471  -0.014  -1.521  0.00  0.00    -0.273 OA
ATOM     20  C   UNL     1      -9.863  -1.661  -0.377  0.00  0.00    +0.113 C 
ATOM     21  C   UNL     1      -9.025  -2.911  -0.677  0.00  0.00    +0.035 C 
ATOM     22  C   UNL     1     -10.027  -3.878  -1.360  0.00  0.00    +0.003 C 
ATOM     23  C   UNL     1     -10.897  -2.925  -2.218  0.00  0.00    +0.003 C 
ATOM     24  C   UNL     1     -11.051  -1.662  -1.342  0.00  0.00    +0.035 C 
ATOM     25  N   UNL     1     -10.308  -1.644   1.018  0.00  0.00    -0.285 N 
ATOM     26  C   UNL     1      -9.789  -0.527   1.566  0.00  0.00    +0.310 C 
ATOM     27  O   UNL     1      -9.957  -0.201   2.724  0.00  0.00    -0.252 OA
ATOM     28  H   UNL     1     -10.863  -2.306   1.460  0.00  0.00    +0.151 HD
ENDBRANCH  16  17
ENDBRANCH  13  16
ENDBRANCH   5  12
BRANCH   1  29
ATOM     29  S   UNL     1      -2.091  -0.915   1.407  0.00  0.00    +0.061 S 
ATOM     30  O   UNL     1      -3.115  -1.851   1.100  0.00  0.00    -0.153 OA
ATOM     31  O   UNL     1      -1.034  -1.212   2.310  0.00  0.00    -0.153 OA
BRANCH  29  32
ATOM     32  N   UNL     1      -1.382  -0.499  -0.030  0.00  0.00    -0.177 NA
BRANCH  32  34
ATOM     33  C   UNL     1      -0.032   1.540  -0.038  0.00  0.00    +0.022 C 
ATOM     34  C   UNL     1      -0.009   0.010  -0.050  0.00  0.00    +0.106 C 
ENDBRANCH  32  34
BRANCH  32  35
ATOM     35  C   UNL     1      -2.129  -0.640  -1.283  0.00  0.00    +0.106 C 
ATOM     36  C   UNL     1      -1.795  -1.987  -1.927  0.00  0.00    +0.022 C 
ENDBRANCH  32  35
ENDBRANCH  29  32
ENDBRANCH   1  29
TORSDOF 8
