REMARK  Name = ZINC64538803
REMARK  11 active torsions:
REMARK  status: ('A' for Active; 'I' for Inactive)
REMARK    1  A    between atoms: C_1  and  C_2
REMARK    2  A    between atoms: C_5  and  N_8
REMARK    3  A    between atoms: C_9  and  C_11
REMARK    4  A    between atoms: C_15  and  C_18
REMARK    5  A    between atoms: C_18  and  O_19
REMARK    6  A    between atoms: O_19  and  C_20
REMARK    7  A    between atoms: C_20  and  C_21
REMARK    8  A    between atoms: N_23  and  C_24
REMARK    9  A    between atoms: C_24  and  C_25
REMARK   10  A    between atoms: C_25  and  C_26
REMARK   11  A    between atoms: C_29  and  C_35
REMARK                            x       y       z     vdW  Elec       q    Type
REMARK                         _______ _______ _______ _____ _____    ______ ____
ROOT
ATOM      1  O   UNL     1      -2.014  -7.260   4.254  0.00  0.00    -0.368 OA
ENDROOT
BRANCH   1   2
ATOM      2  C   UNL     1      -1.441  -8.531   3.938  0.00  0.00    +0.200 C 
BRANCH   2   6
ATOM      3  C   UNL     1       0.309  -6.349   1.121  0.00  0.00    +0.272 C 
ATOM      4  N   UNL     1      -0.989  -7.003   0.836  0.00  0.00    -0.167 NA
ATOM      5  N   UNL     1      -1.388  -7.919   1.528  0.00  0.00    -0.174 NA
ATOM      6  C   UNL     1      -0.587  -8.404   2.675  0.00  0.00    +0.213 C 
ATOM      7  S   UNL     1       0.627  -7.016   2.816  0.00  0.00    -0.093 S 
BRANCH   3   9
ATOM      8  N   UNL     1       0.059  -4.170  -0.021  0.00  0.00    -0.283 N 
ATOM      9  C   UNL     1       0.175  -4.848   1.138  0.00  0.00    +0.254 C 
ATOM     10  O   UNL     1       0.173  -4.251   2.193  0.00  0.00    -0.272 OA
ATOM     11  H   UNL     1      -0.017  -4.651  -0.860  0.00  0.00    +0.155 HD
BRANCH   8  16
ATOM     12  C   UNL     1       0.008   1.503   0.007  0.00  0.00    +0.044 C 
ATOM     13  C   UNL     1       0.022  -0.004  -0.001  0.00  0.00    -0.050 A 
ATOM     14  C   UNL     1       0.777  -0.692   0.931  0.00  0.00    +0.005 A 
ATOM     15  C   UNL     1       0.791  -2.073   0.927  0.00  0.00    +0.023 A 
ATOM     16  C   UNL     1       0.046  -2.771  -0.014  0.00  0.00    +0.033 A 
ATOM     17  C   UNL     1      -0.712  -2.077  -0.948  0.00  0.00    +0.023 A 
ATOM     18  C   UNL     1      -0.726  -0.696  -0.936  0.00  0.00    +0.005 A 
ENDBRANCH   8  16
ENDBRANCH   3   9
ENDBRANCH   2   6
ENDBRANCH   1   2
BRANCH   1  19
ATOM     19  C   UNL     1      -2.835  -7.268   5.424  0.00  0.00    +0.255 C 
BRANCH  19  20
ATOM     20  C   UNL     1      -3.384  -5.885   5.662  0.00  0.00    +0.239 C 
ATOM     21  O   UNL     1      -3.100  -4.981   4.904  0.00  0.00    -0.273 OA
ATOM     22  N   UNL     1      -4.190  -5.652   6.716  0.00  0.00    -0.313 N 
ATOM     23  H   UNL     1      -4.417  -6.375   7.322  0.00  0.00    +0.149 HD
BRANCH  22  24
ATOM     24  C   UNL     1      -4.724  -4.308   6.948  0.00  0.00    +0.108 C 
BRANCH  24  25
ATOM     25  C   UNL     1      -5.603  -4.316   8.200  0.00  0.00    +0.052 C 
BRANCH  25  26
ATOM     26  C   UNL     1      -6.152  -2.933   8.438  0.00  0.00    -0.040 C 
ATOM     27  C   UNL     1      -7.354  -2.456   8.043  0.00  0.00    -0.001 A 
ATOM     28  C   UNL     1      -8.468  -3.059   7.301  0.00  0.00    +0.013 A 
ATOM     29  C   UNL     1      -9.568  -2.314   7.050  0.00  0.00    -0.050 A 
ATOM     30  C   UNL     1      -9.671  -0.984   7.478  0.00  0.00    +0.005 A 
ATOM     31  C   UNL     1      -8.690  -0.360   8.165  0.00  0.00    +0.026 A 
ATOM     32  C   UNL     1      -7.488  -1.050   8.485  0.00  0.00    +0.043 A 
ATOM     33  N   UNL     1      -6.410  -0.672   9.128  0.00  0.00    -0.380 N 
ATOM     34  C   UNL     1      -5.472  -1.799   9.172  0.00  0.00    +0.144 C 
ATOM     35  C   UNL     1     -10.713  -2.930   6.288  0.00  0.00    +0.044 C 
ATOM     36  H   UNL     1      -6.259   0.205   9.514  0.00  0.00    +0.160 HD
ENDBRANCH  25  26
ENDBRANCH  24  25
ENDBRANCH  22  24
ENDBRANCH  19  20
ENDBRANCH   1  19
TORSDOF 9
