REMARK  Name = ZINC20973364
REMARK  7 active torsions:
REMARK  status: ('A' for Active; 'I' for Inactive)
REMARK    1  A    between atoms: C_1  and  C_2
REMARK    2  A    between atoms: C_2  and  C_3
REMARK    3  A    between atoms: C_3  and  C_4
REMARK    4  A    between atoms: C_4  and  C_5
REMARK    5  A    between atoms: C_15  and  C_17
REMARK    6  A    between atoms: C_19  and  N_28
REMARK    7  A    between atoms: C_22  and  N_23
REMARK                            x       y       z     vdW  Elec       q    Type
REMARK                         _______ _______ _______ _____ _____    ______ ____
ROOT
ATOM      1  C   UNL     1      -1.300   3.571   2.044  0.00  0.00    -0.046 A 
ATOM      2  C   UNL     1      -2.297   4.268   1.377  0.00  0.00    +0.006 A 
ATOM      3  C   UNL     1      -2.262   5.633   1.259  0.00  0.00    +0.029 A 
ATOM      4  C   UNL     1      -1.199   6.379   1.819  0.00  0.00    +0.080 A 
ATOM      5  C   UNL     1      -0.201   5.636   2.491  0.00  0.00    +0.041 A 
ATOM      6  C   UNL     1      -0.248   4.269   2.608  0.00  0.00    +0.021 A 
ATOM      7  S   UNL     1       0.917   6.906   3.031  0.00  0.00    -0.052 S 
ATOM      8  C   UNL     1       0.021   8.297   2.355  0.00  0.00    +0.166 A 
ATOM      9  N   UNL     1      -1.015   7.716   1.794  0.00  0.00    -0.225 NA
ATOM     10  N   UNL     1       0.338   9.643   2.408  0.00  0.00    -0.261 N 
ATOM     11  C   UNL     1      -0.475  10.550   1.831  0.00  0.00    +0.252 C 
ATOM     12  O   UNL     1      -1.486  10.186   1.263  0.00  0.00    -0.270 OA
ATOM     13  H   UNL     1       1.253   9.973   2.922  0.00  0.00    +0.157 HD
ENDROOT
BRANCH  11  14
ATOM     14  C   UNL     1      -0.137  11.984   1.888  0.00  0.00    +0.060 A 
ATOM     15  C   UNL     1       0.962  12.418   2.634  0.00  0.00    +0.047 A 
ATOM     16  C   UNL     1       1.272  13.759   2.683  0.00  0.00    +0.127 A 
ATOM     17  C   UNL     1       0.499  14.683   1.996  0.00  0.00    +0.034 A 
ATOM     18  C   UNL     1      -0.589  14.270   1.255  0.00  0.00    +0.026 A 
ATOM     19  C   UNL     1      -0.914  12.921   1.188  0.00  0.00    +0.042 A 
BRANCH  19  20
ATOM     20  N   UNL     1      -2.005  12.502   0.439  0.00  0.00    -0.329 N 
ATOM     21  C   UNL     1      -3.234  13.239   0.829  0.00  0.00    +0.105 C 
ATOM     22  C   UNL     1      -4.163  13.055  -0.397  0.00  0.00    +0.020 C 
ATOM     23  C   UNL     1      -3.182  13.134  -1.589  0.00  0.00    +0.020 C 
ATOM     24  C   UNL     1      -1.802  12.789  -0.998  0.00  0.00    +0.105 C 
ENDBRANCH  19  20
BRANCH  16  25
ATOM     25  N   UNL     1       2.437  14.217   3.474  0.00  0.00    +0.056 N 
ATOM     26  O   UNL     1       3.118  13.409   4.079  0.00  0.00    -0.126 OA
ATOM     27  O   UNL     1       2.714  15.402   3.520  0.00  0.00    -0.126 OA
ENDBRANCH  16  25
ENDBRANCH  11  14
BRANCH   1  28
ATOM     28  C   UNL     1      -1.365   2.070   2.157  0.00  0.00    +0.035 C 
BRANCH  28  29
ATOM     29  C   UNL     1      -0.651   1.437   0.962  0.00  0.00    +0.004 C 
BRANCH  29  31
ATOM     30  C   UNL     1      -0.002  -0.721  -0.118  0.00  0.00    +0.004 C 
ATOM     31  C   UNL     1      -0.717  -0.088   1.077  0.00  0.00    -0.003 C 
ENDBRANCH  29  31
ENDBRANCH  28  29
ENDBRANCH   1  28
TORSDOF 6
