REMARK  Name = ZINC21604136
REMARK  9 active torsions:
REMARK  status: ('A' for Active; 'I' for Inactive)
REMARK    1  A    between atoms: C_1  and  C_2
REMARK    2  A    between atoms: C_2  and  C_3
REMARK    3  A    between atoms: C_3  and  C_5
REMARK    4  A    between atoms: C_3  and  C_6
REMARK    5  A    between atoms: C_9  and  N_12
REMARK    6  A    between atoms: C_22  and  S_23
REMARK    7  A    between atoms: S_23  and  C_24
REMARK    8  A    between atoms: C_24  and  C_26
REMARK    9  A    between atoms: C_24  and  C_27
REMARK                            x       y       z     vdW  Elec       q    Type
REMARK                         _______ _______ _______ _____ _____    ______ ____
ROOT
ATOM      1  N   UNL     1      -2.990   4.944   6.155  0.00  0.00    -0.255 N 
ATOM      2  C   UNL     1      -2.224   5.642   7.026  0.00  0.00    +0.267 A 
ATOM      3  O   UNL     1      -1.056   5.885   6.783  0.00  0.00    -0.267 OA
ATOM      4  C   UNL     1      -2.852   6.094   8.274  0.00  0.00    +0.065 A 
ATOM      5  C   UNL     1      -2.147   6.819   9.233  0.00  0.00    +0.015 A 
ATOM      6  C   UNL     1      -2.780   7.216  10.378  0.00  0.00    +0.001 A 
ATOM      7  C   UNL     1      -4.117   6.904  10.594  0.00  0.00    +0.002 A 
ATOM      8  C   UNL     1      -4.832   6.195   9.671  0.00  0.00    +0.028 A 
ATOM      9  C   UNL     1      -4.212   5.775   8.490  0.00  0.00    +0.079 A 
ATOM     10  N   UNL     1      -4.883   5.071   7.549  0.00  0.00    -0.223 NA
ATOM     11  C   UNL     1      -4.302   4.683   6.441  0.00  0.00    +0.177 A 
ENDROOT
BRANCH   1  15
ATOM     12  C   UNL     1      -1.345   3.596   2.571  0.00  0.00    -0.044 A 
ATOM     13  C   UNL     1      -1.934   4.846   2.633  0.00  0.00    +0.006 A 
ATOM     14  C   UNL     1      -2.485   5.293   3.818  0.00  0.00    +0.026 A 
ATOM     15  C   UNL     1      -2.437   4.491   4.951  0.00  0.00    +0.052 A 
ATOM     16  C   UNL     1      -1.840   3.239   4.886  0.00  0.00    +0.026 A 
ATOM     17  C   UNL     1      -1.296   2.795   3.697  0.00  0.00    +0.006 A 
BRANCH  12  18
ATOM     18  C   UNL     1      -0.750   3.109   1.275  0.00  0.00    +0.016 C 
ATOM     19  C   UNL     1       0.355   4.068   0.829  0.00  0.00    +0.012 C 
BRANCH  18  21
ATOM     20  C   UNL     1      -1.266   2.442  -1.077  0.00  0.00    +0.004 C 
ATOM     21  C   UNL     1      -1.840   3.054   0.203  0.00  0.00    +0.004 C 
ENDBRANCH  18  21
ENDBRANCH  12  18
ENDBRANCH   1  15
BRANCH  11  22
ATOM     22  S   UNL     1      -5.252   3.776   5.266  0.00  0.00    -0.075 S 
BRANCH  22  23
ATOM     23  C   UNL     1      -6.845   3.724   6.124  0.00  0.00    +0.137 C 
ATOM     24  C   UNL     1      -6.706   2.907   7.410  0.00  0.00    +0.029 C 
BRANCH  23  25
ATOM     25  C   UNL     1      -7.876   3.083   5.231  0.00  0.00    +0.236 C 
ATOM     26  O   UNL     1      -7.530   2.314   4.361  0.00  0.00    -0.274 OA
ATOM     27  N   UNL     1      -9.183   3.366   5.400  0.00  0.00    -0.224 N 
ATOM     28  C   UNL     1     -10.285   2.816   4.596  0.00  0.00    +0.136 C 
ATOM     29  C   UNL     1     -11.545   3.459   5.207  0.00  0.00    +0.125 C 
ATOM     30  N   UNL     1     -11.019   4.310   6.285  0.00  0.00    -0.297 N 
ATOM     31  C   UNL     1      -9.684   4.198   6.322  0.00  0.00    +0.309 C 
ATOM     32  O   UNL     1      -8.992   4.796   7.122  0.00  0.00    -0.252 OA
ATOM     33  H   UNL     1     -11.708   4.905   6.902  0.00  0.00    +0.150 HD
ENDBRANCH  23  25
ENDBRANCH  22  23
ENDBRANCH  11  22
TORSDOF 6
