REMARK  Name = ZINC39675214
REMARK  11 active torsions:
REMARK  status: ('A' for Active; 'I' for Inactive)
REMARK    1  A    between atoms: C_1  and  C_2
REMARK    2  A    between atoms: C_2  and  C_4
REMARK    3  A    between atoms: C_2  and  N_14
REMARK    4  A    between atoms: C_4  and  C_5
REMARK    5  A    between atoms: C_5  and  C_6
REMARK    6  A    between atoms: C_9  and  O_12
REMARK    7  A    between atoms: O_12  and  C_13
REMARK    8  A    between atoms: C_15  and  C_17
REMARK    9  A    between atoms: C_28  and  C_30
REMARK   10  A    between atoms: C_35  and  O_36
REMARK   11  A    between atoms: O_36  and  C_37
REMARK                            x       y       z     vdW  Elec       q    Type
REMARK                         _______ _______ _______ _____ _____    ______ ____
ROOT
ATOM      1  C   UNL     1      -3.459  -1.168  -1.129  0.00  0.00    +0.100 C 
ATOM      2  C   UNL     1      -3.481  -2.658  -0.720  0.00  0.00    +0.121 C 
ATOM      3  N   UNL     1      -4.545  -3.261  -1.556  0.00  0.00    -0.296 N 
ATOM      4  C   UNL     1      -4.389  -2.608  -2.878  0.00  0.00    +0.115 C 
ATOM      5  C   UNL     1      -4.055  -1.140  -2.547  0.00  0.00    -0.004 C 
ATOM      6  C   UNL     1      -5.323  -0.292  -2.570  0.00  0.00    -0.010 C 
ATOM      7  C   UNL     1      -5.865  -0.232  -4.001  0.00  0.00    -0.082 C 
ATOM      8  N   UNL     1      -4.849   0.347  -4.887  0.00  0.00    +0.379 N 
ATOM      9  C   UNL     1      -3.668  -0.522  -4.931  0.00  0.00    -0.082 C 
ATOM     10  C   UNL     1      -3.033  -0.595  -3.539  0.00  0.00    -0.010 C 
ATOM     11  C   UNL     1      -5.450  -4.192  -1.197  0.00  0.00    +0.250 C 
ATOM     12  O   UNL     1      -5.515  -4.563  -0.041  0.00  0.00    -0.270 OA
ATOM     13  H   UNL     1      -5.230   0.442  -5.817  0.00  0.00    -0.086 HD
ATOM     14  H   UNL     1      -4.583   1.257  -4.542  0.00  0.00    -0.086 HD
ENDROOT
BRANCH  11  15
ATOM     15  C   UNL     1      -6.363  -4.762  -2.207  0.00  0.00    +0.078 A 
ATOM     16  C   UNL     1      -5.923  -4.964  -3.517  0.00  0.00    +0.017 A 
ATOM     17  C   UNL     1      -6.780  -5.497  -4.455  0.00  0.00    +0.001 A 
ATOM     18  C   UNL     1      -8.078  -5.833  -4.105  0.00  0.00    +0.004 A 
ATOM     19  C   UNL     1      -8.525  -5.639  -2.814  0.00  0.00    +0.046 A 
ATOM     20  C   UNL     1      -7.675  -5.109  -1.855  0.00  0.00    +0.132 A 
BRANCH  20  21
ATOM     21  O   UNL     1      -8.111  -4.922  -0.585  0.00  0.00    -0.494 OA
ATOM     22  C   UNL     1      -9.460  -5.300  -0.300  0.00  0.00    +0.277 C 
ENDBRANCH  20  21
ENDBRANCH  11  15
BRANCH   1  24
ATOM     23  N   UNL     1      -1.812   0.676  -1.061  0.00  0.00    -0.312 N 
ATOM     24  C   UNL     1      -2.044  -0.649  -1.144  0.00  0.00    +0.218 C 
ATOM     25  O   UNL     1      -1.115  -1.424  -1.231  0.00  0.00    -0.275 OA
ATOM     26  H   UNL     1      -2.555   1.295  -0.992  0.00  0.00    +0.149 HD
BRANCH  23  28
ATOM     27  C   UNL     1       0.034   1.337  -2.523  0.00  0.00    +0.028 C 
ATOM     28  C   UNL     1      -0.436   1.181  -1.076  0.00  0.00    +0.070 C 
BRANCH  28  29
ATOM     29  C   UNL     1      -0.384   2.538  -0.373  0.00  0.00    +0.026 C 
BRANCH  29  30
ATOM     30  C   UNL     1      -0.734   2.361   1.106  0.00  0.00    +0.037 C 
BRANCH  30  31
ATOM     31  C   UNL     1      -0.682   3.698   1.799  0.00  0.00    -0.047 A 
ATOM     32  C   UNL     1       0.500   4.137   2.364  0.00  0.00    +0.007 A 
ATOM     33  C   UNL     1       0.550   5.362   3.000  0.00  0.00    +0.046 A 
ATOM     34  C   UNL     1      -0.588   6.153   3.071  0.00  0.00    +0.120 A 
ATOM     35  C   UNL     1      -1.773   5.710   2.502  0.00  0.00    +0.046 A 
ATOM     36  C   UNL     1      -1.817   4.486   1.863  0.00  0.00    +0.007 A 
BRANCH  34  37
ATOM     37  O   UNL     1      -0.541   7.358   3.696  0.00  0.00    -0.495 OA
ATOM     38  C   UNL     1      -1.751   8.118   3.731  0.00  0.00    +0.277 C 
ENDBRANCH  34  37
ENDBRANCH  30  31
ENDBRANCH  29  30
ENDBRANCH  28  29
ENDBRANCH  23  28
ENDBRANCH   1  24
TORSDOF 8
