REMARK  Name = ZINC42734519
REMARK  6 active torsions:
REMARK  status: ('A' for Active; 'I' for Inactive)
REMARK    1  A    between atoms: C_1  and  C_2
REMARK    2  A    between atoms: C_4  and  C_14
REMARK    3  A    between atoms: C_6  and  C_7
REMARK    4  A    between atoms: C_14  and  C_16
REMARK    5  A    between atoms: C_14  and  N_17
REMARK    6  A    between atoms: N_17  and  C_18
REMARK                            x       y       z     vdW  Elec       q    Type
REMARK                         _______ _______ _______ _____ _____    ______ ____
ROOT
ATOM      1  C   UNL     1      -0.325   1.480   0.047  0.00  0.00    +0.045 C 
ATOM      2  C   UNL     1      -0.130  -0.014   0.018  0.00  0.00    -0.035 A 
ATOM      3  C   UNL     1      -0.198  -0.708  -1.171  0.00  0.00    +0.013 A 
ATOM      4  C   UNL     1      -0.017  -2.053  -1.162  0.00  0.00    -0.024 A 
ATOM      5  S   UNL     1       0.263  -2.382   0.570  0.00  0.00    -0.095 S 
ATOM      6  C   UNL     1       0.125  -0.707   1.171  0.00  0.00    +0.022 A 
ENDROOT
BRANCH   6   7
ATOM      7  C   UNL     1       0.253  -0.199   2.554  0.00  0.00    -0.011 A 
ATOM      8  C   UNL     1      -0.412  -0.842   3.599  0.00  0.00    +0.010 A 
ATOM      9  C   UNL     1      -0.289  -0.363   4.888  0.00  0.00    +0.015 A 
ATOM     10  C   UNL     1       0.491   0.751   5.144  0.00  0.00    +0.013 A 
ATOM     11  C   UNL     1       1.152   1.393   4.111  0.00  0.00    +0.015 A 
ATOM     12  C   UNL     1       1.042   0.920   2.819  0.00  0.00    +0.010 A 
ATOM     13  I   UNL     1       0.671   1.470   7.103  0.00  0.00    -0.044 I 
ENDBRANCH   6   7
BRANCH   4  14
ATOM     14  C   UNL     1      -0.045  -3.020  -2.318  0.00  0.00    -0.038 C 
ATOM     15  C   UNL     1      -1.403  -3.724  -2.361  0.00  0.00    -0.008 C 
BRANCH  14  16
ATOM     16  N   UNL     1       1.018  -4.019  -2.146  0.00  0.00    +0.382 N 
ATOM     17  C   UNL     1       1.069  -4.888  -3.329  0.00  0.00    -0.100 C 
ATOM     18  H   UNL     1       1.905  -3.550  -2.035  0.00  0.00    -0.085 HD
ATOM     19  H   UNL     1       0.827  -4.576  -1.327  0.00  0.00    -0.085 HD
ENDBRANCH  14  16
ENDBRANCH   4  14
TORSDOF 3
