REMARK  Name = ZINC05043565
REMARK  7 active torsions:
REMARK  status: ('A' for Active; 'I' for Inactive)
REMARK    1  A    between atoms: C_1  and  C_2
REMARK    2  A    between atoms: C_2  and  C_3
REMARK    3  A    between atoms: C_3  and  C_4
REMARK    4  A    between atoms: C_4  and  N_5
REMARK    5  A    between atoms: C_6  and  C_8
REMARK    6  A    between atoms: C_12  and  C_23
REMARK    7  A    between atoms: C_15  and  C_19
REMARK                            x       y       z     vdW  Elec       q    Type
REMARK                         _______ _______ _______ _____ _____    ______ ____
ROOT
ATOM      1  C   UNL     1      -4.403  -4.411   0.020  0.00  0.00    +0.110 C 
ATOM      2  C   UNL     1      -5.522  -3.646   0.029  0.00  0.00    +0.072 C 
ATOM      3  C   UNL     1      -6.668  -4.554   0.036  0.00  0.00    +0.114 C 
ATOM      4  N   UNL     1      -7.944  -4.291   0.035  0.00  0.00    -0.362 N 
ATOM      5  C   UNL     1      -8.902  -5.402   0.004  0.00  0.00    +0.149 C 
ATOM      6  C   UNL     1      -8.337  -6.619   0.738  0.00  0.00    +0.065 C 
ATOM      7  C   UNL     1      -7.003  -7.037   0.098  0.00  0.00    +0.202 C 
ATOM      8  N   UNL     1      -6.152  -5.844   0.052  0.00  0.00    -0.226 N 
ATOM      9  N   UNL     1      -4.765  -5.748   0.017  0.00  0.00    -0.258 N 
ATOM     10  H   UNL     1      -4.150  -6.498  -0.005  0.00  0.00    +0.170 HD
ATOM     11  H   UNL     1      -8.256  -3.373   0.055  0.00  0.00    +0.162 HD
ENDROOT
BRANCH   5  12
ATOM     12  C   UNL     1      -9.185  -5.774  -1.429  0.00  0.00    +0.127 A 
ATOM     13  C   UNL     1     -10.388  -6.103  -1.932  0.00  0.00    +0.047 A 
ATOM     14  C   UNL     1     -10.196  -6.376  -3.306  0.00  0.00    +0.041 A 
ATOM     15  C   UNL     1      -8.887  -6.197  -3.560  0.00  0.00    +0.195 A 
ATOM     16  O   UNL     1      -8.281  -5.827  -2.420  0.00  0.00    -0.466 OA
ENDBRANCH   5  12
BRANCH   1  18
ATOM     17  N   UNL     1      -2.787  -2.571   0.015  0.00  0.00    -0.310 N 
ATOM     18  C   UNL     1      -3.015  -3.899   0.010  0.00  0.00    +0.259 C 
ATOM     19  O   UNL     1      -2.081  -4.676  -0.003  0.00  0.00    -0.269 OA
ATOM     20  H   UNL     1      -3.533  -1.950   0.025  0.00  0.00    +0.149 HD
BRANCH  17  21
ATOM     21  C   UNL     1      -1.413  -2.063   0.004  0.00  0.00    +0.104 C 
BRANCH  21  22
ATOM     22  C   UNL     1      -1.433  -0.534   0.013  0.00  0.00    +0.018 C 
BRANCH  22  24
ATOM     23  C   UNL     1      -0.019   1.526   0.010  0.00  0.00    +0.004 C 
ATOM     24  C   UNL     1       0.002  -0.004   0.002  0.00  0.00    -0.002 C 
ENDBRANCH  22  24
ENDBRANCH  21  22
ENDBRANCH  17  21
ENDBRANCH   1  18
BRANCH   7  25
ATOM     25  C   UNL     1      -6.337  -8.123   0.946  0.00  0.00    +0.410 C 
ATOM     26  F   UNL     1      -7.180  -9.236   1.025  0.00  0.00    -0.169 F 
ATOM     27  F   UNL     1      -5.125  -8.496   0.356  0.00  0.00    -0.169 F 
ATOM     28  F   UNL     1      -6.097  -7.628   2.232  0.00  0.00    -0.169 F 
ENDBRANCH   7  25
TORSDOF 6
