REMARK  Name = ZINC65285717
REMARK  2 active torsions:
REMARK  status: ('A' for Active; 'I' for Inactive)
REMARK    1  A    between atoms: N_4  and  C_18
REMARK    2  A    between atoms: C_8  and  C_9
REMARK                            x       y       z     vdW  Elec       q    Type
REMARK                         _______ _______ _______ _____ _____    ______ ____
ROOT
ATOM      1  C   UNL     1       0.001   1.333   0.206  0.00  0.00    +0.030 A 
ATOM      2  C   UNL     1       1.251   2.063   0.129  0.00  0.00    +0.007 A 
ATOM      3  C   UNL     1       1.782   3.344   0.261  0.00  0.00    +0.095 A 
ATOM      4  N   UNL     1       3.110   3.288   0.038  0.00  0.00    -0.349 N 
ATOM      5  C   UNL     1       3.494   2.006  -0.242  0.00  0.00    +0.101 A 
ATOM      6  C   UNL     1       2.415   1.217  -0.202  0.00  0.00    +0.038 A 
ATOM      7  S   UNL     1       1.704  -0.398  -0.362  0.00  0.00    -0.082 S 
ATOM      8  C   UNL     1       0.000  -0.002  -0.021  0.00  0.00    +0.075 A 
ENDROOT
BRANCH   8   9
ATOM      9  C   UNL     1      -1.146  -0.918   0.008  0.00  0.00    +0.253 C 
ATOM     10  O   UNL     1      -2.273  -0.478   0.132  0.00  0.00    -0.269 OA
ATOM     11  N   UNL     1      -0.950  -2.247  -0.103  0.00  0.00    -0.297 N 
ATOM     12  C   UNL     1       0.406  -2.749  -0.110  0.00  0.00    +0.108 C 
ATOM     13  C   UNL     1       0.939  -2.785  -1.563  0.00  0.00    +0.019 C 
ATOM     14  C   UNL     1       0.276  -3.856  -2.324  0.00  0.00    +0.002 C 
ATOM     15  C   UNL     1      -1.231  -3.676  -2.479  0.00  0.00    +0.002 C 
ATOM     16  C   UNL     1      -1.929  -4.236  -1.264  0.00  0.00    +0.019 C 
ATOM     17  C   UNL     1      -2.128  -3.130  -0.206  0.00  0.00    +0.108 C 
ENDBRANCH   8   9
BRANCH   4  18
ATOM     18  C   UNL     1       4.015   4.439   0.087  0.00  0.00    +0.087 C 
ATOM     19  C   UNL     1       5.453   4.228  -0.389  0.00  0.00    +0.027 C 
ATOM     20  C   UNL     1       5.158   4.396   1.103  0.00  0.00    +0.027 C 
ENDBRANCH   4  18
TORSDOF 2
