REMARK  Name = ZINC19756629
REMARK  7 active torsions:
REMARK  status: ('A' for Active; 'I' for Inactive)
REMARK    1  A    between atoms: C_1  and  C_2
REMARK    2  A    between atoms: C_2  and  C_3
REMARK    3  A    between atoms: N_6  and  C_15
REMARK    4  A    between atoms: C_9  and  N_14
REMARK    5  A    between atoms: C_15  and  C_17
REMARK    6  A    between atoms: C_15  and  C_18
REMARK    7  A    between atoms: N_20  and  C_21
REMARK                            x       y       z     vdW  Elec       q    Type
REMARK                         _______ _______ _______ _____ _____    ______ ____
ROOT
ATOM      1  C   UNL     1       0.584  -2.272   2.942  0.00  0.00    +0.190 C 
ATOM      2  C   UNL     1       0.128  -1.883   1.530  0.00  0.00    +0.150 C 
ATOM      3  N   UNL     1       0.268  -0.430   1.377  0.00  0.00    -0.312 N 
ATOM      4  C   UNL     1       1.535   0.021   1.762  0.00  0.00    +0.074 A 
ATOM      5  C   UNL     1       1.969   1.258   1.298  0.00  0.00    +0.049 A 
ATOM      6  C   UNL     1       3.217   1.740   1.662  0.00  0.00    +0.027 A 
ATOM      7  C   UNL     1       4.037   0.987   2.492  0.00  0.00    +0.026 A 
ATOM      8  C   UNL     1       3.608  -0.242   2.953  0.00  0.00    +0.049 A 
ATOM      9  C   UNL     1       2.360  -0.730   2.591  0.00  0.00    +0.142 A 
ATOM     10  O   UNL     1       1.973  -1.950   3.060  0.00  0.00    -0.485 OA
ENDROOT
BRANCH   6  11
ATOM     11  N   UNL     1       3.651   2.985   1.192  0.00  0.00    -0.358 N 
ATOM     12  H   UNL     1       4.641   3.367   1.481  0.00  0.00    +0.142 HD
ATOM     13  H   UNL     1       3.002   3.581   0.534  0.00  0.00    +0.142 HD
ENDBRANCH   6  11
BRANCH   1  15
ATOM     14  C   UNL     1       0.757  -4.139   4.593  0.00  0.00    +0.007 C 
ATOM     15  C   UNL     1       0.381  -3.773   3.156  0.00  0.00    +0.043 C 
ENDBRANCH   1  15
BRANCH   3  16
ATOM     16  C   UNL     1      -0.044  -0.013   0.003  0.00  0.00    +0.157 C 
ATOM     17  C   UNL     1       0.763  -0.861  -0.983  0.00  0.00    +0.038 C 
BRANCH  16  18
ATOM     18  C   UNL     1      -1.516  -0.203  -0.258  0.00  0.00    +0.237 C 
ATOM     19  O   UNL     1      -2.197  -0.818   0.535  0.00  0.00    -0.273 OA
ATOM     20  N   UNL     1      -2.074   0.310  -1.372  0.00  0.00    -0.284 N 
ATOM     21  H   UNL     1      -1.471   0.922  -2.058  0.00  0.00    +0.155 HD
BRANCH  20  22
ATOM     22  C   UNL     1      -3.422   0.065  -1.655  0.00  0.00    +0.033 A 
ATOM     23  C   UNL     1      -3.838  -0.099  -2.970  0.00  0.00    +0.023 A 
ATOM     24  C   UNL     1      -5.169  -0.346  -3.246  0.00  0.00    +0.002 A 
ATOM     25  C   UNL     1      -6.088  -0.420  -2.216  0.00  0.00    +0.000 A 
ATOM     26  C   UNL     1      -5.678  -0.253  -0.906  0.00  0.00    +0.002 A 
ATOM     27  C   UNL     1      -4.348  -0.011  -0.623  0.00  0.00    +0.023 A 
ENDBRANCH  20  22
ENDBRANCH  16  18
ENDBRANCH   3  16
TORSDOF 5
