REMARK  Name = ZINC64066639
REMARK  7 active torsions:
REMARK  status: ('A' for Active; 'I' for Inactive)
REMARK    1  A    between atoms: C_6  and  C_11
REMARK    2  A    between atoms: C_11  and  N_12
REMARK    3  A    between atoms: C_13  and  C_15
REMARK    4  A    between atoms: C_15  and  C_16
REMARK    5  A    between atoms: C_16  and  C_17
REMARK    6  A    between atoms: C_21  and  C_24
REMARK    7  A    between atoms: C_24  and  C_28
REMARK                            x       y       z     vdW  Elec       q    Type
REMARK                         _______ _______ _______ _____ _____    ______ ____
ROOT
ATOM      1  C   UNL     1       9.350  -3.501   3.525  0.00  0.00    +0.202 C 
ATOM      2  N   UNL     1       9.605  -4.261   4.766  0.00  0.00    -0.227 NA
ATOM      3  N   UNL     1      10.241  -3.316   5.691  0.00  0.00    -0.226 NA
ATOM      4  C   UNL     1      10.812  -2.277   4.793  0.00  0.00    +0.212 C 
ATOM      5  O   UNL     1       9.816  -2.159   3.751  0.00  0.00    -0.341 OA
ATOM      6  H   UNL     1      10.205  -5.052   4.589  0.00  0.00    +0.143 HD
ATOM      7  H   UNL     1      10.966  -3.767   6.228  0.00  0.00    +0.143 HD
ENDROOT
BRANCH   4   8
ATOM      8  C   UNL     1      10.980  -0.952   5.539  0.00  0.00    +0.036 C 
ATOM      9  C   UNL     1       9.664  -0.177   5.722  0.00  0.00    +0.015 C 
ATOM     10  C   UNL     1      10.466   1.100   5.418  0.00  0.00    +0.002 C 
ATOM     11  C   UNL     1      11.445   0.206   4.639  0.00  0.00    +0.015 C 
BRANCH   8  12
ATOM     12  C   UNL     1      11.782  -1.091   6.807  0.00  0.00    -0.037 A 
ATOM     13  C   UNL     1      11.176  -0.890   8.033  0.00  0.00    +0.006 A 
ATOM     14  C   UNL     1      11.912  -1.018   9.196  0.00  0.00    +0.020 A 
ATOM     15  C   UNL     1      13.254  -1.347   9.133  0.00  0.00    +0.041 A 
ATOM     16  C   UNL     1      13.860  -1.548   7.906  0.00  0.00    +0.020 A 
ATOM     17  C   UNL     1      13.122  -1.425   6.743  0.00  0.00    +0.006 A 
ATOM     18 CL   UNL     1      14.178  -1.507  10.594  0.00  0.00    -0.084 Cl
ENDBRANCH   8  12
ENDBRANCH   4   8
BRANCH   1  19
ATOM     19  C   UNL     1       7.851  -3.489   3.218  0.00  0.00    +0.058 C 
BRANCH  19  20
ATOM     20  C   UNL     1       7.607  -2.765   1.892  0.00  0.00    +0.099 C 
BRANCH  20  22
ATOM     21  N   UNL     1       5.678  -2.166   0.465  0.00  0.00    -0.313 N 
ATOM     22  C   UNL     1       6.131  -2.753   1.590  0.00  0.00    +0.213 C 
ATOM     23  O   UNL     1       5.350  -3.272   2.360  0.00  0.00    -0.276 OA
ATOM     24  H   UNL     1       6.302  -1.751  -0.150  0.00  0.00    +0.149 HD
BRANCH  21  25
ATOM     25  C   UNL     1       4.242  -2.154   0.172  0.00  0.00    +0.132 C 
BRANCH  25  31
ATOM     26  C   UNL     1       1.267   2.288  -1.669  0.00  0.00    +0.001 A 
ATOM     27  C   UNL     1       2.513   2.910  -1.511  0.00  0.00    +0.002 A 
ATOM     28  C   UNL     1       3.656   2.216  -1.324  0.00  0.00    +0.026 A 
ATOM     29  C   UNL     1       3.635   0.795  -1.280  0.00  0.00    +0.043 A 
ATOM     30  N   UNL     1       4.590  -0.088  -1.114  0.00  0.00    -0.376 N 
ATOM     31  C   UNL     1       3.999  -1.430  -1.154  0.00  0.00    +0.120 C 
ATOM     32  C   UNL     1       2.517  -1.224  -1.373  0.00  0.00    +0.009 C 
ATOM     33  C   UNL     1       2.331   0.114  -1.444  0.00  0.00    -0.004 A 
ATOM     34  C   UNL     1       1.135   0.942  -1.642  0.00  0.00    +0.010 A 
ATOM     35  H   UNL     1       5.530   0.113  -0.987  0.00  0.00    +0.160 HD
ENDBRANCH  25  31
ENDBRANCH  21  25
ENDBRANCH  20  22
ENDBRANCH  19  20
ENDBRANCH   1  19
TORSDOF 7
