REMARK  Name = ZINC08762006
REMARK  5 active torsions:
REMARK  status: ('A' for Active; 'I' for Inactive)
REMARK    1  A    between atoms: N_8  and  C_15
REMARK    2  A    between atoms: C_15  and  C_16
REMARK    3  A    between atoms: C_16  and  N_17
REMARK    4  A    between atoms: N_17  and  C_18
REMARK    5  A    between atoms: C_21  and  C_23
REMARK                            x       y       z     vdW  Elec       q    Type
REMARK                         _______ _______ _______ _____ _____    ______ ____
ROOT
ATOM      1  C   UNL     1      -2.572   4.031   0.047  0.00  0.00    +0.144 C 
ENDROOT
BRANCH   1   9
ATOM      2  C   UNL     1      -1.283  -0.741  -1.003  0.00  0.00    +0.004 A 
ATOM      3  C   UNL     1      -0.097  -0.116  -0.678  0.00  0.00    +0.028 A 
ATOM      4  C   UNL     1      -0.092   1.231  -0.331  0.00  0.00    +0.067 A 
ATOM      5  C   UNL     1      -1.291   1.946  -0.313  0.00  0.00    +0.087 A 
ATOM      6  C   UNL     1      -2.481   1.304  -0.642  0.00  0.00    +0.067 A 
ATOM      7  C   UNL     1      -2.473  -0.034  -0.985  0.00  0.00    +0.022 A 
ATOM      8 CL   UNL     1      -3.976   2.186  -0.621  0.00  0.00    -0.081 Cl
ATOM      9  N   UNL     1      -1.306   3.295   0.031  0.00  0.00    -0.300 N 
ATOM     10  C   UNL     1      -0.158   3.922   0.356  0.00  0.00    +0.317 A 
ATOM     11  O   UNL     1      -0.167   5.098   0.662  0.00  0.00    -0.262 OA
ATOM     12  C   UNL     1       1.124   3.160   0.331  0.00  0.00    +0.314 A 
ATOM     13  O   UNL     1       2.169   3.709   0.616  0.00  0.00    -0.262 OA
ATOM     14  N   UNL     1       1.109   1.855  -0.005  0.00  0.00    -0.316 N 
ATOM     15  H   UNL     1       1.937   1.349  -0.021  0.00  0.00    +0.169 HD
ENDBRANCH   1   9
BRANCH   1  16
ATOM     16  C   UNL     1      -2.963   4.404  -1.385  0.00  0.00    +0.124 C 
BRANCH  16  17
ATOM     17  N   UNL     1      -4.229   5.141  -1.370  0.00  0.00    -0.328 N 
ATOM     18  H   UNL     1      -4.678   5.317  -0.528  0.00  0.00    +0.148 HD
BRANCH  17  19
ATOM     19  C   UNL     1      -4.788   5.588  -2.562  0.00  0.00    +0.115 A 
ATOM     20  C   UNL     1      -5.994   6.282  -2.542  0.00  0.00    +0.079 A 
ATOM     21  C   UNL     1      -6.536   6.726  -3.735  0.00  0.00    +0.037 A 
ATOM     22  C   UNL     1      -5.856   6.449  -4.914  0.00  0.00    +0.072 A 
ATOM     23  C   UNL     1      -4.667   5.750  -4.862  0.00  0.00    +0.096 A 
ATOM     24 CL   UNL     1      -6.805   6.593  -1.038  0.00  0.00    -0.080 Cl
ATOM     25  N   UNL     1      -4.102   5.304  -3.707  0.00  0.00    -0.348 N 
ATOM     26  H   UNL     1      -3.216   4.786  -3.698  0.00  0.00    +0.167 HD
BRANCH  22  27
ATOM     27  C   UNL     1      -6.411   6.908  -6.238  0.00  0.00    +0.419 C 
ATOM     28  F   UNL     1      -5.550   6.511  -7.267  0.00  0.00    -0.166 F 
ATOM     29  F   UNL     1      -7.672   6.336  -6.439  0.00  0.00    -0.166 F 
ATOM     30  F   UNL     1      -6.526   8.302  -6.238  0.00  0.00    -0.166 F 
ENDBRANCH  22  27
ENDBRANCH  17  19
ENDBRANCH  16  17
ENDBRANCH   1  16
TORSDOF 5
