REMARK  Name = ZINC03999800
REMARK  6 active torsions:
REMARK  status: ('A' for Active; 'I' for Inactive)
REMARK    1  A    between atoms: C_1  and  C_2
REMARK    2  A    between atoms: C_8  and  C_35
REMARK    3  A    between atoms: C_9  and  O_34
REMARK    4  A    between atoms: C_19  and  C_21
REMARK    5  A    between atoms: C_21  and  N_64
REMARK    6  A    between atoms: N_24  and  C_27
REMARK                            x       y       z     vdW  Elec       q    Type
REMARK                         _______ _______ _______ _____ _____    ______ ____
ROOT
ATOM      1  C   UNL     1       3.390   2.012  -1.768  0.00  0.00    +0.008 C 
ATOM      2  C   UNL     1       2.026   1.382  -1.526  0.00  0.00    -0.001 C 
ATOM      3  C   UNL     1       1.395   2.005  -0.280  0.00  0.00    +0.008 C 
ATOM      4  C   UNL     1      -0.060   1.515  -0.211  0.00  0.00    +0.027 C 
ATOM      5  C   UNL     1      -0.018   0.014  -0.122  0.00  0.00    -0.027 C 
ATOM      6  C   UNL     1       0.937  -0.689  -0.647  0.00  0.00    -0.061 C 
ATOM      7  C   UNL     1       2.095  -0.133  -1.430  0.00  0.00    +0.018 C 
ATOM      8  C   UNL     1       3.401  -0.637  -0.846  0.00  0.00    +0.132 C 
ATOM      9  C   UNL     1       3.422  -2.035  -0.302  0.00  0.00    +0.071 C 
ATOM     10  C   UNL     1       2.148  -2.570   0.359  0.00  0.00    +0.187 C 
ATOM     11  C   UNL     1       0.903  -2.193  -0.459  0.00  0.00    +0.076 C 
ATOM     12  O   UNL     1       2.275  -4.029   0.258  0.00  0.00    -0.460 OA
ATOM     13  C   UNL     1       3.123  -4.376  -0.720  0.00  0.00    +0.309 C 
ATOM     14  O   UNL     1       3.355  -5.511  -1.078  0.00  0.00    -0.251 OA
ATOM     15  C   UNL     1       3.760  -3.132  -1.322  0.00  0.00    +0.090 C 
ATOM     16  C   UNL     1       1.974  -0.656  -2.873  0.00  0.00    +0.018 C 
ENDROOT
BRANCH   8  17
ATOM     17  O   UNL     1       4.424  -0.560  -1.857  0.00  0.00    -0.391 OA
ATOM     18  H   UNL     1       5.314  -0.749  -1.530  0.00  0.00    +0.210 HD
ENDBRANCH   8  17
BRANCH  15  19
ATOM     19  C   UNL     1       5.279  -3.334  -1.422  0.00  0.00    -0.064 C 
BRANCH  19  25
ATOM     20  C   UNL     1       6.919  -4.890  -2.291  0.00  0.00    -0.060 C 
ATOM     21  C   UNL     1       7.156  -5.972  -3.347  0.00  0.00    +0.086 C 
ATOM     22  N   UNL     1       7.002  -5.388  -4.686  0.00  0.00    -0.331 N 
ATOM     23  C   UNL     1       5.657  -4.824  -4.861  0.00  0.00    +0.086 C 
ATOM     24  C   UNL     1       5.419  -3.742  -3.805  0.00  0.00    -0.060 C 
ATOM     25  N   UNL     1       5.555  -4.347  -2.463  0.00  0.00    +0.382 N 
ATOM     26  H   UNL     1       4.877  -5.113  -2.372  0.00  0.00    -0.082 HD
BRANCH  22  27
ATOM     27  C   UNL     1       7.283  -6.332  -5.680  0.00  0.00    +0.065 A 
ATOM     28  C   UNL     1       7.267  -5.960  -7.017  0.00  0.00    +0.026 A 
ATOM     29  C   UNL     1       7.549  -6.893  -7.996  0.00  0.00    +0.002 A 
ATOM     30  C   UNL     1       7.838  -8.200  -7.646  0.00  0.00    +0.003 A 
ATOM     31  C   UNL     1       7.850  -8.576  -6.316  0.00  0.00    +0.040 A 
ATOM     32  C   UNL     1       7.573  -7.646  -5.330  0.00  0.00    +0.144 A 
ATOM     33  F   UNL     1       7.585  -8.014  -4.030  0.00  0.00    -0.204 F 
ENDBRANCH  22  27
ENDBRANCH  19  25
ENDBRANCH  15  19
TORSDOF 4
