REMARK  Name = ZINC00647018
REMARK  5 active torsions:
REMARK  status: ('A' for Active; 'I' for Inactive)
REMARK    1  A    between atoms: C_3  and  C_6
REMARK    2  A    between atoms: C_9  and  C_29
REMARK    3  A    between atoms: C_14  and  C_16
REMARK    4  A    between atoms: N_18  and  C_19
REMARK    5  A    between atoms: C_19  and  C_20
REMARK                            x       y       z     vdW  Elec       q    Type
REMARK                         _______ _______ _______ _____ _____    ______ ____
ROOT
ATOM      1  C   UNL     1       3.761   1.845  -0.024  0.00  0.00    +0.111 C 
ATOM      2  C   UNL     1       4.319   1.782  -1.450  0.00  0.00    +0.063 C 
ATOM      3  C   UNL     1       4.223   0.349  -1.985  0.00  0.00    +0.215 C 
ATOM      4  N   UNL     1       4.794  -0.567  -0.994  0.00  0.00    -0.237 N 
ATOM      5  C   UNL     1       4.965  -0.247   0.324  0.00  0.00    +0.137 A 
ATOM      6  C   UNL     1       5.513  -1.310   0.946  0.00  0.00    +0.112 A 
ATOM      7  C   UNL     1       5.687  -2.327  -0.019  0.00  0.00    +0.167 A 
ATOM      8  N   UNL     1       5.251  -1.871  -1.181  0.00  0.00    -0.163 NA
ATOM      9 CL   UNL     1       5.929  -1.410   2.629  0.00  0.00    -0.078 Cl
ATOM     10  N   UNL     1       4.598   1.001   0.850  0.00  0.00    -0.321 N 
ATOM     11  H   UNL     1       4.878   1.293   1.732  0.00  0.00    +0.148 HD
ENDROOT
BRANCH   1  14
ATOM     12  C   UNL     1      -0.016   1.351   0.009  0.00  0.00    +0.008 A 
ATOM     13  C   UNL     1       1.183   2.038   0.002  0.00  0.00    +0.013 A 
ATOM     14  C   UNL     1       2.343   1.336  -0.013  0.00  0.00    +0.010 A 
ATOM     15  S   UNL     1       1.754  -0.349  -0.017  0.00  0.00    -0.100 S 
ATOM     16  C   UNL     1       0.002  -0.004   0.002  0.00  0.00    +0.045 A 
ENDBRANCH   1  14
BRANCH   7  17
ATOM     17  C   UNL     1       6.257  -3.667   0.227  0.00  0.00    +0.266 C 
ATOM     18  O   UNL     1       6.627  -3.975   1.343  0.00  0.00    -0.268 OA
ATOM     19  N   UNL     1       6.369  -4.549  -0.787  0.00  0.00    -0.306 N 
ATOM     20  H   UNL     1       6.074  -4.303  -1.678  0.00  0.00    +0.149 HD
BRANCH  19  21
ATOM     21  C   UNL     1       6.934  -5.878  -0.543  0.00  0.00    +0.140 C 
BRANCH  21  22
ATOM     22  C   UNL     1       6.947  -6.662  -1.829  0.00  0.00    -0.030 A 
ATOM     23  C   UNL     1       5.856  -7.438  -2.176  0.00  0.00    +0.008 A 
ATOM     24  C   UNL     1       5.866  -8.158  -3.356  0.00  0.00    +0.038 A 
ATOM     25  C   UNL     1       6.969  -8.101  -4.191  0.00  0.00    +0.123 A 
ATOM     26  C   UNL     1       8.061  -7.324  -3.843  0.00  0.00    +0.038 A 
ATOM     27  C   UNL     1       8.046  -6.601  -2.665  0.00  0.00    +0.008 A 
ATOM     28  F   UNL     1       6.980  -8.805  -5.344  0.00  0.00    -0.205 F 
ENDBRANCH  21  22
ENDBRANCH  19  21
ENDBRANCH   7  17
BRANCH   3  29
ATOM     29  C   UNL     1       5.003   0.238  -3.297  0.00  0.00    +0.412 C 
ATOM     30  F   UNL     1       6.346   0.561  -3.070  0.00  0.00    -0.168 F 
ATOM     31  F   UNL     1       4.915  -1.070  -3.784  0.00  0.00    -0.168 F 
ATOM     32  F   UNL     1       4.463   1.123  -4.237  0.00  0.00    -0.168 F 
ENDBRANCH   3  29
TORSDOF 5
