REMARK  Name = ZINC04038561
REMARK  5 active torsions:
REMARK  status: ('A' for Active; 'I' for Inactive)
REMARK    1  A    between atoms: C_1  and  C_2
REMARK    2  A    between atoms: C_7  and  N_8
REMARK    3  A    between atoms: N_8  and  C_9
REMARK    4  A    between atoms: C_10  and  C_18
REMARK    5  A    between atoms: C_21  and  C_23
REMARK                            x       y       z     vdW  Elec       q    Type
REMARK                         _______ _______ _______ _____ _____    ______ ____
ROOT
ATOM      1  C   UNL     1      -3.372   0.094   4.353  0.00  0.00    +0.138 A 
ATOM      2  C   UNL     1      -3.632   1.437   4.128  0.00  0.00    +0.147 A 
ATOM      3  N   UNL     1      -3.320   2.113   5.246  0.00  0.00    -0.221 NA
ATOM      4  C   UNL     1      -2.873   1.267   6.157  0.00  0.00    +0.158 A 
ATOM      5  N   UNL     1      -2.892  -0.004   5.622  0.00  0.00    -0.285 N 
ATOM      6  C   UNL     1      -2.468  -1.058   6.392  0.00  0.00    +0.114 A 
ATOM      7  C   UNL     1      -2.042  -0.836   7.652  0.00  0.00    +0.129 A 
ATOM      8  N   UNL     1      -2.023   0.395   8.172  0.00  0.00    -0.258 NA
ATOM      9  C   UNL     1      -2.417   1.437   7.480  0.00  0.00    +0.157 A 
ENDROOT
BRANCH   2  10
ATOM     10  C   UNL     1      -4.164   2.021   2.881  0.00  0.00    +0.157 A 
ATOM     11  C   UNL     1      -5.018   3.076   2.794  0.00  0.00    +0.052 A 
ATOM     12  C   UNL     1      -5.256   3.294   1.421  0.00  0.00    +0.045 A 
ATOM     13  C   UNL     1      -4.551   2.366   0.746  0.00  0.00    +0.103 A 
ATOM     14  O   UNL     1      -3.889   1.600   1.631  0.00  0.00    -0.458 OA
ATOM     15  C   UNL     1      -4.506   2.216  -0.753  0.00  0.00    +0.086 C 
ENDBRANCH   2  10
BRANCH   1  16
ATOM     16  N   UNL     1      -3.562  -0.951   3.454  0.00  0.00    -0.298 N 
ATOM     17  H   UNL     1      -2.886  -1.145   2.785  0.00  0.00    +0.154 HD
BRANCH  16  24
ATOM     18  C   UNL     1      -3.983  -2.905   1.429  0.00  0.00    +0.045 C 
ATOM     19  C   UNL     1      -4.971  -2.687   2.545  0.00  0.00    -0.029 A 
ATOM     20  C   UNL     1      -6.121  -3.450   2.610  0.00  0.00    +0.005 A 
ATOM     21  C   UNL     1      -7.031  -3.246   3.631  0.00  0.00    +0.000 A 
ATOM     22  C   UNL     1      -6.792  -2.282   4.593  0.00  0.00    +0.002 A 
ATOM     23  C   UNL     1      -5.642  -1.520   4.538  0.00  0.00    +0.023 A 
ATOM     24  C   UNL     1      -4.725  -1.721   3.513  0.00  0.00    +0.035 A 
ENDBRANCH  16  24
ENDBRANCH   1  16
TORSDOF 3
