REMARK  Name = ZINC36206572
REMARK  11 active torsions:
REMARK  status: ('A' for Active; 'I' for Inactive)
REMARK    1  A    between atoms: C_1  and  O_2
REMARK    2  A    between atoms: O_2  and  C_3
REMARK    3  A    between atoms: C_8  and  C_9
REMARK    4  A    between atoms: C_18  and  C_20
REMARK    5  A    between atoms: C_20  and  N_21
REMARK    6  A    between atoms: N_21  and  C_22
REMARK    7  A    between atoms: N_21  and  C_33
REMARK    8  A    between atoms: C_22  and  C_23
REMARK    9  A    between atoms: C_23  and  C_25
REMARK   10  A    between atoms: C_23  and  O_32
REMARK   11  A    between atoms: C_25  and  C_26
REMARK                            x       y       z     vdW  Elec       q    Type
REMARK                         _______ _______ _______ _____ _____    ______ ____
ROOT
ATOM      1  C   UNL     1       3.833  -3.152   3.978  0.00  0.00    -0.003 C 
ENDROOT
BRANCH   1  11
ATOM      2  C   UNL     1      -0.110  -4.059  -0.036  0.00  0.00    +0.007 A 
ATOM      3  C   UNL     1       0.247  -5.038  -0.902  0.00  0.00    +0.056 A 
ATOM      4  S   UNL     1       1.841  -5.561  -0.299  0.00  0.00    -0.076 S 
ATOM      5  C   UNL     1       1.989  -4.465   1.088  0.00  0.00    +0.116 A 
ATOM      6  C   UNL     1       0.802  -3.714   1.048  0.00  0.00    +0.080 A 
ATOM      7  C   UNL     1       0.658  -2.728   2.074  0.00  0.00    +0.260 A 
ATOM      8  O   UNL     1      -0.340  -2.030   2.126  0.00  0.00    -0.267 OA
ATOM      9  N   UNL     1       1.641  -2.582   2.982  0.00  0.00    -0.312 N 
ATOM     10  H   UNL     1       1.548  -1.915   3.680  0.00  0.00    +0.170 HD
ATOM     11  C   UNL     1       2.759  -3.351   2.941  0.00  0.00    +0.094 A 
ATOM     12  N   UNL     1       2.915  -4.266   2.022  0.00  0.00    -0.229 NA
BRANCH   2  18
ATOM     13  C   UNL     1      -1.420  -1.984  -0.498  0.00  0.00    +0.128 A 
ATOM     14  C   UNL     1      -2.632  -1.329  -0.646  0.00  0.00    +0.046 A 
ATOM     15  C   UNL     1      -3.818  -2.021  -0.484  0.00  0.00    +0.004 A 
ATOM     16  C   UNL     1      -3.803  -3.369  -0.174  0.00  0.00    +0.001 A 
ATOM     17  C   UNL     1      -2.603  -4.035  -0.023  0.00  0.00    +0.012 A 
ATOM     18  C   UNL     1      -1.402  -3.348  -0.190  0.00  0.00    +0.025 A 
BRANCH  13  20
ATOM     19  C   UNL     1      -0.351   0.085  -0.972  0.00  0.00    +0.277 C 
ATOM     20  O   UNL     1      -0.254  -1.305  -0.658  0.00  0.00    -0.495 OA
ENDBRANCH  13  20
ENDBRANCH   2  18
ENDBRANCH   1  11
BRANCH   1  21
ATOM     21  N   UNL     1       5.003  -3.973   3.636  0.00  0.00    +0.388 N 
ATOM     22  H   UNL     1       4.695  -4.848   3.240  0.00  0.00    -0.081 HD
BRANCH  21  23
ATOM     23  C   UNL     1       5.834  -3.258   2.658  0.00  0.00    -0.068 C 
ATOM     24  C   UNL     1       6.317  -1.940   3.267  0.00  0.00    -0.015 C 
ATOM     25  C   UNL     1       7.183  -1.196   2.248  0.00  0.00    -0.002 C 
ATOM     26  C   UNL     1       6.357  -0.905   0.993  0.00  0.00    -0.000 C 
ATOM     27  C   UNL     1       5.874  -2.223   0.384  0.00  0.00    -0.002 C 
ATOM     28  C   UNL     1       5.008  -2.968   1.403  0.00  0.00    -0.015 C 
ENDBRANCH  21  23
BRANCH  21  29
ATOM     29  C   UNL     1       5.789  -4.234   4.849  0.00  0.00    -0.046 C 
BRANCH  29  30
ATOM     30  C   UNL     1       6.924  -5.207   4.521  0.00  0.00    +0.102 C 
BRANCH  30  31
ATOM     31  O   UNL     1       6.374  -6.435   4.038  0.00  0.00    -0.393 OA
ATOM     32  H   UNL     1       5.790  -6.879   4.668  0.00  0.00    +0.210 HD
ENDBRANCH  30  31
BRANCH  30  33
ATOM     33  C   UNL     1       7.744  -5.478   5.784  0.00  0.00    +0.064 C 
BRANCH  33  34
ATOM     34  C   UNL     1       8.932  -6.338   5.436  0.00  0.00    -0.045 A 
ATOM     35  C   UNL     1       8.825  -7.715   5.483  0.00  0.00    +0.004 A 
ATOM     36  C   UNL     1       9.915  -8.504   5.164  0.00  0.00    +0.000 A 
ATOM     37  C   UNL     1      11.111  -7.915   4.798  0.00  0.00    +0.000 A 
ATOM     38  C   UNL     1      11.217  -6.538   4.751  0.00  0.00    +0.000 A 
ATOM     39  C   UNL     1      10.126  -5.749   5.066  0.00  0.00    +0.004 A 
ENDBRANCH  33  34
ENDBRANCH  30  33
ENDBRANCH  29  30
ENDBRANCH  21  29
ENDBRANCH   1  21
TORSDOF 10
