REMARK  Name = ZINC38634532
REMARK  15 active torsions:
REMARK  status: ('A' for Active; 'I' for Inactive)
REMARK    1  A    between atoms: C_1  and  C_2
REMARK    2  A    between atoms: C_2  and  C_3
REMARK    3  A    between atoms: C_2  and  C_4
REMARK    4  A    between atoms: C_4  and  C_5
REMARK    5  A    between atoms: C_5  and  C_6
REMARK    6  A    between atoms: C_5  and  C_15
REMARK    7  A    between atoms: C_5  and  C_17
REMARK    8  A    between atoms: C_6  and  C_7
REMARK    9  A    between atoms: C_7  and  N_8
REMARK   10  A    between atoms: N_8  and  C_9
REMARK   11  A    between atoms: N_8  and  C_12
REMARK   12  A    between atoms: C_9  and  C_10
REMARK   13  A    between atoms: C_9  and  C_11
REMARK   14  A    between atoms: C_12  and  C_13
REMARK   15  A    between atoms: C_12  and  C_14
REMARK                            x       y       z     vdW  Elec       q    Type
REMARK                         _______ _______ _______ _____ _____    ______ ____
ROOT
ATOM      1  C   UNL     1      -0.833   0.221  -1.409  0.00  0.00    +0.098 C 
ENDROOT
BRANCH   1   2
ATOM      2  C   UNL     1       0.367   0.237  -2.320  0.00  0.00    +0.061 A 
ATOM      3  C   UNL     1       1.290  -0.790  -2.252  0.00  0.00    +0.025 A 
ATOM      4  C   UNL     1       2.391  -0.765  -3.095  0.00  0.00    +0.003 A 
ATOM      5  C   UNL     1       2.523   0.296  -3.977  0.00  0.00    +0.020 A 
ATOM      6  C   UNL     1       1.560   1.287  -3.988  0.00  0.00    +0.111 A 
ATOM      7  N   UNL     1       0.523   1.228  -3.175  0.00  0.00    -0.258 NA
ENDBRANCH   1   2
BRANCH   1   8
ATOM      8  C   UNL     1      -1.800  -0.780  -1.889  0.00  0.00    +0.075 C 
ATOM      9  N   UNL     1      -2.546  -1.552  -2.259  0.00  0.00    -0.196 NA
ENDBRANCH   1   8
BRANCH   1  10
ATOM     10  C   UNL     1      -0.391  -0.137   0.011  0.00  0.00    +0.031 C 
BRANCH  10  12
ATOM     11  C   UNL     1       0.814   0.696   2.036  0.00  0.00    +0.007 C 
ATOM     12  C   UNL     1       0.495   0.980   0.567  0.00  0.00    -0.015 C 
ATOM     13  C   UNL     1       1.797   1.045  -0.234  0.00  0.00    +0.007 C 
ENDBRANCH  10  12
ENDBRANCH   1  10
BRANCH   1  14
ATOM     14  C   UNL     1      -1.489   1.603  -1.405  0.00  0.00    +0.009 C 
BRANCH  14  15
ATOM     15  C   UNL     1      -2.639   1.620  -0.396  0.00  0.00    -0.076 C 
BRANCH  15  16
ATOM     16  N   UNL     1      -3.324   2.917  -0.455  0.00  0.00    +0.383 N 
ATOM     17  H   UNL     1      -2.651   3.659  -0.333  0.00  0.00    -0.081 HD
BRANCH  16  18
ATOM     18  C   UNL     1      -3.983   3.064  -1.760  0.00  0.00    -0.075 C 
ATOM     19  C   UNL     1      -5.327   2.334  -1.737  0.00  0.00    -0.014 C 
ATOM     20  C   UNL     1      -4.214   4.549  -2.050  0.00  0.00    -0.014 C 
ENDBRANCH  16  18
BRANCH  16  21
ATOM     21  C   UNL     1      -4.331   2.989   0.613  0.00  0.00    -0.075 C 
ATOM     22  C   UNL     1      -3.660   2.734   1.964  0.00  0.00    -0.014 C 
ATOM     23  C   UNL     1      -4.973   4.378   0.616  0.00  0.00    -0.014 C 
ENDBRANCH  16  21
ENDBRANCH  15  16
ENDBRANCH  14  15
ENDBRANCH   1  14
TORSDOF 9
