REMARK  Name = ZINC67589055
REMARK  5 active torsions:
REMARK  status: ('A' for Active; 'I' for Inactive)
REMARK    1  A    between atoms: C_1  and  C_2
REMARK    2  A    between atoms: C_2  and  N_3
REMARK    3  A    between atoms: C_4  and  C_6
REMARK    4  A    between atoms: C_9  and  N_24
REMARK    5  A    between atoms: C_13  and  C_15
REMARK                            x       y       z     vdW  Elec       q    Type
REMARK                         _______ _______ _______ _____ _____    ______ ____
ROOT
ATOM      1  C   UNL     1       1.532  -2.285  -2.665  0.00  0.00    +0.161 C 
ATOM      2  C   UNL     1       0.569  -2.236  -3.870  0.00  0.00    +0.017 C 
ATOM      3  C   UNL     1       0.047  -3.694  -3.956  0.00  0.00    -0.055 C 
ATOM      4  C   UNL     1       1.303  -4.500  -3.540  0.00  0.00    +0.093 C 
ATOM      5  N   UNL     1       1.946  -3.684  -2.489  0.00  0.00    -0.286 N 
ATOM      6  C   UNL     1       2.772  -4.145  -1.529  0.00  0.00    +0.269 C 
ATOM      7  O   UNL     1       3.244  -3.377  -0.714  0.00  0.00    -0.268 OA
ENDROOT
BRANCH   6   8
ATOM      8  C   UNL     1       3.106  -5.588  -1.468  0.00  0.00    +0.171 A 
ATOM      9  C   UNL     1       3.948  -6.208  -0.520  0.00  0.00    +0.027 A 
ATOM     10  C   UNL     1       3.998  -7.527  -0.803  0.00  0.00    +0.141 A 
ATOM     11  O   UNL     1       3.231  -7.756  -1.873  0.00  0.00    -0.359 OA
ATOM     12  N   UNL     1       2.668  -6.521  -2.282  0.00  0.00    -0.073 NA
ATOM     13  C   UNL     1       4.801  -8.532  -0.013  0.00  0.00    +0.077 C 
ATOM     14  C   UNL     1       5.824  -7.772   0.839  0.00  0.00    +0.008 C 
ATOM     15  C   UNL     1       5.118  -6.651   1.606  0.00  0.00    +0.005 C 
ATOM     16  C   UNL     1       4.683  -5.556   0.624  0.00  0.00    +0.041 C 
ENDBRANCH   6   8
BRANCH   1  18
ATOM     17  N   UNL     1       0.688  -0.476  -1.203  0.00  0.00    -0.314 N 
ATOM     18  C   UNL     1       0.827  -1.799  -1.425  0.00  0.00    +0.234 C 
ATOM     19  O   UNL     1       0.384  -2.597  -0.627  0.00  0.00    -0.274 OA
ATOM     20  H   UNL     1       1.042   0.162  -1.842  0.00  0.00    +0.149 HD
BRANCH  17  22
ATOM     21  C   UNL     1      -0.019   1.526   0.010  0.00  0.00    +0.024 C 
ATOM     22  C   UNL     1       0.002  -0.004   0.002  0.00  0.00    +0.101 C 
ENDBRANCH  17  22
ENDBRANCH   1  18
BRANCH   3  23
ATOM     23  N   UNL     1      -0.362  -4.027  -5.328  0.00  0.00    +0.381 N 
ATOM     24  H   UNL     1       0.428  -3.929  -5.947  0.00  0.00    -0.090 HD
ATOM     25  H   UNL     1      -0.697  -4.978  -5.357  0.00  0.00    -0.090 HD
ATOM     26  H   UNL     1      -1.098  -3.401  -5.620  0.00  0.00    -0.090 HD
ENDBRANCH   3  23
TORSDOF 4
