REMARK  Name = ZINC24578354
REMARK  4 active torsions:
REMARK  status: ('A' for Active; 'I' for Inactive)
REMARK    1  A    between atoms: C_1  and  C_2
REMARK    2  A    between atoms: C_5  and  N_8
REMARK    3  A    between atoms: C_10  and  C_15
REMARK    4  A    between atoms: N_17  and  N_18
REMARK                            x       y       z     vdW  Elec       q    Type
REMARK                         _______ _______ _______ _____ _____    ______ ____
ROOT
ATOM      1  C   UNL     1      -0.344  -7.474  -1.515  0.00  0.00    +0.235 C 
ATOM      2  O   UNL     1      -1.159  -7.176  -2.363  0.00  0.00    -0.274 OA
ATOM      3  N   UNL     1      -0.147  -8.768  -1.195  0.00  0.00    -0.223 N 
ATOM      4  H   UNL     1       0.593  -9.038  -0.427  0.00  0.00    +0.174 HD
ENDROOT
BRANCH   3   5
ATOM      5  N   UNL     1      -0.883  -9.770  -1.841  0.00  0.00    -0.137 N 
ATOM      6  C   UNL     1      -1.904 -10.445  -1.275  0.00  0.00    +0.263 C 
ATOM      7  O   UNL     1      -2.342 -10.307  -0.153  0.00  0.00    -0.271 OA
ATOM      8  C   UNL     1      -2.388 -11.408  -2.334  0.00  0.00    +0.114 C 
ATOM      9  C   UNL     1      -2.234 -12.846  -1.850  0.00  0.00    +0.035 C 
ATOM     10  C   UNL     1      -2.693 -13.808  -2.950  0.00  0.00    +0.003 C 
ATOM     11  C   UNL     1      -4.155 -13.522  -3.297  0.00  0.00    +0.000 C 
ATOM     12  C   UNL     1      -4.291 -12.084  -3.801  0.00  0.00    +0.003 C 
ATOM     13  C   UNL     1      -3.838 -11.116  -2.704  0.00  0.00    +0.035 C 
ATOM     14  N   UNL     1      -1.504 -11.153  -3.479  0.00  0.00    -0.284 N 
ATOM     15  C   UNL     1      -0.657 -10.179  -3.096  0.00  0.00    +0.326 C 
ATOM     16  O   UNL     1       0.215  -9.722  -3.809  0.00  0.00    -0.251 OA
ATOM     17  H   UNL     1      -1.628 -11.728  -4.409  0.00  0.00    +0.151 HD
ENDBRANCH   3   5
BRANCH   1  20
ATOM     18  N   UNL     1       0.057  -4.170  -0.021  0.00  0.00    -0.271 N 
ATOM     19  C   UNL     1      -0.055  -4.993  -1.231  0.00  0.00    +0.127 C 
ATOM     20  C   UNL     1       0.448  -6.396  -0.820  0.00  0.00    +0.103 C 
ATOM     21  C   UNL     1       0.167  -6.397   0.700  0.00  0.00    +0.110 C 
ATOM     22  C   UNL     1       0.174  -4.933   1.079  0.00  0.00    +0.221 C 
ATOM     23  O   UNL     1       0.271  -4.509   2.212  0.00  0.00    -0.275 OA
BRANCH  18  28
ATOM     24  C   UNL     1      -0.018   1.503   0.010  0.00  0.00    +0.044 C 
ATOM     25  C   UNL     1       0.002  -0.004   0.002  0.00  0.00    -0.050 A 
ATOM     26  C   UNL     1       0.010  -0.687  -1.200  0.00  0.00    +0.005 A 
ATOM     27  C   UNL     1       0.033  -2.068  -1.211  0.00  0.00    +0.024 A 
ATOM     28  C   UNL     1       0.038  -2.771  -0.013  0.00  0.00    +0.036 A 
ATOM     29  C   UNL     1       0.025  -2.082   1.192  0.00  0.00    +0.024 A 
ATOM     30  C   UNL     1       0.007  -0.701   1.197  0.00  0.00    +0.005 A 
ENDBRANCH  18  28
ENDBRANCH   1  20
TORSDOF 3
