REMARK  Name = ZINC10520859
REMARK  5 active torsions:
REMARK  status: ('A' for Active; 'I' for Inactive)
REMARK    1  A    between atoms: C_1  and  C_2
REMARK    2  A    between atoms: C_4  and  C_8
REMARK    3  A    between atoms: C_5  and  C_7
REMARK    4  A    between atoms: C_14  and  C_16
REMARK    5  A    between atoms: C_16  and  N_17
REMARK                            x       y       z     vdW  Elec       q    Type
REMARK                         _______ _______ _______ _____ _____    ______ ____
ROOT
ATOM      1  C   UNL     1       2.683   5.426   0.006  0.00  0.00    +0.214 C 
ENDROOT
BRANCH   1   2
ATOM      2  N   UNL     1       4.112   5.748  -0.006  0.00  0.00    -0.215 N 
ATOM      3  C   UNL     1       4.861   5.913   1.103  0.00  0.00    +0.251 C 
ATOM      4  O   UNL     1       4.494   5.828   2.256  0.00  0.00    -0.272 OA
ATOM      5  C   UNL     1       6.256   6.225   0.608  0.00  0.00    +0.138 C 
ATOM      6  C   UNL     1       6.684   7.606   1.086  0.00  0.00    +0.040 C 
ATOM      7  C   UNL     1       8.162   7.809   0.728  0.00  0.00    +0.008 C 
ATOM      8  C   UNL     1       9.002   6.875   1.596  0.00  0.00    +0.035 C 
ATOM      9  C   UNL     1       8.488   5.461   1.506  0.00  0.00    -0.042 A 
ATOM     10  C   UNL     1       7.220   5.163   1.057  0.00  0.00    -0.012 A 
ATOM     11  C   UNL     1       6.801   3.840   1.010  0.00  0.00    +0.006 A 
ATOM     12  C   UNL     1       7.646   2.823   1.404  0.00  0.00    +0.000 A 
ATOM     13  C   UNL     1       8.919   3.122   1.852  0.00  0.00    +0.000 A 
ATOM     14  C   UNL     1       9.337   4.436   1.902  0.00  0.00    +0.004 A 
ATOM     15  N   UNL     1       6.124   6.208  -0.856  0.00  0.00    -0.281 N 
ATOM     16  C   UNL     1       4.835   5.919  -1.119  0.00  0.00    +0.310 C 
ATOM     17  O   UNL     1       4.380   5.825  -2.242  0.00  0.00    -0.252 OA
ATOM     18  H   UNL     1       6.826   6.372  -1.504  0.00  0.00    +0.152 HD
ENDBRANCH   1   2
BRANCH   1  25
ATOM     19  C   UNL     1       0.002  -0.004   0.002  0.00  0.00    +0.081 A 
ATOM     20  C   UNL     1       1.217  -0.629  -0.013  0.00  0.00    +0.077 A 
ATOM     21  S   UNL     1       2.316   0.779  -0.016  0.00  0.00    -0.060 S 
ATOM     22  C   UNL     1       1.101   2.019   0.002  0.00  0.00    +0.165 A 
ATOM     23  N   UNL     1      -0.016   1.321   0.009  0.00  0.00    -0.225 NA
ATOM     24  N   UNL     1       1.266   3.399   0.008  0.00  0.00    -0.263 N 
ATOM     25  C   UNL     1       2.505   3.930  -0.001  0.00  0.00    +0.237 C 
ATOM     26  O   UNL     1       3.476   3.203  -0.014  0.00  0.00    -0.274 OA
ATOM     27  H   UNL     1       0.489   3.980   0.019  0.00  0.00    +0.157 HD
BRANCH  19  31
ATOM     28  C   UNL     1      -2.638  -4.343   0.004  0.00  0.00    +0.051 C 
ATOM     29  C   UNL     1      -2.406  -2.854   0.010  0.00  0.00    -0.012 A 
ATOM     30  C   UNL     1      -1.235  -2.177  -0.003  0.00  0.00    +0.021 A 
ATOM     31  C   UNL     1      -1.260  -0.786   0.010  0.00  0.00    +0.011 A 
ATOM     32  C   UNL     1      -2.472  -0.155   0.025  0.00  0.00    -0.004 A 
ATOM     33  S   UNL     1      -3.606  -1.533   0.029  0.00  0.00    -0.098 S 
ATOM     34  C   UNL     1      -2.773   1.321   0.036  0.00  0.00    +0.052 C 
ENDBRANCH  19  31
ENDBRANCH   1  25
TORSDOF 3
