REMARK  Name = ZINC04954750
REMARK  8 active torsions:
REMARK  status: ('A' for Active; 'I' for Inactive)
REMARK    1  A    between atoms: C_1  and  C_2
REMARK    2  A    between atoms: C_2  and  C_21
REMARK    3  A    between atoms: N_5  and  C_9
REMARK    4  A    between atoms: C_9  and  C_10
REMARK    5  A    between atoms: N_12  and  C_13
REMARK    6  A    between atoms: C_13  and  C_19
REMARK    7  A    between atoms: C_24  and  O_27
REMARK    8  A    between atoms: O_27  and  C_28
REMARK                            x       y       z     vdW  Elec       q    Type
REMARK                         _______ _______ _______ _____ _____    ______ ____
ROOT
ATOM      1  C   UNL     1      -2.393   7.644   1.187  0.00  0.00    +0.047 C 
ATOM      2  C   UNL     1      -1.120   7.122   1.857  0.00  0.00    +0.135 C 
ATOM      3  C   UNL     1       0.104   7.823   1.304  0.00  0.00    +0.251 C 
ATOM      4  O   UNL     1       0.498   7.816   0.158  0.00  0.00    -0.272 OA
ATOM      5  N   UNL     1       0.666   8.456   2.353  0.00  0.00    -0.215 N 
ATOM      6  C   UNL     1      -0.027   8.254   3.480  0.00  0.00    +0.310 C 
ATOM      7  O   UNL     1       0.284   8.723   4.558  0.00  0.00    -0.252 OA
ATOM      8  N   UNL     1      -1.105   7.474   3.287  0.00  0.00    -0.281 N 
ATOM      9  H   UNL     1      -1.748   7.196   3.959  0.00  0.00    +0.152 HD
ENDROOT
BRANCH   2  10
ATOM     10  C   UNL     1      -1.003   5.630   1.677  0.00  0.00    -0.015 A 
ATOM     11  C   UNL     1      -1.531   4.776   2.628  0.00  0.00    +0.010 A 
ATOM     12  C   UNL     1      -1.425   3.409   2.465  0.00  0.00    +0.046 A 
ATOM     13  C   UNL     1      -0.787   2.892   1.346  0.00  0.00    +0.127 A 
ATOM     14  C   UNL     1      -0.253   3.751   0.396  0.00  0.00    +0.046 A 
ATOM     15  C   UNL     1      -0.367   5.117   0.561  0.00  0.00    +0.010 A 
BRANCH  13  16
ATOM     16  O   UNL     1      -0.682   1.547   1.184  0.00  0.00    -0.434 OA
BRANCH  16  17
ATOM     17  C   UNL     1      -0.013   1.086   0.008  0.00  0.00    +0.541 C 
ATOM     18  F   UNL     1       1.300   1.570  -0.002  0.00  0.00    -0.166 F 
ATOM     19  F   UNL     1      -0.689   1.549  -1.125  0.00  0.00    -0.166 F 
ENDBRANCH  16  17
ENDBRANCH  13  16
ENDBRANCH   2  10
BRANCH   5  20
ATOM     20  C   UNL     1       1.883   9.267   2.270  0.00  0.00    +0.213 C 
BRANCH  20  21
ATOM     21  C   UNL     1       3.086   8.393   2.517  0.00  0.00    +0.232 C 
ATOM     22  O   UNL     1       2.941   7.210   2.740  0.00  0.00    -0.274 OA
ATOM     23  N   UNL     1       4.324   8.926   2.489  0.00  0.00    -0.296 N 
ATOM     24  H   UNL     1       4.440   9.872   2.311  0.00  0.00    +0.150 HD
BRANCH  23  25
ATOM     25  C   UNL     1       5.493   8.076   2.729  0.00  0.00    +0.121 C 
ATOM     26  C   UNL     1       5.391   7.450   4.122  0.00  0.00    +0.041 C 
ATOM     27  C   UNL     1       6.612   6.563   4.372  0.00  0.00    +0.003 C 
ATOM     28  C   UNL     1       7.884   7.409   4.285  0.00  0.00    +0.000 C 
ATOM     29  C   UNL     1       7.986   8.036   2.893  0.00  0.00    +0.003 C 
ATOM     30  C   UNL     1       6.764   8.923   2.642  0.00  0.00    +0.041 C 
BRANCH  25  31
ATOM     31  C   UNL     1       5.542   7.011   1.714  0.00  0.00    +0.088 C 
ATOM     32  N   UNL     1       5.580   6.189   0.931  0.00  0.00    -0.194 NA
ENDBRANCH  25  31
ENDBRANCH  23  25
ENDBRANCH  20  21
ENDBRANCH   5  20
TORSDOF 7
