REMARK  Name = ZINC60157150
REMARK  12 active torsions:
REMARK  status: ('A' for Active; 'I' for Inactive)
REMARK    1  A    between atoms: C_1  and  C_2
REMARK    2  A    between atoms: C_2  and  N_3
REMARK    3  A    between atoms: N_3  and  C_4
REMARK    4  A    between atoms: N_3  and  C_6
REMARK    5  A    between atoms: C_4  and  C_5
REMARK    6  A    between atoms: C_6  and  C_8
REMARK    7  A    between atoms: C_6  and  C_27
REMARK    8  A    between atoms: C_8  and  N_9
REMARK    9  A    between atoms: C_10  and  C_12
REMARK   10  A    between atoms: C_12  and  C_13
REMARK   11  A    between atoms: C_16  and  S_18
REMARK   12  A    between atoms: S_18  and  N_21
REMARK                            x       y       z     vdW  Elec       q    Type
REMARK                         _______ _______ _______ _____ _____    ______ ____
ROOT
ATOM      1  N   UNL     1       1.444  -1.582  -1.122  0.00  0.00    -0.316 N 
ATOM      2  C   UNL     1       2.068  -1.759  -2.304  0.00  0.00    +0.218 C 
ATOM      3  O   UNL     1       3.082  -2.421  -2.361  0.00  0.00    -0.275 OA
ATOM      4  H   UNL     1       0.633  -1.052  -1.076  0.00  0.00    +0.149 HD
ENDROOT
BRANCH   1   5
ATOM      5  C   UNL     1       1.992  -2.189   0.093  0.00  0.00    +0.096 C 
BRANCH   5   6
ATOM      6  C   UNL     1       1.202  -1.700   1.309  0.00  0.00    +0.016 C 
BRANCH   6   7
ATOM      7  C   UNL     1       1.482  -2.599   2.485  0.00  0.00    +0.093 A 
ATOM      8  C   UNL     1       0.688  -3.592   2.924  0.00  0.00    +0.043 A 
ATOM      9  C   UNL     1       1.333  -4.169   4.042  0.00  0.00    +0.041 A 
ATOM     10  C   UNL     1       2.483  -3.493   4.220  0.00  0.00    +0.195 A 
ATOM     11  O   UNL     1       2.571  -2.547   3.271  0.00  0.00    -0.469 OA
ENDBRANCH   6   7
BRANCH   6  12
ATOM     12  N   UNL     1       1.606  -0.326   1.635  0.00  0.00    +0.387 N 
ATOM     13  H   UNL     1       2.561  -0.325   1.962  0.00  0.00    -0.081 HD
BRANCH  12  15
ATOM     14  C   UNL     1       1.977   1.931   0.758  0.00  0.00    -0.017 C 
ATOM     15  C   UNL     1       1.500   0.514   0.434  0.00  0.00    -0.081 C 
ENDBRANCH  12  15
BRANCH  12  16
ATOM     16  C   UNL     1       0.728   0.207   2.684  0.00  0.00    -0.081 C 
ATOM     17  C   UNL     1       0.978  -0.547   3.991  0.00  0.00    -0.017 C 
ENDBRANCH  12  16
ENDBRANCH   6  12
ENDBRANCH   5   6
ENDBRANCH   1   5
BRANCH   2  18
ATOM     18  C   UNL     1       1.505  -1.133  -3.554  0.00  0.00    +0.138 C 
BRANCH  18  19
ATOM     19  C   UNL     1       2.383  -1.481  -4.729  0.00  0.00    +0.000 A 
ATOM     20  C   UNL     1       2.302  -2.540  -5.571  0.00  0.00    +0.013 A 
ATOM     21  C   UNL     1       3.226  -2.656  -6.592  0.00  0.00    +0.036 A 
ATOM     22  C   UNL     1       4.186  -1.708  -6.721  0.00  0.00    +0.143 A 
ATOM     23  S   UNL     1       3.794  -0.601  -5.377  0.00  0.00    -0.073 S 
BRANCH  22  24
ATOM     24  S   UNL     1       5.482  -1.595  -7.910  0.00  0.00    +0.067 S 
ATOM     25  O   UNL     1       6.504  -0.802  -7.322  0.00  0.00    -0.152 OA
ATOM     26  O   UNL     1       5.717  -2.914  -8.381  0.00  0.00    -0.152 OA
BRANCH  24  27
ATOM     27  N   UNL     1       4.893  -0.732  -9.194  0.00  0.00    -0.176 NA
ATOM     28  C   UNL     1       4.221  -1.413 -10.310  0.00  0.00    +0.109 C 
ATOM     29  C   UNL     1       2.848  -0.770 -10.526  0.00  0.00    +0.017 C 
ATOM     30  C   UNL     1       3.021   0.738 -10.724  0.00  0.00    +0.003 C 
ATOM     31  C   UNL     1       3.649   1.350  -9.469  0.00  0.00    +0.017 C 
ATOM     32  C   UNL     1       5.026   0.731  -9.238  0.00  0.00    +0.109 C 
ENDBRANCH  24  27
ENDBRANCH  22  24
ENDBRANCH  18  19
ENDBRANCH   2  18
TORSDOF 10
