REMARK  Name = ZINC56543459
REMARK  7 active torsions:
REMARK  status: ('A' for Active; 'I' for Inactive)
REMARK    1  A    between atoms: C_1  and  C_2
REMARK    2  A    between atoms: C_2  and  C_3
REMARK    3  A    between atoms: C_3  and  N_4
REMARK    4  A    between atoms: C_5  and  C_7
REMARK    5  A    between atoms: C_7  and  C_8
REMARK    6  A    between atoms: C_8  and  N_9
REMARK    7  A    between atoms: N_12  and  C_13
REMARK                            x       y       z     vdW  Elec       q    Type
REMARK                         _______ _______ _______ _____ _____    ______ ____
ROOT
ATOM      1  N   UNL     1       2.089  -6.088  -3.554  0.00  0.00    -0.299 N 
ATOM      2  C   UNL     1       2.664  -6.748  -4.578  0.00  0.00    +0.304 C 
ATOM      3  O   UNL     1       3.169  -6.129  -5.495  0.00  0.00    -0.253 OA
ATOM      4  N   UNL     1       2.679  -8.096  -4.587  0.00  0.00    -0.269 N 
ATOM      5  H   UNL     1       1.686  -6.582  -2.823  0.00  0.00    +0.150 HD
ATOM      6  H   UNL     1       2.335  -8.590  -3.826  0.00  0.00    +0.156 HD
ENDROOT
BRANCH   4   7
ATOM      7  C   UNL     1       3.190  -8.783  -5.694  0.00  0.00    +0.038 A 
ATOM      8  C   UNL     1       4.262  -8.255  -6.397  0.00  0.00    +0.023 A 
ATOM      9  C   UNL     1       4.764  -8.934  -7.490  0.00  0.00    +0.002 A 
ATOM     10  C   UNL     1       4.194 -10.131  -7.877  0.00  0.00    +0.004 A 
ATOM     11  C   UNL     1       3.119 -10.663  -7.176  0.00  0.00    -0.042 A 
ATOM     12  C   UNL     1       2.621  -9.997  -6.080  0.00  0.00    -0.023 A 
ATOM     13  C   UNL     1       1.473 -10.525  -5.261  0.00  0.00    +0.037 C 
ATOM     14  C   UNL     1       0.706 -11.593  -6.038  0.00  0.00    +0.005 C 
ATOM     15  C   UNL     1       1.710 -12.628  -6.559  0.00  0.00    +0.005 C 
ATOM     16  C   UNL     1       2.544 -11.969  -7.661  0.00  0.00    +0.035 C 
ENDBRANCH   4   7
BRANCH   1  17
ATOM     17  C   UNL     1       2.073  -4.623  -3.544  0.00  0.00    +0.115 C 
BRANCH  17  18
ATOM     18  C   UNL     1       1.366  -4.129  -2.280  0.00  0.00    +0.114 C 
BRANCH  18  20
ATOM     19  N   UNL     1       0.775  -1.961  -1.246  0.00  0.00    -0.315 N 
ATOM     20  C   UNL     1       1.350  -2.622  -2.270  0.00  0.00    +0.215 C 
ATOM     21  O   UNL     1       1.854  -2.004  -3.184  0.00  0.00    -0.276 OA
ATOM     22  H   UNL     1       0.372  -2.455  -0.515  0.00  0.00    +0.149 HD
BRANCH  19  23
ATOM     23  C   UNL     1       0.759  -0.496  -1.236  0.00  0.00    +0.104 C 
BRANCH  23  25
ATOM     24  C   UNL     1       0.035   1.528   0.038  0.00  0.00    +0.005 C 
ATOM     25  C   UNL     1       0.052  -0.002   0.028  0.00  0.00    +0.015 C 
ENDBRANCH  23  25
ENDBRANCH  19  23
ENDBRANCH  18  20
ENDBRANCH  17  18
ENDBRANCH   1  17
TORSDOF 6
