REMARK  Name = ZINC35778400
REMARK  15 active torsions:
REMARK  status: ('A' for Active; 'I' for Inactive)
REMARK    1  A    between atoms: C_1  and  C_2
REMARK    2  A    between atoms: C_2  and  C_3
REMARK    3  A    between atoms: C_2  and  C_4
REMARK    4  A    between atoms: C_5  and  C_23
REMARK    5  A    between atoms: C_6  and  O_15
REMARK    6  A    between atoms: N_7  and  C_9
REMARK    7  A    between atoms: O_15  and  C_16
REMARK    8  A    between atoms: C_23  and  N_24
REMARK    9  A    between atoms: N_24  and  C_25
REMARK   10  A    between atoms: N_24  and  C_33
REMARK   11  A    between atoms: C_25  and  C_26
REMARK   12  A    between atoms: C_26  and  C_28
REMARK   13  A    between atoms: C_26  and  O_32
REMARK   14  A    between atoms: C_28  and  C_29
REMARK   15  A    between atoms: C_29  and  C_30
REMARK                            x       y       z     vdW  Elec       q    Type
REMARK                         _______ _______ _______ _____ _____    ______ ____
ROOT
ATOM      1  C   UNL     1       0.026   0.475   2.289  0.00  0.00    +0.071 A 
ATOM      2  C   UNL     1      -0.320  -0.654   3.037  0.00  0.00    +0.021 A 
ATOM      3  C   UNL     1       0.808  -1.122   3.635  0.00  0.00    +0.225 A 
ATOM      4  N   UNL     1       1.833  -0.306   3.269  0.00  0.00    -0.200 N 
ATOM      5  N   UNL     1       1.312   0.681   2.422  0.00  0.00    -0.168 NA
ENDROOT
BRANCH   4   6
ATOM      6  C   UNL     1       3.171  -0.432   3.664  0.00  0.00    +0.069 A 
ATOM      7  C   UNL     1       3.481  -0.758   4.978  0.00  0.00    +0.028 A 
ATOM      8  C   UNL     1       4.801  -0.882   5.364  0.00  0.00    +0.002 A 
ATOM      9  C   UNL     1       5.814  -0.682   4.444  0.00  0.00    +0.000 A 
ATOM     10  C   UNL     1       5.509  -0.358   3.135  0.00  0.00    +0.002 A 
ATOM     11  C   UNL     1       4.191  -0.238   2.741  0.00  0.00    +0.028 A 
ENDBRANCH   4   6
BRANCH   1  13
ATOM     12  C   UNL     1      -0.912   2.750   1.982  0.00  0.00    +0.014 C 
ATOM     13  C   UNL     1      -0.919   1.310   1.465  0.00  0.00    +0.034 C 
ATOM     14  C   UNL     1      -0.473   1.291   0.002  0.00  0.00    +0.014 C 
ENDBRANCH   1  13
BRANCH   3  15
ATOM     15  O   UNL     1       0.896  -2.205   4.448  0.00  0.00    -0.438 OA
BRANCH  15  16
ATOM     16  C   UNL     1       0.632  -2.034   5.770  0.00  0.00    +0.133 A 
ATOM     17  C   UNL     1       0.224  -0.794   6.242  0.00  0.00    +0.046 A 
ATOM     18  C   UNL     1      -0.045  -0.621   7.585  0.00  0.00    +0.006 A 
ATOM     19  C   UNL     1       0.093  -1.681   8.462  0.00  0.00    +0.038 A 
ATOM     20  C   UNL     1       0.500  -2.919   7.995  0.00  0.00    +0.127 A 
ATOM     21  C   UNL     1       0.765  -3.099   6.648  0.00  0.00    +0.084 A 
ATOM     22  F   UNL     1       0.635  -3.954   8.853  0.00  0.00    -0.205 F 
ENDBRANCH  15  16
ENDBRANCH   3  15
BRANCH   2  23
ATOM     23  C   UNL     1      -1.700  -1.248   3.160  0.00  0.00    -0.035 C 
BRANCH  23  24
ATOM     24  N   UNL     1      -1.900  -2.245   2.101  0.00  0.00    +0.386 N 
ATOM     25  H   UNL     1      -1.723  -1.821   1.202  0.00  0.00    -0.081 HD
BRANCH  24  26
ATOM     26  C   UNL     1      -0.975  -3.368   2.303  0.00  0.00    -0.068 C 
ATOM     27  C   UNL     1       0.201  -3.498   1.333  0.00  0.00    -0.017 C 
ATOM     28  C   UNL     1      -0.971  -4.479   1.252  0.00  0.00    -0.017 C 
ENDBRANCH  24  26
BRANCH  24  29
ATOM     29  C   UNL     1      -3.284  -2.736   2.146  0.00  0.00    -0.046 C 
BRANCH  29  30
ATOM     30  C   UNL     1      -3.580  -3.298   3.538  0.00  0.00    +0.098 C 
BRANCH  30  31
ATOM     31  O   UNL     1      -2.797  -4.473   3.754  0.00  0.00    -0.394 OA
ATOM     32  H   UNL     1      -2.967  -5.182   3.118  0.00  0.00    +0.210 HD
ENDBRANCH  30  31
BRANCH  30  33
ATOM     33  C   UNL     1      -5.066  -3.649   3.640  0.00  0.00    +0.033 C 
BRANCH  33  34
ATOM     34  C   UNL     1      -5.388  -4.093   5.069  0.00  0.00    +0.029 C 
BRANCH  34  35
ATOM     35  C   UNL     1      -6.851  -4.438   5.170  0.00  0.00    -0.034 C 
ATOM     36  C   UNL     1      -7.217  -5.616   5.613  0.00  0.00    +0.004 C 
ENDBRANCH  34  35
ENDBRANCH  33  34
ENDBRANCH  30  33
ENDBRANCH  29  30
ENDBRANCH  24  29
ENDBRANCH  23  24
ENDBRANCH   2  23
TORSDOF 13
