REMARK  Name = ZINC02258154
REMARK  14 active torsions:
REMARK  status: ('A' for Active; 'I' for Inactive)
REMARK    1  A    between atoms: C_1  and  C_2
REMARK    2  A    between atoms: C_2  and  O_3
REMARK    3  A    between atoms: O_3  and  C_4
REMARK    4  A    between atoms: C_4  and  C_6
REMARK    5  A    between atoms: C_7  and  N_20
REMARK    6  A    between atoms: C_10  and  O_18
REMARK    7  A    between atoms: C_11  and  O_16
REMARK    8  A    between atoms: O_16  and  C_17
REMARK    9  A    between atoms: O_18  and  C_19
REMARK   10  A    between atoms: C_21  and  C_23
REMARK   11  A    between atoms: C_23  and  N_68
REMARK   12  A    between atoms: C_25  and  C_34
REMARK   13  A    between atoms: C_30  and  C_32
REMARK   14  A    between atoms: C_30  and  C_33
REMARK                            x       y       z     vdW  Elec       q    Type
REMARK                         _______ _______ _______ _____ _____    ______ ____
ROOT
ATOM      1  C   UNL     1       1.317   1.789  -0.368  0.00  0.00    +0.147 A 
ATOM      2  C   UNL     1       2.600   1.399  -0.042  0.00  0.00    +0.073 A 
ATOM      3  C   UNL     1       3.326   2.613   0.334  0.00  0.00    +0.025 A 
ATOM      4  C   UNL     1       4.640   2.856   0.753  0.00  0.00    +0.061 A 
ATOM      5  C   UNL     1       5.035   4.142   1.048  0.00  0.00    +0.162 A 
ATOM      6  C   UNL     1       4.134   5.203   0.918  0.00  0.00    +0.163 A 
ATOM      7  C   UNL     1       2.836   4.974   0.506  0.00  0.00    +0.075 A 
ATOM      8  C   UNL     1       2.417   3.680   0.210  0.00  0.00    +0.053 A 
ATOM      9  N   UNL     1       1.212   3.165  -0.214  0.00  0.00    -0.347 N 
ATOM     10  H   UNL     1       0.411   3.685  -0.380  0.00  0.00    +0.166 HD
ENDROOT
BRANCH   2  11
ATOM     11  N   UNL     1       3.106   0.103  -0.067  0.00  0.00    -0.285 N 
ATOM     12  C   UNL     1       4.364  -0.121  -0.496  0.00  0.00    +0.201 C 
ATOM     13  O   UNL     1       5.088   0.813  -0.767  0.00  0.00    -0.278 OA
ATOM     14  H   UNL     1       2.554  -0.639   0.224  0.00  0.00    +0.155 HD
BRANCH  12  15
ATOM     15  C   UNL     1       4.871  -1.533  -0.639  0.00  0.00    +0.019 C 
BRANCH  15  26
ATOM     16  C   UNL     1       6.399  -0.951  -2.465  0.00  0.00    -0.071 C 
ATOM     17  C   UNL     1       7.473  -1.814  -3.171  0.00  0.00    -0.048 C 
ATOM     18  C   UNL     1       8.178  -2.545  -1.997  0.00  0.00    -0.011 C 
ATOM     19  C   UNL     1       6.947  -2.804  -1.083  0.00  0.00    -0.067 C 
ATOM     20  C   UNL     1       6.130  -3.917  -1.712  0.00  0.00    -0.009 C 
ATOM     21  C   UNL     1       5.913  -3.846  -3.207  0.00  0.00    -0.036 C 
ATOM     22  C   UNL     1       6.760  -2.876  -4.003  0.00  0.00    +0.011 C 
ATOM     23  C   UNL     1       4.425  -3.553  -3.487  0.00  0.00    +0.011 C 
ATOM     24  C   UNL     1       6.183  -5.263  -3.777  0.00  0.00    +0.011 C 
ATOM     25  C   UNL     1       8.448  -0.964  -4.000  0.00  0.00    +0.009 C 
ATOM     26  N   UNL     1       6.298  -1.473  -1.103  0.00  0.00    +0.388 N 
ATOM     27  H   UNL     1       6.811  -0.848  -0.470  0.00  0.00    -0.081 HD
ENDBRANCH  15  26
ENDBRANCH  12  15
ENDBRANCH   2  11
BRANCH   1  28
ATOM     28  C   UNL     1       0.276   0.926  -0.790  0.00  0.00    +0.358 C 
ATOM     29  O   UNL     1       0.446  -0.279  -0.787  0.00  0.00    -0.243 OA
BRANCH  28  30
ATOM     30  O   UNL     1      -0.904   1.440  -1.197  0.00  0.00    -0.460 OA
BRANCH  30  32
ATOM     31  C   UNL     1      -3.166   1.275  -2.032  0.00  0.00    +0.048 C 
ATOM     32  C   UNL     1      -1.909   0.512  -1.609  0.00  0.00    +0.229 C 
ENDBRANCH  30  32
ENDBRANCH  28  30
ENDBRANCH   1  28
BRANCH   6  33
ATOM     33  O   UNL     1       4.537   6.469   1.206  0.00  0.00    -0.491 OA
ATOM     34  C   UNL     1       3.567   7.507   1.059  0.00  0.00    +0.277 C 
ENDBRANCH   6  33
BRANCH   5  35
ATOM     35  O   UNL     1       6.309   4.381   1.462  0.00  0.00    -0.491 OA
ATOM     36  C   UNL     1       7.180   3.253   1.567  0.00  0.00    +0.277 C 
ENDBRANCH   5  35
TORSDOF 8
