REMARK  Name = ZINC22930747
REMARK  8 active torsions:
REMARK  status: ('A' for Active; 'I' for Inactive)
REMARK    1  A    between atoms: C_4  and  C_7
REMARK    2  A    between atoms: C_8  and  C_9
REMARK    3  A    between atoms: C_16  and  O_30
REMARK    4  A    between atoms: C_17  and  C_20
REMARK    5  A    between atoms: C_20  and  N_21
REMARK    6  A    between atoms: N_24  and  C_27
REMARK    7  A    between atoms: C_27  and  C_28
REMARK    8  A    between atoms: C_28  and  O_29
REMARK                            x       y       z     vdW  Elec       q    Type
REMARK                         _______ _______ _______ _____ _____    ______ ____
ROOT
ATOM      1  C   UNL     1       4.944  -2.716  -0.062  0.00  0.00    +0.050 C 
ATOM      2  C   UNL     1       4.967  -4.081  -0.069  0.00  0.00    +0.176 C 
ATOM      3  C   UNL     1       6.166  -4.927  -0.080  0.00  0.00    +0.231 C 
ATOM      4  O   UNL     1       7.332  -4.569  -0.085  0.00  0.00    -0.283 OA
ATOM      5  C   UNL     1       5.646  -6.306  -0.084  0.00  0.00    +0.068 A 
ATOM      6  C   UNL     1       6.260  -7.559  -0.094  0.00  0.00    +0.019 A 
ATOM      7  C   UNL     1       5.497  -8.692  -0.096  0.00  0.00    +0.046 A 
ATOM      8  C   UNL     1       4.108  -8.600  -0.087  0.00  0.00    +0.122 A 
ATOM      9  C   UNL     1       3.484  -7.363  -0.078  0.00  0.00    +0.020 A 
ATOM     10  C   UNL     1       4.246  -6.200  -0.076  0.00  0.00    +0.144 A 
ATOM     11  O   UNL     1       3.889  -4.898  -0.062  0.00  0.00    -0.451 OA
ENDROOT
BRANCH   1  13
ATOM     12  C   UNL     1       3.690  -0.678  -0.038  0.00  0.00    +0.008 C 
ATOM     13  C   UNL     1       3.713  -2.033  -0.045  0.00  0.00    +0.004 C 
BRANCH  12  17
ATOM     14  C   UNL     1      -0.017   1.380   0.010  0.00  0.00    +0.000 A 
ATOM     15  C   UNL     1       1.168   2.096   0.002  0.00  0.00    +0.001 A 
ATOM     16  C   UNL     1       2.377   1.435  -0.013  0.00  0.00    +0.008 A 
ATOM     17  C   UNL     1       2.405   0.035  -0.021  0.00  0.00    -0.025 A 
ATOM     18  C   UNL     1       1.203  -0.681  -0.013  0.00  0.00    +0.008 A 
ATOM     19  C   UNL     1       0.002  -0.004   0.002  0.00  0.00    +0.001 A 
ENDBRANCH  12  17
ENDBRANCH   1  13
BRANCH   8  20
ATOM     20  O   UNL     1       3.358  -9.731  -0.089  0.00  0.00    -0.506 OA
ATOM     21  H   UNL     1       3.146 -10.064   0.794  0.00  0.00    +0.292 HD
ENDBRANCH   8  20
BRANCH   9  22
ATOM     22  C   UNL     1       1.979  -7.278  -0.070  0.00  0.00    -0.035 C 
BRANCH  22  23
ATOM     23  N   UNL     1       1.497  -7.257   1.318  0.00  0.00    +0.384 N 
ATOM     24  C   UNL     1       1.819  -8.535   1.966  0.00  0.00    -0.063 C 
ATOM     25  C   UNL     1       1.334  -8.507   3.417  0.00  0.00    +0.066 C 
ATOM     26  N   UNL     1      -0.117  -8.278   3.441  0.00  0.00    -0.304 NA
ATOM     27  C   UNL     1      -0.457  -7.014   2.773  0.00  0.00    +0.066 C 
ATOM     28  C   UNL     1       0.043  -7.054   1.327  0.00  0.00    -0.063 C 
ATOM     29  H   UNL     1       1.945  -6.504   1.818  0.00  0.00    -0.081 HD
BRANCH  26  30
ATOM     30  C   UNL     1      -0.631  -8.301   4.817  0.00  0.00    +0.112 C 
BRANCH  30  31
ATOM     31  C   UNL     1      -2.161  -8.310   4.790  0.00  0.00    +0.171 C 
BRANCH  31  32
ATOM     32  O   UNL     1      -2.620  -9.525   4.195  0.00  0.00    -0.394 OA
ATOM     33  H   UNL     1      -3.583  -9.600   4.144  0.00  0.00    +0.209 HD
ENDBRANCH  31  32
ENDBRANCH  30  31
ENDBRANCH  26  30
ENDBRANCH  22  23
ENDBRANCH   9  22
TORSDOF 8
