REMARK  Name = ZINC33058746
REMARK  12 active torsions:
REMARK  status: ('A' for Active; 'I' for Inactive)
REMARK    1  A    between atoms: C_1  and  C_2
REMARK    2  A    between atoms: C_5  and  C_8
REMARK    3  A    between atoms: C_9  and  C_10
REMARK    4  A    between atoms: C_11  and  S_16
REMARK    5  A    between atoms: C_12  and  C_15
REMARK    6  A    between atoms: S_16  and  N_19
REMARK    7  A    between atoms: C_22  and  C_25
REMARK    8  A    between atoms: N_27  and  C_28
REMARK    9  A    between atoms: C_28  and  C_29
REMARK   10  A    between atoms: C_29  and  N_30
REMARK   11  A    between atoms: N_30  and  C_31
REMARK   12  A    between atoms: N_30  and  C_32
REMARK                            x       y       z     vdW  Elec       q    Type
REMARK                         _______ _______ _______ _____ _____    ______ ____
ROOT
ATOM      1  S   UNL     1       0.176  -1.534  -2.236  0.00  0.00    +0.066 S 
ATOM      2  O   UNL     1       1.282  -2.187  -2.843  0.00  0.00    -0.153 OA
ATOM      3  O   UNL     1      -0.853  -2.246  -1.562  0.00  0.00    -0.153 OA
ENDROOT
BRANCH   1   5
ATOM      4  C   UNL     1      -0.059  -0.113  -4.666  0.00  0.00    +0.187 A 
ATOM      5  C   UNL     1      -0.609  -0.592  -3.501  0.00  0.00    +0.174 A 
ATOM      6  C   UNL     1      -1.947  -0.158  -3.558  0.00  0.00    +0.107 A 
ATOM      7  N   UNL     1      -2.079   0.507  -4.671  0.00  0.00    -0.081 NA
ATOM      8  O   UNL     1      -1.048   0.543  -5.302  0.00  0.00    -0.353 OA
ATOM      9  C   UNL     1      -3.019  -0.412  -2.529  0.00  0.00    +0.071 C 
BRANCH   4  11
ATOM     10  C   UNL     1       1.714   0.251  -6.297  0.00  0.00    +0.011 C 
ATOM     11  C   UNL     1       1.323  -0.282  -5.123  0.00  0.00    +0.051 C 
BRANCH  10  16
ATOM     12  C   UNL     1       7.137  -0.411  -8.089  0.00  0.00    +0.044 C 
ATOM     13  C   UNL     1       5.716  -0.238  -7.620  0.00  0.00    -0.050 A 
ATOM     14  C   UNL     1       4.815   0.469  -8.397  0.00  0.00    +0.004 A 
ATOM     15  C   UNL     1       3.513   0.632  -7.974  0.00  0.00    +0.008 A 
ATOM     16  C   UNL     1       3.103   0.081  -6.756  0.00  0.00    -0.025 A 
ATOM     17  C   UNL     1       4.020  -0.627  -5.974  0.00  0.00    +0.008 A 
ATOM     18  C   UNL     1       5.318  -0.786  -6.413  0.00  0.00    +0.004 A 
ENDBRANCH  10  16
ENDBRANCH   4  11
ENDBRANCH   1   5
BRANCH   1  19
ATOM     19  N   UNL     1       0.803  -0.460  -1.143  0.00  0.00    -0.176 NA
ATOM     20  C   UNL     1       0.002  -0.004   0.002  0.00  0.00    +0.110 C 
ATOM     21  C   UNL     1      -0.019   1.528   0.010  0.00  0.00    +0.030 C 
ATOM     22  C   UNL     1       1.419   2.053  -0.001  0.00  0.00    +0.077 C 
ATOM     23  C   UNL     1       2.124   1.587  -1.276  0.00  0.00    +0.030 C 
ATOM     24  C   UNL     1       2.170   0.056  -1.299  0.00  0.00    +0.110 C 
BRANCH  22  25
ATOM     25  C   UNL     1       1.402   3.560   0.042  0.00  0.00    +0.216 C 
ATOM     26  O   UNL     1       0.346   4.154   0.078  0.00  0.00    -0.276 OA
ATOM     27  N   UNL     1       2.562   4.246   0.041  0.00  0.00    -0.317 N 
ATOM     28  H   UNL     1       3.521   3.707   0.009  0.00  0.00    +0.149 HD
BRANCH  27  29
ATOM     29  C   UNL     1       2.546   5.711   0.082  0.00  0.00    +0.085 C 
BRANCH  29  30
ATOM     30  C   UNL     1       3.983   6.237   0.071  0.00  0.00    -0.061 C 
BRANCH  30  31
ATOM     31  N   UNL     1       3.968   7.705   0.113  0.00  0.00    +0.377 N 
ATOM     32  C   UNL     1       3.428   8.190   1.390  0.00  0.00    -0.097 C 
ATOM     33  C   UNL     1       5.308   8.253  -0.134  0.00  0.00    -0.097 C 
ATOM     34  H   UNL     1       3.305   8.059  -0.691  0.00  0.00    -0.083 HD
ENDBRANCH  30  31
ENDBRANCH  29  30
ENDBRANCH  27  29
ENDBRANCH  22  25
ENDBRANCH   1  19
TORSDOF 8
