REMARK  Name = ZINC14579139
REMARK  11 active torsions:
REMARK  status: ('A' for Active; 'I' for Inactive)
REMARK    1  A    between atoms: C_1  and  C_2
REMARK    2  A    between atoms: C_2  and  C_3
REMARK    3  A    between atoms: C_2  and  C_4
REMARK    4  A    between atoms: C_4  and  C_5
REMARK    5  A    between atoms: C_5  and  N_6
REMARK    6  A    between atoms: N_6  and  C_7
REMARK    7  A    between atoms: C_8  and  N_23
REMARK    8  A    between atoms: N_9  and  C_16
REMARK    9  A    between atoms: C_16  and  C_17
REMARK   10  A    between atoms: C_24  and  C_26
REMARK   11  A    between atoms: C_30  and  C_32
REMARK                            x       y       z     vdW  Elec       q    Type
REMARK                         _______ _______ _______ _____ _____    ______ ____
ROOT
ATOM      1  C   UNL     1       0.964   7.255   0.093  0.00  0.00    +0.140 A 
ATOM      2  C   UNL     1       0.481   7.811   1.260  0.00  0.00    +0.128 A 
ATOM      3  N   UNL     1       0.508   9.178   1.415  0.00  0.00    -0.276 N 
ATOM      4  C   UNL     1       0.992   9.964   0.436  0.00  0.00    +0.331 A 
ATOM      5  O   UNL     1       1.004  11.170   0.590  0.00  0.00    -0.246 OA
ATOM      6  N   UNL     1       1.462   9.440  -0.710  0.00  0.00    -0.273 N 
ATOM      7  H   UNL     1       1.816  10.047  -1.422  0.00  0.00    +0.173 HD
ATOM      8  C   UNL     1       1.462   8.108  -0.910  0.00  0.00    +0.277 A 
ATOM      9  O   UNL     1       1.891   7.644  -1.953  0.00  0.00    -0.266 OA
ENDROOT
BRANCH   1  10
ATOM     10  N   UNL     1       0.953   5.858  -0.094  0.00  0.00    -0.260 N 
ATOM     11  C   UNL     1      -0.218   5.190  -0.115  0.00  0.00    +0.251 C 
ATOM     12  O   UNL     1      -0.225   3.979  -0.232  0.00  0.00    -0.270 OA
BRANCH  11  13
ATOM     13  C   UNL     1      -1.493   5.929   0.003  0.00  0.00    +0.038 A 
ATOM     14  C   UNL     1      -1.556   7.278  -0.350  0.00  0.00    +0.013 A 
ATOM     15  C   UNL     1      -2.749   7.961  -0.238  0.00  0.00    +0.001 A 
ATOM     16  C   UNL     1      -3.881   7.313   0.225  0.00  0.00    +0.012 A 
ATOM     17  C   UNL     1      -3.823   5.978   0.582  0.00  0.00    +0.056 A 
ATOM     18  C   UNL     1      -2.638   5.281   0.468  0.00  0.00    +0.025 A 
BRANCH  17  19
ATOM     19  C   UNL     1      -5.059   5.282   1.090  0.00  0.00    +0.417 C 
ATOM     20  F   UNL     1      -6.128   6.184   1.112  0.00  0.00    -0.166 F 
ATOM     21  F   UNL     1      -5.371   4.210   0.247  0.00  0.00    -0.166 F 
ATOM     22  F   UNL     1      -4.826   4.804   2.385  0.00  0.00    -0.166 F 
ENDBRANCH  17  19
ENDBRANCH  11  13
BRANCH  10  23
ATOM     23  C   UNL     1       2.213   5.131  -0.264  0.00  0.00    +0.114 C 
BRANCH  23  24
ATOM     24  C   UNL     1       2.482   4.918  -1.755  0.00  0.00    +0.022 C 
BRANCH  24  26
ATOM     25  C   UNL     1       3.454   2.655  -1.338  0.00  0.00    +0.007 C 
ATOM     26  C   UNL     1       3.722   4.040  -1.930  0.00  0.00    -0.016 C 
ATOM     27  C   UNL     1       4.045   3.904  -3.419  0.00  0.00    +0.007 C 
ENDBRANCH  24  26
ENDBRANCH  23  24
ENDBRANCH  10  23
ENDBRANCH   1  10
BRANCH   2  28
ATOM     28  N   UNL     1      -0.018   7.009   2.258  0.00  0.00    -0.343 N 
ATOM     29  H   UNL     1       0.032   6.044   2.175  0.00  0.00    +0.144 HD
ATOM     30  H   UNL     1      -0.420   7.408   3.046  0.00  0.00    +0.144 HD
ENDBRANCH   2  28
BRANCH   3  31
ATOM     31  C   UNL     1       0.003   9.781   2.650  0.00  0.00    +0.163 C 
BRANCH  31  32
ATOM     32  C   UNL     1      -1.468  10.074   2.502  0.00  0.00    -0.028 A 
ATOM     33  C   UNL     1      -1.883  11.299   2.013  0.00  0.00    +0.005 A 
ATOM     34  C   UNL     1      -3.232  11.565   1.873  0.00  0.00    +0.000 A 
ATOM     35  C   UNL     1      -4.166  10.611   2.230  0.00  0.00    +0.000 A 
ATOM     36  C   UNL     1      -3.751   9.388   2.723  0.00  0.00    +0.000 A 
ATOM     37  C   UNL     1      -2.402   9.120   2.859  0.00  0.00    +0.005 A 
ENDBRANCH  31  32
ENDBRANCH   3  31
TORSDOF 9
