REMARK  Name = ZINC27572529
REMARK  10 active torsions:
REMARK  status: ('A' for Active; 'I' for Inactive)
REMARK    1  A    between atoms: C_1  and  O_2
REMARK    2  A    between atoms: O_2  and  C_3
REMARK    3  A    between atoms: C_3  and  C_4
REMARK    4  A    between atoms: C_4  and  N_5
REMARK    5  A    between atoms: C_6  and  C_8
REMARK    6  A    between atoms: C_12  and  N_13
REMARK    7  A    between atoms: C_14  and  C_16
REMARK    8  A    between atoms: C_16  and  N_17
REMARK    9  A    between atoms: C_21  and  C_24
REMARK   10  A    between atoms: N_26  and  C_27
REMARK                            x       y       z     vdW  Elec       q    Type
REMARK                         _______ _______ _______ _____ _____    ______ ____
ROOT
ATOM      1  N   UNL     1       2.403  -1.463  -0.012  0.00  0.00    -0.281 N 
ATOM      2  C   UNL     1       1.729  -2.630  -0.011  0.00  0.00    +0.201 C 
ATOM      3  O   UNL     1       0.516  -2.630   0.009  0.00  0.00    -0.278 OA
ATOM      4  H   UNL     1       3.503  -1.464  -0.030  0.00  0.00    +0.155 HD
ENDROOT
BRANCH   1   9
ATOM      5  C   UNL     1       2.222   1.028   0.011  0.00  0.00    +0.069 A 
ATOM      6  C   UNL     1       1.272   2.127   0.035  0.00  0.00    -0.023 A 
ATOM      7  C   UNL     1      -0.029   1.762   0.054  0.00  0.00    -0.004 A 
ATOM      8  S   UNL     1      -0.003  -0.008   0.039  0.00  0.00    -0.077 S 
ATOM      9  C   UNL     1       1.711  -0.262   0.009  0.00  0.00    +0.084 A 
ATOM     10  C   UNL     1      -1.220   2.669   0.086  0.00  0.00    +0.043 C 
ATOM     11  C   UNL     1      -0.747   4.079   0.464  0.00  0.00    +0.005 C 
ATOM     12  C   UNL     1       0.473   4.438  -0.390  0.00  0.00    +0.005 C 
ATOM     13  C   UNL     1       1.675   3.596   0.040  0.00  0.00    +0.037 C 
BRANCH   5  15
ATOM     14  N   UNL     1       4.351   1.376   1.146  0.00  0.00    -0.309 N 
ATOM     15  C   UNL     1       3.667   1.273  -0.011  0.00  0.00    +0.247 C 
ATOM     16  O   UNL     1       4.250   1.383  -1.074  0.00  0.00    -0.270 OA
ATOM     17  H   UNL     1       3.825   1.277   2.107  0.00  0.00    +0.149 HD
BRANCH  14  18
ATOM     18  C   UNL     1       5.795   1.621   1.124  0.00  0.00    +0.132 C 
BRANCH  18  19
ATOM     19  C   UNL     1       6.322   1.695   2.559  0.00  0.00    +0.178 C 
BRANCH  19  21
ATOM     20  C   UNL     1       6.627   0.383   4.541  0.00  0.00    +0.194 C 
ATOM     21  O   UNL     1       6.164   0.423   3.190  0.00  0.00    -0.381 OA
ENDBRANCH  19  21
ENDBRANCH  18  19
ENDBRANCH  14  18
ENDBRANCH   5  15
ENDBRANCH   1   9
BRANCH   2  22
ATOM     22  C   UNL     1       2.481  -3.936  -0.033  0.00  0.00    +0.019 C 
BRANCH  22  23
ATOM     23  N   UNL     1       1.526  -5.052  -0.027  0.00  0.00    +0.386 N 
ATOM     24  C   UNL     1       0.777  -5.096   1.235  0.00  0.00    -0.078 C 
ATOM     25  C   UNL     1      -0.305  -6.175   1.150  0.00  0.00    -0.018 C 
ATOM     26  C   UNL     1       0.353  -7.530   0.878  0.00  0.00    +0.009 C 
ATOM     27  C   UNL     1       1.166  -7.443  -0.417  0.00  0.00    +0.059 C 
ATOM     28  C   UNL     1       2.205  -6.327  -0.286  0.00  0.00    -0.065 C 
ATOM     29  H   UNL     1       0.804  -4.885  -0.840  0.00  0.00    -0.081 HD
BRANCH  27  30
ATOM     30  C   UNL     1       1.865  -8.756  -0.661  0.00  0.00    +0.218 C 
ATOM     31  O   UNL     1       3.076  -8.796  -0.725  0.00  0.00    -0.275 OA
ATOM     32  N   UNL     1       1.145  -9.885  -0.809  0.00  0.00    -0.285 N 
ATOM     33  H   UNL     1       0.053  -9.863  -0.676  0.00  0.00    +0.155 HD
BRANCH  32  34
ATOM     34  C   UNL     1       1.786 -11.086  -1.132  0.00  0.00    +0.033 A 
ATOM     35  C   UNL     1       1.157 -12.012  -1.954  0.00  0.00    +0.023 A 
ATOM     36  C   UNL     1       1.794 -13.194  -2.275  0.00  0.00    +0.002 A 
ATOM     37  C   UNL     1       3.054 -13.462  -1.770  0.00  0.00    +0.000 A 
ATOM     38  C   UNL     1       3.681 -12.544  -0.947  0.00  0.00    +0.002 A 
ATOM     39  C   UNL     1       3.051 -11.358  -0.627  0.00  0.00    +0.023 A 
ENDBRANCH  32  34
ENDBRANCH  27  30
ENDBRANCH  22  23
ENDBRANCH   2  22
TORSDOF 9
