REMARK  Name = ZINC39637444
REMARK  9 active torsions:
REMARK  status: ('A' for Active; 'I' for Inactive)
REMARK    1  A    between atoms: C_1  and  C_2
REMARK    2  A    between atoms: C_7  and  N_12
REMARK    3  A    between atoms: C_9  and  C_11
REMARK    4  A    between atoms: C_13  and  C_15
REMARK    5  A    between atoms: C_26  and  C_28
REMARK    6  A    between atoms: C_30  and  O_36
REMARK    7  A    between atoms: C_33  and  O_34
REMARK    8  A    between atoms: O_34  and  C_35
REMARK    9  A    between atoms: O_36  and  C_37
REMARK                            x       y       z     vdW  Elec       q    Type
REMARK                         _______ _______ _______ _____ _____    ______ ____
ROOT
ATOM      1  C   UNL     1       1.941  -4.249   4.122  0.00  0.00    +0.100 C 
ATOM      2  C   UNL     1       3.433  -4.485   3.800  0.00  0.00    +0.121 C 
ATOM      3  N   UNL     1       3.796  -5.698   4.571  0.00  0.00    -0.296 N 
ATOM      4  C   UNL     1       2.612  -6.582   4.445  0.00  0.00    +0.115 C 
ATOM      5  C   UNL     1       1.405  -5.628   4.544  0.00  0.00    -0.004 C 
ATOM      6  C   UNL     1       0.298  -6.078   3.595  0.00  0.00    -0.010 C 
ATOM      7  C   UNL     1      -0.258  -7.424   4.069  0.00  0.00    -0.082 C 
ATOM      8  N   UNL     1      -0.782  -7.285   5.433  0.00  0.00    +0.379 N 
ATOM      9  C   UNL     1       0.307  -6.943   6.356  0.00  0.00    -0.082 C 
ATOM     10  C   UNL     1       0.888  -5.577   5.978  0.00  0.00    -0.010 C 
ATOM     11  C   UNL     1       4.942  -5.941   5.237  0.00  0.00    +0.250 C 
ATOM     12  O   UNL     1       5.787  -5.072   5.331  0.00  0.00    -0.270 OA
ATOM     13  H   UNL     1      -1.479  -6.556   5.452  0.00  0.00    -0.086 HD
ATOM     14  H   UNL     1      -1.203  -8.156   5.720  0.00  0.00    -0.086 HD
ENDROOT
BRANCH  11  15
ATOM     15  C   UNL     1       5.171  -7.263   5.851  0.00  0.00    +0.082 A 
ATOM     16  C   UNL     1       4.691  -8.419   5.230  0.00  0.00    +0.062 A 
ATOM     17  C   UNL     1       4.910  -9.654   5.812  0.00  0.00    +0.121 A 
ATOM     18  C   UNL     1       5.605  -9.748   7.011  0.00  0.00    +0.049 A 
ATOM     19  C   UNL     1       6.083  -8.611   7.631  0.00  0.00    +0.050 A 
ATOM     20  C   UNL     1       5.876  -7.366   7.057  0.00  0.00    +0.132 A 
BRANCH  20  21
ATOM     21  O   UNL     1       6.351  -6.249   7.665  0.00  0.00    -0.494 OA
ATOM     22  C   UNL     1       7.061  -6.430   8.892  0.00  0.00    +0.277 C 
ENDBRANCH  20  21
BRANCH  17  23
ATOM     23  O   UNL     1       4.443 -10.780   5.208  0.00  0.00    -0.495 OA
ATOM     24  C   UNL     1       4.705 -12.023   5.863  0.00  0.00    +0.277 C 
ENDBRANCH  17  23
ENDBRANCH  11  15
BRANCH   1  26
ATOM     25  N   UNL     1       0.042  -3.100   3.030  0.00  0.00    -0.312 N 
ATOM     26  C   UNL     1       1.212  -3.755   2.898  0.00  0.00    +0.218 C 
ATOM     27  O   UNL     1       1.678  -3.948   1.796  0.00  0.00    -0.275 OA
ATOM     28  H   UNL     1      -0.331  -2.946   3.912  0.00  0.00    +0.149 HD
BRANCH  25  34
ATOM     29  C   UNL     1      -4.392  -1.868   1.222  0.00  0.00    +0.008 C 
ATOM     30  C   UNL     1      -2.899  -1.993   0.911  0.00  0.00    -0.009 C 
ATOM     31  C   UNL     1      -2.346  -0.625   0.506  0.00  0.00    +0.003 C 
ATOM     32  C   UNL     1      -0.854  -0.750   0.194  0.00  0.00    +0.002 C 
ATOM     33  C   UNL     1      -0.114  -1.252   1.436  0.00  0.00    +0.022 C 
ATOM     34  C   UNL     1      -0.667  -2.619   1.841  0.00  0.00    +0.076 C 
ATOM     35  C   UNL     1      -2.159  -2.494   2.153  0.00  0.00    +0.009 C 
ATOM     36  C   UNL     1      -2.712  -3.862   2.558  0.00  0.00    +0.009 C 
ENDBRANCH  25  34
ENDBRANCH   1  26
TORSDOF 5
