REMARK  Name = ZINC60350087
REMARK  8 active torsions:
REMARK  status: ('A' for Active; 'I' for Inactive)
REMARK    1  A    between atoms: C_1  and  C_2
REMARK    2  A    between atoms: C_4  and  C_21
REMARK    3  A    between atoms: C_5  and  C_9
REMARK    4  A    between atoms: C_6  and  C_8
REMARK    5  A    between atoms: C_9  and  S_10
REMARK    6  A    between atoms: S_10  and  C_11
REMARK    7  A    between atoms: N_15  and  C_16
REMARK    8  A    between atoms: C_16  and  C_17
REMARK                            x       y       z     vdW  Elec       q    Type
REMARK                         _______ _______ _______ _____ _____    ______ ____
ROOT
ATOM      1  S   UNL     1       1.777  -4.858  -0.034  0.00  0.00    -0.080 S 
ENDROOT
BRANCH   1   2
ATOM      2  C   UNL     1       1.632  -6.614  -0.043  0.00  0.00    +0.210 A 
ATOM      3  N   UNL     1       0.513  -7.305  -0.046  0.00  0.00    -0.102 NA
ATOM      4  N   UNL     1       0.763  -8.565  -0.052  0.00  0.00    -0.022 NA
ATOM      5  N   UNL     1       2.036  -8.769  -0.054  0.00  0.00    -0.043 NA
ATOM      6  N   UNL     1       2.651  -7.505  -0.053  0.00  0.00    -0.212 N 
BRANCH   6   7
ATOM      7  C   UNL     1       4.087  -7.215  -0.060  0.00  0.00    +0.261 C 
BRANCH   7   8
ATOM      8  C   UNL     1       4.595  -7.121   1.380  0.00  0.00    +0.409 C 
ATOM      9  F   UNL     1       4.368  -8.337   2.034  0.00  0.00    -0.169 F 
ATOM     10  F   UNL     1       5.966  -6.844   1.373  0.00  0.00    -0.169 F 
ATOM     11  F   UNL     1       3.916  -6.098   2.049  0.00  0.00    -0.169 F 
ENDBRANCH   7   8
ENDBRANCH   6   7
ENDBRANCH   1   2
BRANCH   1  12
ATOM     12  C   UNL     1       0.059  -4.275  -0.021  0.00  0.00    +0.113 C 
BRANCH  12  17
ATOM     13  C   UNL     1      -0.018   1.503   0.010  0.00  0.00    +0.044 C 
ATOM     14  C   UNL     1       0.002  -0.004   0.002  0.00  0.00    -0.050 A 
ATOM     15  C   UNL     1       0.006  -0.689  -1.199  0.00  0.00    +0.007 A 
ATOM     16  C   UNL     1       0.025  -2.071  -1.206  0.00  0.00    -0.046 A 
ATOM     17  C   UNL     1       0.040  -2.768  -0.013  0.00  0.00    -0.031 A 
ATOM     18  C   UNL     1       0.037  -2.084   1.188  0.00  0.00    -0.046 A 
ATOM     19  C   UNL     1       0.023  -0.702   1.195  0.00  0.00    +0.007 A 
ATOM     20  C   UNL     1       0.054  -2.844   2.489  0.00  0.00    +0.044 C 
ATOM     21  C   UNL     1       0.027  -2.817  -2.516  0.00  0.00    +0.044 C 
ENDBRANCH  12  17
ENDBRANCH   1  12
TORSDOF 5
