REMARK  Name = ZINC36512323
REMARK  16 active torsions:
REMARK  status: ('A' for Active; 'I' for Inactive)
REMARK    1  A    between atoms: C_1  and  C_2
REMARK    2  A    between atoms: C_2  and  C_3
REMARK    3  A    between atoms: C_3  and  C_4
REMARK    4  A    between atoms: C_4  and  C_5
REMARK    5  A    between atoms: C_5  and  C_6
REMARK    6  A    between atoms: C_6  and  N_7
REMARK    7  A    between atoms: N_7  and  C_8
REMARK    8  A    between atoms: C_8  and  C_10
REMARK    9  A    between atoms: C_8  and  C_19
REMARK   10  A    between atoms: C_13  and  N_16
REMARK   11  A    between atoms: N_21  and  C_22
REMARK   12  A    between atoms: C_22  and  C_23
REMARK   13  A    between atoms: C_22  and  C_24
REMARK   14  A    between atoms: C_22  and  C_25
REMARK   15  A    between atoms: C_26  and  C_28
REMARK   16  A    between atoms: C_28  and  C_29
REMARK                            x       y       z     vdW  Elec       q    Type
REMARK                         _______ _______ _______ _____ _____    ______ ____
ROOT
ATOM      1  C   UNL     1       3.480  -4.853  -3.866  0.00  0.00    +0.192 C 
ENDROOT
BRANCH   1   2
ATOM      2  C   UNL     1       4.594  -4.942  -4.877  0.00  0.00    -0.018 A 
ATOM      3  C   UNL     1       5.240  -3.794  -5.296  0.00  0.00    +0.008 A 
ATOM      4  C   UNL     1       6.262  -3.876  -6.223  0.00  0.00    +0.033 A 
ATOM      5  C   UNL     1       6.638  -5.106  -6.731  0.00  0.00    +0.126 A 
ATOM      6  C   UNL     1       5.992  -6.254  -6.311  0.00  0.00    +0.033 A 
ATOM      7  C   UNL     1       4.973  -6.172  -5.381  0.00  0.00    +0.008 A 
BRANCH   5   8
ATOM      8  N   UNL     1       7.732  -5.193  -7.725  0.00  0.00    +0.056 N 
ATOM      9  O   UNL     1       8.296  -4.189  -8.092  0.00  0.00    -0.126 OA
ATOM     10  O   UNL     1       8.060  -6.269  -8.169  0.00  0.00    -0.126 OA
ENDBRANCH   5   8
ENDBRANCH   1   2
BRANCH   1  11
ATOM     11  C   UNL     1       4.064  -4.811  -2.478  0.00  0.00    +0.238 C 
ATOM     12  O   UNL     1       3.339  -4.639  -1.520  0.00  0.00    -0.273 OA
ATOM     13  N   UNL     1       5.391  -4.963  -2.300  0.00  0.00    -0.309 N 
ATOM     14  H   UNL     1       5.970  -5.100  -3.065  0.00  0.00    +0.149 HD
BRANCH  13  15
ATOM     15  C   UNL     1       5.959  -4.922  -0.950  0.00  0.00    +0.026 C 
ATOM     16  C   UNL     1       5.342  -6.037  -0.103  0.00  0.00    +0.031 C 
ATOM     17  C   UNL     1       7.474  -5.120  -1.027  0.00  0.00    +0.031 C 
ATOM     18  C   UNL     1       5.653  -3.567  -0.309  0.00  0.00    +0.031 C 
ENDBRANCH  13  15
ENDBRANCH   1  11
BRANCH   1  19
ATOM     19  N   UNL     1       2.700  -3.636  -4.105  0.00  0.00    -0.286 N 
ATOM     20  C   UNL     1       2.079  -3.455  -5.288  0.00  0.00    +0.221 C 
ATOM     21  O   UNL     1       2.167  -4.299  -6.154  0.00  0.00    -0.275 OA
BRANCH  19  22
ATOM     22  C   UNL     1       2.594  -2.616  -3.059  0.00  0.00    +0.109 C 
BRANCH  22  23
ATOM     23  C   UNL     1       3.912  -1.843  -2.965  0.00  0.00    +0.019 C 
BRANCH  23  24
ATOM     24  C   UNL     1       3.834  -0.842  -1.811  0.00  0.00    +0.002 C 
BRANCH  24  25
ATOM     25  C   UNL     1       5.151  -0.069  -1.717  0.00  0.00    -0.000 C 
BRANCH  25  27
ATOM     26  C   UNL     1       6.391   1.706  -0.470  0.00  0.00    +0.004 C 
ATOM     27  C   UNL     1       5.074   0.933  -0.564  0.00  0.00    -0.003 C 
ENDBRANCH  25  27
ENDBRANCH  24  25
ENDBRANCH  23  24
ENDBRANCH  22  23
ENDBRANCH  19  22
BRANCH  20  28
ATOM     28  C   UNL     1       1.277  -2.203  -5.534  0.00  0.00    +0.131 C 
BRANCH  28  29
ATOM     29  C   UNL     1       0.691  -2.246  -6.921  0.00  0.00    -0.039 A 
ATOM     30  C   UNL     1       1.402  -1.729  -7.988  0.00  0.00    +0.005 A 
ATOM     31  C   UNL     1       0.865  -1.769  -9.261  0.00  0.00    +0.015 A 
ATOM     32  C   UNL     1      -0.384  -2.327  -9.468  0.00  0.00    +0.018 A 
ATOM     33  C   UNL     1      -1.095  -2.844  -8.400  0.00  0.00    +0.015 A 
ATOM     34  C   UNL     1      -0.555  -2.808  -7.128  0.00  0.00    +0.005 A 
ATOM     35 BR   UNL     1      -1.119  -2.381 -11.209  0.00  0.00    -0.050 Br
ENDBRANCH  28  29
ENDBRANCH  20  28
ENDBRANCH   1  19
TORSDOF 12
