REMARK  Name = ZINC36146387
REMARK  14 active torsions:
REMARK  status: ('A' for Active; 'I' for Inactive)
REMARK    1  A    between atoms: C_1  and  C_2
REMARK    2  A    between atoms: C_2  and  C_3
REMARK    3  A    between atoms: C_2  and  C_4
REMARK    4  A    between atoms: C_2  and  O_5
REMARK    5  A    between atoms: O_5  and  C_6
REMARK    6  A    between atoms: C_6  and  C_7
REMARK    7  A    between atoms: C_7  and  C_9
REMARK    8  A    between atoms: C_7  and  O_34
REMARK    9  A    between atoms: C_9  and  N_10
REMARK   10  A    between atoms: N_10  and  C_11
REMARK   11  A    between atoms: N_10  and  C_19
REMARK   12  A    between atoms: C_11  and  C_12
REMARK   13  A    between atoms: C_19  and  C_20
REMARK   14  A    between atoms: C_23  and  C_26
REMARK                            x       y       z     vdW  Elec       q    Type
REMARK                         _______ _______ _______ _____ _____    ______ ____
ROOT
ATOM      1  N   UNL     1       4.339  -0.824  -4.450  0.00  0.00    +0.387 N 
ATOM      2  H   UNL     1       3.925  -1.697  -4.743  0.00  0.00    -0.081 HD
ENDROOT
BRANCH   1   3
ATOM      3  C   UNL     1       4.117  -0.636  -3.010  0.00  0.00    -0.044 C 
BRANCH   3   4
ATOM      4  C   UNL     1       2.676  -1.013  -2.662  0.00  0.00    +0.124 C 
BRANCH   4   5
ATOM      5  O   UNL     1       1.784  -0.034  -3.201  0.00  0.00    -0.391 OA
ATOM      6  H   UNL     1       1.904   0.852  -2.832  0.00  0.00    +0.210 HD
ENDBRANCH   4   5
BRANCH   4   7
ATOM      7  C   UNL     1       2.515  -1.067  -1.142  0.00  0.00    +0.189 C 
BRANCH   7   8
ATOM      8  O   UNL     1       1.203  -1.531  -0.817  0.00  0.00    -0.372 OA
BRANCH   8  10
ATOM      9  C   UNL     1       1.107  -0.236   1.221  0.00  0.00    +0.041 C 
ATOM     10  C   UNL     1       0.948  -1.619   0.586  0.00  0.00    +0.061 C 
ATOM     11  C   UNL     1       1.942  -2.591   1.225  0.00  0.00    +0.041 C 
ATOM     12  C   UNL     1      -0.478  -2.124   0.814  0.00  0.00    +0.041 C 
ENDBRANCH   8  10
ENDBRANCH   7   8
ENDBRANCH   4   7
ENDBRANCH   3   4
ENDBRANCH   1   3
BRANCH   1  13
ATOM     13  C   UNL     1       3.719   0.284  -5.189  0.00  0.00    -0.043 C 
BRANCH  13  14
ATOM     14  C   UNL     1       4.331   1.588  -4.745  0.00  0.00    -0.063 A 
ATOM     15  C   UNL     1       3.756   2.304  -3.712  0.00  0.00    +0.002 A 
ATOM     16  C   UNL     1       4.316   3.500  -3.304  0.00  0.00    +0.002 A 
ATOM     17  C   UNL     1       5.451   3.981  -3.930  0.00  0.00    +0.020 A 
ATOM     18  C   UNL     1       6.026   3.265  -4.964  0.00  0.00    +0.041 A 
ATOM     19  C   UNL     1       5.469   2.064  -5.367  0.00  0.00    +0.021 A 
ATOM     20 CL   UNL     1       7.452   3.868  -5.750  0.00  0.00    -0.084 Cl
ENDBRANCH  13  14
ENDBRANCH   1  13
BRANCH   1  21
ATOM     21  C   UNL     1       5.782  -0.850  -4.724  0.00  0.00    -0.030 C 
BRANCH  21  22
ATOM     22  C   UNL     1       6.019  -1.310  -6.164  0.00  0.00    +0.194 C 
ATOM     23  C   UNL     1       7.527  -1.291  -6.509  0.00  0.00    +0.104 C 
ATOM     24  C   UNL     1       7.529  -0.816  -7.950  0.00  0.00    +0.091 C 
ATOM     25  N   UNL     1       6.370  -0.312  -8.211  0.00  0.00    -0.089 NA
ATOM     26  O   UNL     1       5.489  -0.355  -7.105  0.00  0.00    -0.392 OA
BRANCH  24  27
ATOM     27  C   UNL     1       8.663  -0.911  -8.891  0.00  0.00    +0.001 A 
ATOM     28  C   UNL     1       9.868  -1.485  -8.480  0.00  0.00    +0.011 A 
ATOM     29  C   UNL     1      10.924  -1.572  -9.363  0.00  0.00    +0.022 A 
ATOM     30  C   UNL     1      10.791  -1.091 -10.655  0.00  0.00    +0.059 A 
ATOM     31  C   UNL     1       9.598  -0.520 -11.069  0.00  0.00    +0.060 A 
ATOM     32  C   UNL     1       8.533  -0.432 -10.196  0.00  0.00    +0.031 A 
ATOM     33 CL   UNL     1       9.441   0.080 -12.691  0.00  0.00    -0.082 Cl
ATOM     34 CL   UNL     1      12.125  -1.203 -11.761  0.00  0.00    -0.082 Cl
ENDBRANCH  24  27
ENDBRANCH  21  22
ENDBRANCH   1  21
TORSDOF 11
