REMARK  Name = ZINC39674539
REMARK  9 active torsions:
REMARK  status: ('A' for Active; 'I' for Inactive)
REMARK    1  A    between atoms: C_1  and  C_2
REMARK    2  A    between atoms: C_4  and  C_9
REMARK    3  A    between atoms: C_5  and  C_8
REMARK    4  A    between atoms: C_9  and  C_11
REMARK    5  A    between atoms: C_9  and  N_12
REMARK    6  A    between atoms: C_13  and  C_15
REMARK    7  A    between atoms: C_26  and  C_28
REMARK    8  A    between atoms: C_29  and  C_40
REMARK    9  A    between atoms: C_32  and  C_34
REMARK                            x       y       z     vdW  Elec       q    Type
REMARK                         _______ _______ _______ _____ _____    ______ ____
ROOT
ATOM      1  C   UNL     1      -3.262  -0.591  -5.138  0.00  0.00    +0.100 C 
ATOM      2  C   UNL     1      -3.729  -1.887  -4.436  0.00  0.00    +0.121 C 
ATOM      3  N   UNL     1      -4.462  -2.636  -5.484  0.00  0.00    -0.296 N 
ATOM      4  C   UNL     1      -3.667  -2.418  -6.717  0.00  0.00    +0.115 C 
ATOM      5  C   UNL     1      -3.222  -0.944  -6.634  0.00  0.00    -0.004 C 
ATOM      6  C   UNL     1      -1.804  -0.791  -7.176  0.00  0.00    -0.010 C 
ATOM      7  C   UNL     1      -1.801  -1.090  -8.677  0.00  0.00    -0.082 C 
ATOM      8  N   UNL     1      -2.711  -0.166  -9.364  0.00  0.00    +0.379 N 
ATOM      9  C   UNL     1      -4.088  -0.385  -8.904  0.00  0.00    -0.082 C 
ATOM     10  C   UNL     1      -4.188  -0.056  -7.412  0.00  0.00    -0.010 C 
ATOM     11  C   UNL     1      -5.594  -3.353  -5.347  0.00  0.00    +0.248 C 
ATOM     12  O   UNL     1      -6.030  -3.988  -6.290  0.00  0.00    -0.270 OA
ATOM     13  H   UNL     1      -2.438   0.784  -9.164  0.00  0.00    -0.086 HD
ATOM     14  H   UNL     1      -2.661  -0.325 -10.360  0.00  0.00    -0.086 HD
ENDROOT
BRANCH  11  15
ATOM     15  C   UNL     1      -6.278  -3.369  -4.105  0.00  0.00    +0.078 C 
ATOM     16  C   UNL     1      -5.948  -4.096  -3.025  0.00  0.00    +0.132 C 
ATOM     17  O   UNL     1      -6.802  -3.895  -2.004  0.00  0.00    -0.410 OA
ATOM     18  N   UNL     1      -7.546  -2.651  -2.269  0.00  0.00    -0.144 NA
ATOM     19  C   UNL     1      -7.513  -2.561  -3.750  0.00  0.00    +0.161 C 
ATOM     20  C   UNL     1      -4.763  -5.026  -2.963  0.00  0.00    +0.089 C 
ATOM     21  H   UNL     1      -7.084  -1.857  -1.852  0.00  0.00    +0.168 HD
BRANCH  19  22
ATOM     22  C   UNL     1      -8.748  -3.183  -4.348  0.00  0.00    -0.023 A 
ATOM     23  C   UNL     1      -9.363  -4.247  -3.715  0.00  0.00    +0.005 A 
ATOM     24  C   UNL     1     -10.496  -4.817  -4.263  0.00  0.00    +0.000 A 
ATOM     25  C   UNL     1     -11.015  -4.323  -5.446  0.00  0.00    +0.000 A 
ATOM     26  C   UNL     1     -10.402  -3.259  -6.079  0.00  0.00    +0.000 A 
ATOM     27  C   UNL     1      -9.271  -2.686  -5.528  0.00  0.00    +0.005 A 
ENDBRANCH  19  22
ENDBRANCH  11  15
BRANCH   1  29
ATOM     28  N   UNL     1      -1.486   1.084  -4.741  0.00  0.00    -0.309 N 
ATOM     29  C   UNL     1      -1.889  -0.199  -4.654  0.00  0.00    +0.219 C 
ATOM     30  O   UNL     1      -1.148  -1.038  -4.188  0.00  0.00    -0.275 OA
ATOM     31  H   UNL     1      -2.079   1.755  -5.114  0.00  0.00    +0.149 HD
BRANCH  28  32
ATOM     32  C   UNL     1      -0.151   1.466  -4.271  0.00  0.00    +0.100 C 
ATOM     33  C   UNL     1       0.870   1.223  -5.384  0.00  0.00    +0.033 C 
BRANCH  32  36
ATOM     34  C   UNL     1       0.232   4.224  -6.009  0.00  0.00    +0.039 C 
ATOM     35  C   UNL     1      -0.606   4.107  -4.734  0.00  0.00    +0.154 C 
ATOM     36  C   UNL     1      -0.149   2.925  -3.897  0.00  0.00    -0.001 C 
ATOM     37  C   UNL     1       0.255   3.480  -2.752  0.00  0.00    +0.063 C 
ATOM     38  N   UNL     1       0.103   4.823  -2.790  0.00  0.00    -0.159 NA
ATOM     39  N   UNL     1      -0.369   5.258  -3.847  0.00  0.00    -0.180 NA
ATOM     40  C   UNL     1       0.806   2.714  -1.578  0.00  0.00    +0.067 C 
ENDBRANCH  32  36
ENDBRANCH  28  32
ENDBRANCH   1  29
TORSDOF 5
