REMARK  Name = ZINC13500167
REMARK  12 active torsions:
REMARK  status: ('A' for Active; 'I' for Inactive)
REMARK    1  A    between atoms: C_1  and  C_2
REMARK    2  A    between atoms: C_2  and  C_3
REMARK    3  A    between atoms: C_3  and  C_4
REMARK    4  A    between atoms: C_4  and  C_6
REMARK    5  A    between atoms: C_4  and  N_75
REMARK    6  A    between atoms: N_10  and  C_11
REMARK    7  A    between atoms: C_11  and  C_12
REMARK    8  A    between atoms: C_12  and  C_13
REMARK    9  A    between atoms: C_19  and  C_20
REMARK   10  A    between atoms: C_19  and  N_75
REMARK   11  A    between atoms: C_24  and  C_32
REMARK   12  A    between atoms: C_33  and  N_75
REMARK                            x       y       z     vdW  Elec       q    Type
REMARK                         _______ _______ _______ _____ _____    ______ ____
ROOT
ATOM      1  N   UNL     1       7.841   0.625  -2.839  0.00  0.00    +0.391 N 
ATOM      2  H   UNL     1       7.625   0.422  -3.822  0.00  0.00    -0.080 HD
ENDROOT
BRANCH   1   3
ATOM      3  C   UNL     1       9.038  -0.144  -2.440  0.00  0.00    -0.067 C 
ATOM      4  C   UNL     1       8.822  -1.616  -2.800  0.00  0.00    -0.015 C 
ATOM      5  C   UNL     1      10.063  -2.423  -2.413  0.00  0.00    -0.002 C 
ATOM      6  C   UNL     1      10.306  -2.296  -0.908  0.00  0.00    -0.000 C 
ATOM      7  C   UNL     1      10.522  -0.825  -0.549  0.00  0.00    -0.002 C 
ATOM      8  C   UNL     1       9.281  -0.017  -0.935  0.00  0.00    -0.015 C 
ENDBRANCH   1   3
BRANCH   1   9
ATOM      9  C   UNL     1       6.686   0.231  -2.003  0.00  0.00    +0.003 C 
BRANCH   9  10
ATOM     10  C   UNL     1       6.773   0.879  -0.646  0.00  0.00    +0.138 A 
ATOM     11  N   UNL     1       6.981   2.149  -0.396  0.00  0.00    -0.115 NA
ATOM     12  N   UNL     1       6.992   2.307   0.882  0.00  0.00    -0.023 NA
ATOM     13  N   UNL     1       6.790   1.172   1.455  0.00  0.00    -0.044 NA
ATOM     14  N   UNL     1       6.647   0.267   0.546  0.00  0.00    -0.231 N 
BRANCH  14  15
ATOM     15  C   UNL     1       6.401  -1.160   0.770  0.00  0.00    +0.152 C 
BRANCH  15  16
ATOM     16  C   UNL     1       4.893  -1.414   0.830  0.00  0.00    +0.058 C 
BRANCH  16  17
ATOM     17  C   UNL     1       4.640  -2.881   1.060  0.00  0.00    -0.046 A 
ATOM     18  C   UNL     1       4.540  -3.372   2.349  0.00  0.00    +0.004 A 
ATOM     19  C   UNL     1       4.308  -4.718   2.560  0.00  0.00    +0.000 A 
ATOM     20  C   UNL     1       4.176  -5.574   1.483  0.00  0.00    +0.000 A 
ATOM     21  C   UNL     1       4.276  -5.084   0.194  0.00  0.00    +0.000 A 
ATOM     22  C   UNL     1       4.508  -3.737  -0.017  0.00  0.00    +0.004 A 
ENDBRANCH  16  17
ENDBRANCH  15  16
ENDBRANCH  14  15
ENDBRANCH   9  10
BRANCH   9  23
ATOM     23  C   UNL     1       5.401   0.678  -2.701  0.00  0.00    -0.008 C 
BRANCH  23  25
ATOM     24  C   UNL     1       4.036   0.468  -4.784  0.00  0.00    +0.004 C 
ATOM     25  C   UNL     1       5.258  -0.064  -4.032  0.00  0.00    -0.005 C 
ENDBRANCH  23  25
ENDBRANCH   9  23
ENDBRANCH   1   9
BRANCH   1  26
ATOM     26  C   UNL     1       8.099   2.073  -2.693  0.00  0.00    -0.036 C 
BRANCH  26  27
ATOM     27  C   UNL     1       8.989   2.522  -3.823  0.00  0.00    +0.001 A 
ATOM     28  C   UNL     1       8.441   3.038  -4.951  0.00  0.00    +0.017 A 
ATOM     29  C   UNL     1       9.333   3.465  -6.030  0.00  0.00    -0.001 A 
ATOM     30  C   UNL     1       8.826   4.006  -7.217  0.00  0.00    +0.013 A 
ATOM     31  C   UNL     1       9.685   4.394  -8.205  0.00  0.00    -0.050 A 
ATOM     32  C   UNL     1      11.057   4.257  -8.042  0.00  0.00    +0.005 A 
ATOM     33  C   UNL     1      11.579   3.728  -6.882  0.00  0.00    +0.026 A 
ATOM     34  C   UNL     1      10.723   3.324  -5.862  0.00  0.00    +0.049 A 
ATOM     35  N   UNL     1      11.218   2.792  -4.690  0.00  0.00    -0.322 N 
ATOM     36  H   UNL     1      12.176   2.696  -4.576  0.00  0.00    +0.169 HD
ATOM     37  C   UNL     1      10.391   2.408  -3.702  0.00  0.00    +0.251 A 
ATOM     38  O   UNL     1      10.863   1.945  -2.678  0.00  0.00    -0.268 OA
ATOM     39  C   UNL     1       9.139   4.976  -9.483  0.00  0.00    +0.044 C 
ENDBRANCH  26  27
ENDBRANCH   1  26
TORSDOF 10
