REMARK  Name = ZINC38705729
REMARK  18 active torsions:
REMARK  status: ('A' for Active; 'I' for Inactive)
REMARK    1  A    between atoms: C_1  and  C_2
REMARK    2  A    between atoms: C_2  and  C_3
REMARK    3  A    between atoms: C_3  and  C_4
REMARK    4  A    between atoms: C_4  and  C_5
REMARK    5  A    between atoms: C_5  and  O_6
REMARK    6  A    between atoms: O_6  and  C_7
REMARK    7  A    between atoms: C_11  and  C_13
REMARK    8  A    between atoms: C_16  and  C_31
REMARK    9  A    between atoms: N_23  and  C_24
REMARK   10  A    between atoms: C_24  and  C_25
REMARK   11  A    between atoms: C_25  and  C_26
REMARK   12  A    between atoms: C_26  and  O_27
REMARK   13  A    between atoms: O_27  and  C_28
REMARK   14  A    between atoms: C_28  and  C_29
REMARK   15  A    between atoms: C_28  and  C_30
REMARK   16  A    between atoms: C_32  and  C_39
REMARK   17  A    between atoms: C_34  and  C_38
REMARK   18  A    between atoms: C_36  and  O_37
REMARK                            x       y       z     vdW  Elec       q    Type
REMARK                         _______ _______ _______ _____ _____    ______ ____
ROOT
ATOM      1  C   UNL     1      -5.354  -8.213   0.025  0.00  0.00    +0.141 C 
ATOM      2  C   UNL     1      -5.814  -8.698  -1.323  0.00  0.00    +0.035 A 
ATOM      3  C   UNL     1      -5.574  -8.758  -2.699  0.00  0.00    +0.102 A 
ATOM      4  N   UNL     1      -6.560  -9.444  -3.243  0.00  0.00    -0.173 NA
ATOM      5  N   UNL     1      -7.399  -9.822  -2.346  0.00  0.00    -0.272 N 
ATOM      6  H   UNL     1      -8.202 -10.340  -2.517  0.00  0.00    +0.189 HD
ATOM      7  C   UNL     1      -6.993  -9.388  -1.116  0.00  0.00    +0.126 A 
ATOM      8  C   UNL     1      -7.303  -9.363   0.318  0.00  0.00    +0.265 C 
ATOM      9  O   UNL     1      -8.278  -9.883   0.827  0.00  0.00    -0.268 OA
ATOM     10  N   UNL     1      -6.356  -8.682   0.991  0.00  0.00    -0.285 N 
ENDROOT
BRANCH   3  11
ATOM     11  C   UNL     1      -4.420  -8.159  -3.417  0.00  0.00    +0.047 A 
ATOM     12  C   UNL     1      -4.631  -7.374  -4.547  0.00  0.00    -0.037 A 
ATOM     13  C   UNL     1      -3.556  -6.819  -5.211  0.00  0.00    +0.007 A 
ATOM     14  C   UNL     1      -2.267  -7.040  -4.757  0.00  0.00    -0.047 A 
ATOM     15  C   UNL     1      -2.047  -7.819  -3.636  0.00  0.00    +0.049 A 
ATOM     16  C   UNL     1      -3.119  -8.376  -2.957  0.00  0.00    +0.127 A 
ATOM     17  C   UNL     1      -1.099  -6.431  -5.488  0.00  0.00    +0.044 C 
ATOM     18  C   UNL     1      -6.032  -7.130  -5.046  0.00  0.00    +0.044 C 
BRANCH  16  19
ATOM     19  O   UNL     1      -2.904  -9.136  -1.851  0.00  0.00    -0.506 OA
ATOM     20  H   UNL     1      -2.707 -10.063  -2.044  0.00  0.00    +0.292 HD
ENDBRANCH  16  19
ENDBRANCH   3  11
BRANCH   1  25
ATOM     21  C   UNL     1      -3.997  -4.688   0.133  0.00  0.00    +0.121 A 
ATOM     22  C   UNL     1      -5.165  -3.942   0.065  0.00  0.00    +0.045 A 
ATOM     23  C   UNL     1      -6.387  -4.581  -0.015  0.00  0.00    +0.004 A 
ATOM     24  C   UNL     1      -6.447  -5.962  -0.029  0.00  0.00    +0.006 A 
ATOM     25  C   UNL     1      -5.285  -6.708   0.039  0.00  0.00    -0.019 A 
ATOM     26  C   UNL     1      -4.060  -6.074   0.114  0.00  0.00    +0.051 A 
BRANCH  21  27
ATOM     27  O   UNL     1      -2.793  -4.062   0.212  0.00  0.00    -0.492 OA
BRANCH  27  28
ATOM     28  C   UNL     1      -2.805  -2.634   0.227  0.00  0.00    +0.229 C 
BRANCH  28  29
ATOM     29  C   UNL     1      -1.369  -2.113   0.318  0.00  0.00    +0.041 C 
BRANCH  29  30
ATOM     30  C   UNL     1      -1.382  -0.583   0.334  0.00  0.00    +0.003 C 
BRANCH  30  32
ATOM     31  C   UNL     1       0.042   1.468   0.441  0.00  0.00    +0.004 C 
ATOM     32  C   UNL     1       0.054  -0.062   0.426  0.00  0.00    -0.003 C 
ENDBRANCH  30  32
ENDBRANCH  29  30
ENDBRANCH  28  29
ENDBRANCH  27  28
ENDBRANCH  21  27
ENDBRANCH   1  25
BRANCH  10  33
ATOM     33  C   UNL     1      -6.329  -8.449   2.437  0.00  0.00    +0.111 C 
BRANCH  33  34
ATOM     34  C   UNL     1      -7.067  -7.148   2.758  0.00  0.00    +0.047 C 
BRANCH  34  35
ATOM     35  C   UNL     1      -7.039  -6.904   4.268  0.00  0.00    +0.161 C 
BRANCH  35  36
ATOM     36  O   UNL     1      -7.728  -5.689   4.568  0.00  0.00    -0.377 OA
BRANCH  36  37
ATOM     37  C   UNL     1      -7.760  -5.367   5.960  0.00  0.00    +0.112 C 
ATOM     38  C   UNL     1      -7.802  -3.847   6.131  0.00  0.00    +0.037 C 
ATOM     39  C   UNL     1      -9.005  -5.986   6.598  0.00  0.00    +0.037 C 
ENDBRANCH  36  37
ENDBRANCH  35  36
ENDBRANCH  34  35
ENDBRANCH  33  34
ENDBRANCH  10  33
TORSDOF 13
