REMARK  Name = ZINC59990107
REMARK  10 active torsions:
REMARK  status: ('A' for Active; 'I' for Inactive)
REMARK    1  A    between atoms: C_1  and  C_2
REMARK    2  A    between atoms: C_5  and  C_31
REMARK    3  A    between atoms: N_8  and  C_10
REMARK    4  A    between atoms: C_10  and  C_11
REMARK    5  A    between atoms: C_10  and  C_12
REMARK    6  A    between atoms: C_10  and  C_13
REMARK    7  A    between atoms: C_13  and  N_14
REMARK    8  A    between atoms: C_15  and  C_17
REMARK    9  A    between atoms: C_17  and  N_18
REMARK   10  A    between atoms: C_19  and  C_21
REMARK                            x       y       z     vdW  Elec       q    Type
REMARK                         _______ _______ _______ _____ _____    ______ ____
ROOT
ATOM      1  N   UNL     1       0.625  -0.480   3.560  0.00  0.00    -0.315 N 
ATOM      2  C   UNL     1      -0.331  -0.065   4.415  0.00  0.00    +0.230 C 
ATOM      3  O   UNL     1      -0.087   0.809   5.220  0.00  0.00    -0.274 OA
ATOM      4  H   UNL     1       0.430  -1.178   2.916  0.00  0.00    +0.149 HD
ENDROOT
BRANCH   1   5
ATOM      5  C   UNL     1       1.959   0.125   3.603  0.00  0.00    +0.092 C 
BRANCH   5   6
ATOM      6  C   UNL     1       2.882  -0.607   2.627  0.00  0.00    -0.055 C 
ATOM      7  C   UNL     1       4.296  -0.032   2.734  0.00  0.00    -0.008 C 
ATOM      8  C   UNL     1       2.363  -0.424   1.199  0.00  0.00    -0.008 C 
BRANCH   6  14
ATOM      9  C   UNL     1       1.893  -4.204   4.599  0.00  0.00    +0.005 C 
ATOM     10  C   UNL     1       3.330  -3.692   4.717  0.00  0.00    -0.031 C 
ATOM     11  C   UNL     1       4.235  -4.483   3.768  0.00  0.00    +0.003 C 
ATOM     12  C   UNL     1       3.784  -4.237   2.325  0.00  0.00    -0.031 C 
ATOM     13  C   UNL     1       3.814  -2.735   2.036  0.00  0.00    -0.075 C 
ATOM     14  N   UNL     1       2.909  -2.038   2.958  0.00  0.00    +0.384 N 
ATOM     15  C   UNL     1       3.377  -2.209   4.340  0.00  0.00    -0.075 C 
ATOM     16  C   UNL     1       4.729  -4.962   1.364  0.00  0.00    +0.005 C 
ATOM     17  H   UNL     1       1.980  -2.420   2.869  0.00  0.00    -0.081 HD
ENDBRANCH   6  14
ENDBRANCH   5   6
ENDBRANCH   1   5
BRANCH   2  18
ATOM     18  C   UNL     1      -1.703  -0.687   4.370  0.00  0.00    +0.200 C 
BRANCH  18  19
ATOM     19  N   UNL     1      -2.553  -0.068   5.391  0.00  0.00    -0.306 N 
ATOM     20  C   UNL     1      -3.831  -0.469   5.537  0.00  0.00    +0.220 C 
ATOM     21  O   UNL     1      -4.278  -1.341   4.823  0.00  0.00    -0.275 OA
ATOM     22  H   UNL     1      -2.195   0.630   5.962  0.00  0.00    +0.149 HD
BRANCH  20  23
ATOM     23  C   UNL     1      -4.705   0.167   6.587  0.00  0.00    +0.048 C 
ATOM     24  C   UNL     1      -4.817   1.669   6.316  0.00  0.00    +0.019 C 
ATOM     25  C   UNL     1      -5.704   2.315   7.382  0.00  0.00    -0.009 C 
ATOM     26  C   UNL     1      -7.097   1.683   7.337  0.00  0.00    +0.007 C 
ATOM     27  C   UNL     1      -6.986   0.182   7.608  0.00  0.00    -0.009 C 
ATOM     28  C   UNL     1      -6.098  -0.464   6.542  0.00  0.00    +0.019 C 
ATOM     29  C   UNL     1      -6.368  -0.043   8.989  0.00  0.00    +0.007 C 
ATOM     30  C   UNL     1      -4.975   0.589   9.034  0.00  0.00    -0.009 C 
ATOM     31  C   UNL     1      -5.087   2.090   8.764  0.00  0.00    +0.007 C 
ATOM     32  C   UNL     1      -4.088  -0.057   7.968  0.00  0.00    +0.019 C 
ENDBRANCH  20  23
ENDBRANCH  18  19
ENDBRANCH   2  18
TORSDOF 6
