REMARK  Name = ZINC49571242
REMARK  6 active torsions:
REMARK  status: ('A' for Active; 'I' for Inactive)
REMARK    1  A    between atoms: C_1  and  C_2
REMARK    2  A    between atoms: C_2  and  C_4
REMARK    3  A    between atoms: C_2  and  N_11
REMARK    4  A    between atoms: C_4  and  C_5
REMARK    5  A    between atoms: C_5  and  C_6
REMARK    6  A    between atoms: C_18  and  C_21
REMARK                            x       y       z     vdW  Elec       q    Type
REMARK                         _______ _______ _______ _____ _____    ______ ____
ROOT
ATOM      1  N   UNL     1       0.688  -0.476  -1.204  0.00  0.00    -0.297 N 
ATOM      2  C   UNL     1       0.006  -0.608  -2.358  0.00  0.00    +0.302 C 
ATOM      3  O   UNL     1      -1.195  -0.423  -2.380  0.00  0.00    -0.253 OA
ATOM      4  N   UNL     1       0.656  -0.945  -3.490  0.00  0.00    -0.285 N 
ATOM      5  C   UNL     1      -0.051  -0.980  -4.777  0.00  0.00    +0.109 C 
ATOM      6  C   UNL     1       0.710  -0.109  -5.782  0.00  0.00    +0.020 C 
ATOM      7  C   UNL     1       2.167  -0.572  -5.852  0.00  0.00    +0.018 C 
ATOM      8  C   UNL     1       2.822  -0.410  -4.478  0.00  0.00    +0.119 C 
ATOM      9  C   UNL     1       2.087  -1.279  -3.460  0.00  0.00    +0.124 C 
ATOM     10  H   UNL     1       1.632  -0.695  -1.170  0.00  0.00    +0.151 HD
ENDROOT
BRANCH   8  11
ATOM     11  C   UNL     1       4.266  -0.835  -4.556  0.00  0.00    +0.361 C 
ATOM     12  O   UNL     1       5.121  -0.201  -3.962  0.00  0.00    -0.246 OA
ATOM     13  O   UNL     1       4.579  -1.813  -5.213  0.00  0.00    -0.246 OA
ENDBRANCH   8  11
BRANCH   1  15
ATOM     14  C   UNL     1      -0.017   1.528   0.008  0.00  0.00    +0.028 C 
ATOM     15  C   UNL     1       0.003  -0.002   0.001  0.00  0.00    +0.072 C 
BRANCH  15  16
ATOM     16  C   UNL     1       0.742  -0.508   1.241  0.00  0.00    +0.030 C 
BRANCH  16  17
ATOM     17  C   UNL     1       0.655  -2.034   1.300  0.00  0.00    +0.076 C 
BRANCH  17  18
ATOM     18  C   UNL     1       1.383  -2.533   2.521  0.00  0.00    +0.105 A 
ATOM     19  C   UNL     1       0.841  -2.723   3.738  0.00  0.00    +0.044 A 
ATOM     20  C   UNL     1       1.876  -3.195   4.578  0.00  0.00    +0.041 A 
ATOM     21  C   UNL     1       2.988  -3.264   3.825  0.00  0.00    +0.195 A 
ATOM     22  O   UNL     1       2.682  -2.868   2.579  0.00  0.00    -0.468 OA
ENDBRANCH  17  18
ENDBRANCH  16  17
ENDBRANCH  15  16
ENDBRANCH   1  15
TORSDOF 5
