REMARK  Name = ZINC54093963
REMARK  7 active torsions:
REMARK  status: ('A' for Active; 'I' for Inactive)
REMARK    1  A    between atoms: C_1  and  N_2
REMARK    2  A    between atoms: N_2  and  C_3
REMARK    3  A    between atoms: C_3  and  C_4
REMARK    4  A    between atoms: N_11  and  C_12
REMARK    5  A    between atoms: C_12  and  C_13
REMARK    6  A    between atoms: C_18  and  C_19
REMARK    7  A    between atoms: C_19  and  N_20
REMARK                            x       y       z     vdW  Elec       q    Type
REMARK                         _______ _______ _______ _____ _____    ______ ____
ROOT
ATOM      1  C   UNL     1      -0.022  -0.717  -3.605  0.00  0.00    +0.141 C 
ENDROOT
BRANCH   1   6
ATOM      2  C   UNL     1      -0.018   1.461   0.010  0.00  0.00    +0.134 C 
ATOM      3  N   UNL     1       0.002  -0.004   0.002  0.00  0.00    -0.281 N 
ATOM      4  C   UNL     1       0.000  -0.672  -1.169  0.00  0.00    +0.303 C 
ATOM      5  O   UNL     1       0.017  -1.887  -1.175  0.00  0.00    -0.253 OA
ATOM      6  N   UNL     1      -0.020   0.009  -2.332  0.00  0.00    -0.295 N 
ATOM      7  H   UNL     1      -0.033   0.978  -2.327  0.00  0.00    +0.151 HD
BRANCH   3   8
ATOM      8  C   UNL     1       0.024  -0.743   1.267  0.00  0.00    +0.183 C 
BRANCH   8   9
ATOM      9  C   UNL     1      -1.389  -1.016   1.714  0.00  0.00    +0.122 A 
ATOM     10  C   UNL     1      -2.117  -2.103   1.401  0.00  0.00    +0.046 A 
ATOM     11  C   UNL     1      -3.375  -1.948   2.027  0.00  0.00    +0.041 A 
ATOM     12  C   UNL     1      -3.340  -0.775   2.686  0.00  0.00    +0.195 A 
ATOM     13  O   UNL     1      -2.133  -0.218   2.497  0.00  0.00    -0.466 OA
ENDBRANCH   8   9
ENDBRANCH   3   8
ENDBRANCH   1   6
BRANCH   1  14
ATOM     14  C   UNL     1      -0.047   0.268  -4.745  0.00  0.00    -0.025 A 
ATOM     15  C   UNL     1      -1.237   0.551  -5.389  0.00  0.00    +0.005 A 
ATOM     16  C   UNL     1      -1.259   1.455  -6.434  0.00  0.00    +0.000 A 
ATOM     17  C   UNL     1      -0.091   2.076  -6.836  0.00  0.00    +0.000 A 
ATOM     18  C   UNL     1       1.099   1.794  -6.192  0.00  0.00    +0.006 A 
ATOM     19  C   UNL     1       1.120   0.893  -5.143  0.00  0.00    -0.021 A 
BRANCH  19  20
ATOM     20  C   UNL     1       2.416   0.590  -4.437  0.00  0.00    +0.178 C 
BRANCH  20  21
ATOM     21  N   UNL     1       3.023  -0.608  -5.024  0.00  0.00    -0.267 N 
ATOM     22  C   UNL     1       4.273  -0.700  -5.525  0.00  0.00    +0.108 A 
ATOM     23  C   UNL     1       4.447  -1.966  -5.968  0.00  0.00    +0.041 A 
ATOM     24  C   UNL     1       3.263  -2.672  -5.730  0.00  0.00    +0.134 A 
ATOM     25  N   UNL     1       2.411  -1.860  -5.159  0.00  0.00    -0.179 NA
ENDBRANCH  20  21
ENDBRANCH  19  20
ENDBRANCH   1  14
TORSDOF 6
