REMARK  Name = ZINC15207441
REMARK  5 active torsions:
REMARK  status: ('A' for Active; 'I' for Inactive)
REMARK    1  A    between atoms: C_6  and  N_7
REMARK    2  A    between atoms: N_10  and  C_13
REMARK    3  A    between atoms: C_16  and  N_23
REMARK    4  A    between atoms: C_18  and  S_19
REMARK    5  A    between atoms: S_19  and  N_22
REMARK                            x       y       z     vdW  Elec       q    Type
REMARK                         _______ _______ _______ _____ _____    ______ ____
ROOT
ATOM      1  C   UNL     1       1.577   7.467  -1.105  0.00  0.00    +0.057 A 
ATOM      2  C   UNL     1       0.864   8.145  -0.124  0.00  0.00    +0.027 A 
ATOM      3  C   UNL     1       0.932   9.522  -0.050  0.00  0.00    +0.034 A 
ATOM      4  C   UNL     1       1.710  10.226  -0.951  0.00  0.00    +0.128 A 
ATOM      5  C   UNL     1       2.421   9.555  -1.928  0.00  0.00    +0.063 A 
ATOM      6  C   UNL     1       2.361   8.177  -2.004  0.00  0.00    +0.128 A 
ENDROOT
BRANCH   1  10
ATOM      7  N   UNL     1       0.678   3.480  -0.356  0.00  0.00    -0.327 N 
ATOM      8  C   UNL     1       0.109   4.102  -1.560  0.00  0.00    +0.124 C 
ATOM      9  C   UNL     1       0.128   5.625  -1.401  0.00  0.00    +0.124 C 
ATOM     10  N   UNL     1       1.510   6.074  -1.183  0.00  0.00    -0.325 N 
ATOM     11  C   UNL     1       2.080   5.451   0.021  0.00  0.00    +0.124 C 
ATOM     12  C   UNL     1       2.060   3.929  -0.138  0.00  0.00    +0.124 C 
BRANCH   7  18
ATOM     13  C   UNL     1      -0.611   1.458  -0.638  0.00  0.00    +0.026 A 
ATOM     14  C   UNL     1      -0.675   0.081  -0.716  0.00  0.00    +0.040 A 
ATOM     15  C   UNL     1       0.479  -0.675  -0.590  0.00  0.00    +0.124 A 
ATOM     16  C   UNL     1       1.698  -0.052  -0.386  0.00  0.00    +0.040 A 
ATOM     17  C   UNL     1       1.767   1.325  -0.308  0.00  0.00    +0.026 A 
ATOM     18  C   UNL     1       0.611   2.085  -0.434  0.00  0.00    +0.030 A 
ATOM     19  F   UNL     1       0.414  -2.022  -0.665  0.00  0.00    -0.205 F 
ENDBRANCH   7  18
ENDBRANCH   1  10
BRANCH   6  20
ATOM     20  S   UNL     1       3.273   7.323  -3.246  0.00  0.00    +0.058 S 
ATOM     21  O   UNL     1       2.369   6.416  -3.863  0.00  0.00    -0.153 OA
ATOM     22  O   UNL     1       3.982   8.310  -3.982  0.00  0.00    -0.153 OA
BRANCH  20  23
ATOM     23  N   UNL     1       4.411   6.402  -2.471  0.00  0.00    -0.203 NA
ATOM     24  H   UNL     1       4.424   6.361  -1.502  0.00  0.00    +0.144 HD
ATOM     25  H   UNL     1       5.065   5.904  -2.986  0.00  0.00    +0.144 HD
ENDBRANCH  20  23
ENDBRANCH   6  20
BRANCH   4  26
ATOM     26  N   UNL     1       1.781  11.703  -0.868  0.00  0.00    +0.056 N 
ATOM     27  O   UNL     1       1.155  12.295  -0.007  0.00  0.00    -0.126 OA
ATOM     28  O   UNL     1       2.465  12.325  -1.661  0.00  0.00    -0.126 OA
ENDBRANCH   4  26
TORSDOF 5
