REMARK  Name = ZINC08800376
REMARK  8 active torsions:
REMARK  status: ('A' for Active; 'I' for Inactive)
REMARK    1  A    between atoms: C_1  and  N_2
REMARK    2  A    between atoms: C_10  and  C_12
REMARK    3  A    between atoms: C_12  and  C_14
REMARK    4  A    between atoms: C_12  and  N_63
REMARK    5  A    between atoms: C_14  and  N_15
REMARK    6  A    between atoms: N_15  and  S_16
REMARK    7  A    between atoms: S_16  and  C_19
REMARK    8  A    between atoms: C_19  and  C_20
REMARK                            x       y       z     vdW  Elec       q    Type
REMARK                         _______ _______ _______ _____ _____    ______ ____
ROOT
ATOM      1  C   UNL     1      -1.210   3.383  -3.245  0.00  0.00    -0.022 C 
ENDROOT
BRANCH   1  11
ATOM      2  C   UNL     1       0.176   9.328  -4.882  0.00  0.00    +0.129 C 
ATOM      3  N   UNL     1      -1.063   8.979  -4.173  0.00  0.00    -0.333 N 
ATOM      4  C   UNL     1      -2.232   9.530  -4.860  0.00  0.00    +0.105 C 
ATOM      5  C   UNL     1      -3.494   9.114  -4.093  0.00  0.00    +0.024 C 
ATOM      6  C   UNL     1      -3.663   7.601  -4.250  0.00  0.00    +0.038 C 
ATOM      7  C   UNL     1      -2.348   6.913  -3.979  0.00  0.00    -0.026 A 
ATOM      8  C   UNL     1      -1.149   7.604  -3.963  0.00  0.00    +0.033 A 
ATOM      9  C   UNL     1       0.038   6.911  -3.717  0.00  0.00    +0.023 A 
ATOM     10  C   UNL     1       0.017   5.552  -3.487  0.00  0.00    +0.004 A 
ATOM     11  C   UNL     1      -1.184   4.868  -3.499  0.00  0.00    -0.059 A 
ATOM     12  C   UNL     1      -2.360   5.547  -3.750  0.00  0.00    +0.007 A 
ENDBRANCH   1  11
BRANCH   1  18
ATOM     13  C   UNL     1      -0.548   1.415  -4.492  0.00  0.00    -0.078 C 
ATOM     14  C   UNL     1       0.541   0.837  -5.398  0.00  0.00    -0.019 C 
ATOM     15  C   UNL     1       1.848   0.722  -4.608  0.00  0.00    -0.004 C 
ATOM     16  C   UNL     1       2.234   2.104  -4.072  0.00  0.00    -0.019 C 
ATOM     17  C   UNL     1       1.096   2.646  -3.204  0.00  0.00    -0.078 C 
ATOM     18  N   UNL     1      -0.126   2.755  -4.029  0.00  0.00    +0.385 N 
ATOM     19  H   UNL     1       0.076   3.341  -4.848  0.00  0.00    -0.081 HD
ENDBRANCH   1  18
BRANCH   1  20
ATOM     20  C   UNL     1      -1.010   3.117  -1.752  0.00  0.00    +0.095 C 
BRANCH  20  21
ATOM     21  N   UNL     1      -1.040   1.674  -1.504  0.00  0.00    -0.195 NA
ATOM     22  H   UNL     1      -1.433   1.077  -2.159  0.00  0.00    +0.148 HD
BRANCH  21  23
ATOM     23  S   UNL     1      -0.400   1.060  -0.105  0.00  0.00    +0.033 S 
ATOM     24  O   UNL     1      -0.576  -0.346  -0.212  0.00  0.00    -0.158 OA
ATOM     25  O   UNL     1       0.902   1.623  -0.024  0.00  0.00    -0.158 OA
BRANCH  23  26
ATOM     26  C   UNL     1      -1.450   1.723   1.217  0.00  0.00    +0.220 C 
BRANCH  26  27
ATOM     27  C   UNL     1      -0.955   1.224   2.550  0.00  0.00    -0.025 A 
ATOM     28  C   UNL     1      -1.448   0.044   3.073  0.00  0.00    +0.008 A 
ATOM     29  C   UNL     1      -0.991  -0.417   4.293  0.00  0.00    +0.038 A 
ATOM     30  C   UNL     1      -0.045   0.309   4.997  0.00  0.00    +0.123 A 
ATOM     31  C   UNL     1       0.445   1.494   4.474  0.00  0.00    +0.038 A 
ATOM     32  C   UNL     1      -0.010   1.950   3.252  0.00  0.00    +0.008 A 
ATOM     33  F   UNL     1       0.399  -0.138   6.191  0.00  0.00    -0.205 F 
ENDBRANCH  26  27
ENDBRANCH  23  26
ENDBRANCH  21  23
ENDBRANCH  20  21
ENDBRANCH   1  20
TORSDOF 7
