REMARK  Name = ZINC09962725
REMARK  12 active torsions:
REMARK  status: ('A' for Active; 'I' for Inactive)
REMARK    1  A    between atoms: C_1  and  C_2
REMARK    2  A    between atoms: C_2  and  O_3
REMARK    3  A    between atoms: O_3  and  C_4
REMARK    4  A    between atoms: C_4  and  C_6
REMARK    5  A    between atoms: C_7  and  C_15
REMARK    6  A    between atoms: C_12  and  C_14
REMARK    7  A    between atoms: C_15  and  S_16
REMARK    8  A    between atoms: S_16  and  C_17
REMARK    9  A    between atoms: C_20  and  C_30
REMARK   10  A    between atoms: N_21  and  C_22
REMARK   11  A    between atoms: C_27  and  O_28
REMARK   12  A    between atoms: O_28  and  C_29
REMARK                            x       y       z     vdW  Elec       q    Type
REMARK                         _______ _______ _______ _____ _____    ______ ____
ROOT
ATOM      1  C   UNL     1       4.608   0.091  -0.196  0.00  0.00    +0.197 A 
ATOM      2  N   UNL     1       4.357  -1.122   0.240  0.00  0.00    -0.122 NA
ATOM      3  N   UNL     1       3.091  -1.296   0.367  0.00  0.00    -0.127 NA
ATOM      4  C   UNL     1       2.449  -0.204   0.011  0.00  0.00    +0.176 A 
ATOM      5  N   UNL     1       3.403   0.721  -0.358  0.00  0.00    -0.266 N 
ENDROOT
BRANCH   5   6
ATOM      6  C   UNL     1       3.184   2.033  -0.806  0.00  0.00    +0.092 A 
ATOM      7  C   UNL     1       3.124   3.078   0.105  0.00  0.00    +0.030 A 
ATOM      8  C   UNL     1       2.914   4.370  -0.339  0.00  0.00    +0.002 A 
ATOM      9  C   UNL     1       2.752   4.623  -1.689  0.00  0.00    +0.004 A 
ATOM     10  C   UNL     1       2.806   3.586  -2.602  0.00  0.00    +0.048 A 
ATOM     11  C   UNL     1       3.021   2.289  -2.165  0.00  0.00    +0.144 A 
BRANCH  11  12
ATOM     12  O   UNL     1       3.074   1.268  -3.061  0.00  0.00    -0.493 OA
ATOM     13  C   UNL     1       2.899   1.605  -4.439  0.00  0.00    +0.277 C 
ENDBRANCH  11  12
ENDBRANCH   5   6
BRANCH   4  14
ATOM     14  C   UNL     1       0.991  -0.005   0.012  0.00  0.00    +0.057 A 
ATOM     15  C   UNL     1      -0.009  -0.941   0.094  0.00  0.00    +0.019 A 
ATOM     16  C   UNL     1      -1.317  -0.514   0.070  0.00  0.00    +0.008 A 
ATOM     17  C   UNL     1      -1.578   0.816  -0.023  0.00  0.00    +0.046 A 
ATOM     18  S   UNL     1       0.063   1.516  -0.094  0.00  0.00    -0.094 S 
ENDBRANCH   4  14
BRANCH   1  19
ATOM     19  S   UNL     1       6.198   0.781  -0.512  0.00  0.00    -0.080 S 
BRANCH  19  20
ATOM     20  C   UNL     1       7.245  -0.628  -0.071  0.00  0.00    +0.128 C 
BRANCH  20  22
ATOM     21  C   UNL     1       9.436   0.108   0.797  0.00  0.00    +0.074 C 
ATOM     22  C   UNL     1       8.693  -0.260  -0.269  0.00  0.00    +0.034 C 
ATOM     23  N   UNL     1       9.233  -0.309  -1.522  0.00  0.00    -0.272 N 
ATOM     24  C   UNL     1      10.506   0.005  -1.795  0.00  0.00    +0.304 C 
ATOM     25  O   UNL     1      10.896  -0.064  -2.944  0.00  0.00    -0.253 OA
ATOM     26  N   UNL     1      11.371   0.390  -0.835  0.00  0.00    -0.292 N 
ATOM     27  C   UNL     1      10.887   0.469   0.553  0.00  0.00    +0.110 C 
ATOM     28  C   UNL     1      11.106   1.901   1.047  0.00  0.00    +0.033 C 
ATOM     29  H   UNL     1       8.662  -0.582  -2.257  0.00  0.00    +0.156 HD
ATOM     30  H   UNL     1      12.290   0.609  -1.054  0.00  0.00    +0.151 HD
BRANCH  21  31
ATOM     31  C   UNL     1       8.879   0.153   2.096  0.00  0.00    +0.338 C 
ATOM     32  O   UNL     1       7.682  -0.002   2.251  0.00  0.00    -0.245 OA
BRANCH  31  33
ATOM     33  O   UNL     1       9.675   0.367   3.164  0.00  0.00    -0.462 OA
BRANCH  33  35
ATOM     34  C   UNL     1      10.100   0.653   5.526  0.00  0.00    +0.048 C 
ATOM     35  C   UNL     1       9.046   0.401   4.447  0.00  0.00    +0.229 C 
ENDBRANCH  33  35
ENDBRANCH  31  33
ENDBRANCH  21  31
ENDBRANCH  20  22
ENDBRANCH  19  20
ENDBRANCH   1  19
TORSDOF 9
