REMARK  Name = ZINC62856745
REMARK  5 active torsions:
REMARK  status: ('A' for Active; 'I' for Inactive)
REMARK    1  A    between atoms: C_1  and  C_2
REMARK    2  A    between atoms: C_2  and  C_8
REMARK    3  A    between atoms: C_13  and  N_16
REMARK    4  A    between atoms: N_16  and  S_17
REMARK    5  A    between atoms: S_17  and  C_20
REMARK                            x       y       z     vdW  Elec       q    Type
REMARK                         _______ _______ _______ _____ _____    ______ ____
ROOT
ATOM      1  C   UNL     1      -1.445  -0.423  -0.049  0.00  0.00    +0.220 C 
ATOM      2  O   UNL     1      -1.920  -1.072   0.859  0.00  0.00    -0.275 OA
ATOM      3  N   UNL     1      -2.206  -0.089  -1.109  0.00  0.00    -0.301 N 
ATOM      4  C   UNL     1      -1.614   0.583  -2.274  0.00  0.00    +0.109 C 
ATOM      5  C   UNL     1      -2.407   1.861  -2.563  0.00  0.00    +0.039 C 
ATOM      6  C   UNL     1      -3.888   1.513  -2.724  0.00  0.00    +0.079 C 
ATOM      7  C   UNL     1      -4.414   0.901  -1.424  0.00  0.00    +0.039 C 
ATOM      8  C   UNL     1      -3.643  -0.394  -1.125  0.00  0.00    +0.109 C 
ENDROOT
BRANCH   1  10
ATOM      9  C   UNL     1       0.763  -0.604  -1.166  0.00  0.00    +0.019 C 
ATOM     10  C   UNL     1      -0.002   0.009   0.009  0.00  0.00    +0.029 C 
ATOM     11  C   UNL     1       0.621  -0.462   1.327  0.00  0.00    +0.012 C 
ATOM     12  C   UNL     1      -0.101   0.219   2.493  0.00  0.00    -0.018 C 
ATOM     13  C   UNL     1      -0.018   1.737   2.322  0.00  0.00    -0.083 C 
ATOM     14  N   UNL     1      -0.653   2.126   1.057  0.00  0.00    +0.380 N 
ATOM     15  C   UNL     1       0.078   1.535  -0.070  0.00  0.00    -0.067 C 
ATOM     16  H   UNL     1      -1.607   1.798   1.047  0.00  0.00    -0.086 HD
ATOM     17  H   UNL     1      -0.644   3.131   0.973  0.00  0.00    -0.086 HD
ENDBRANCH   1  10
BRANCH   6  18
ATOM     18  N   UNL     1      -4.645   2.729  -3.033  0.00  0.00    -0.192 NA
ATOM     19  H   UNL     1      -4.384   3.576  -2.638  0.00  0.00    +0.148 HD
BRANCH  18  20
ATOM     20  S   UNL     1      -5.946   2.657  -4.055  0.00  0.00    +0.027 S 
ATOM     21  O   UNL     1      -6.412   3.997  -4.142  0.00  0.00    -0.158 OA
ATOM     22  O   UNL     1      -5.464   1.981  -5.208  0.00  0.00    -0.158 OA
ATOM     23  C   UNL     1      -7.162   1.627  -3.189  0.00  0.00    +0.214 C 
ENDBRANCH  18  20
ENDBRANCH   6  18
TORSDOF 3
