REMARK  Name = ZINC35006063
REMARK  15 active torsions:
REMARK  status: ('A' for Active; 'I' for Inactive)
REMARK    1  A    between atoms: C_1  and  C_2
REMARK    2  A    between atoms: C_2  and  C_3
REMARK    3  A    between atoms: C_2  and  C_4
REMARK    4  A    between atoms: C_2  and  C_5
REMARK    5  A    between atoms: C_8  and  S_11
REMARK    6  A    between atoms: S_11  and  N_14
REMARK    7  A    between atoms: N_17  and  C_20
REMARK    8  A    between atoms: C_20  and  C_21
REMARK    9  A    between atoms: C_21  and  N_22
REMARK   10  A    between atoms: N_22  and  C_23
REMARK   11  A    between atoms: C_23  and  C_24
REMARK   12  A    between atoms: N_33  and  C_34
REMARK   13  A    between atoms: C_34  and  C_35
REMARK   14  A    between atoms: C_34  and  C_36
REMARK   15  A    between atoms: C_34  and  C_37
REMARK                            x       y       z     vdW  Elec       q    Type
REMARK                         _______ _______ _______ _____ _____    ______ ____
ROOT
ATOM      1  N   UNL     1       2.580  -0.816  -6.143  0.00  0.00    -0.174 NA
ATOM      2  C   UNL     1       1.415  -0.899  -7.038  0.00  0.00    +0.125 C 
ATOM      3  C   UNL     1       0.701   0.456  -7.033  0.00  0.00    +0.101 C 
ATOM      4  N   UNL     1       1.664   1.515  -7.364  0.00  0.00    -0.298 NA
ATOM      5  C   UNL     1       2.722   1.609  -6.349  0.00  0.00    +0.101 C 
ATOM      6  C   UNL     1       3.516   0.304  -6.321  0.00  0.00    +0.125 C 
ENDROOT
BRANCH   1   7
ATOM      7  S   UNL     1       2.826  -1.950  -4.962  0.00  0.00    +0.061 S 
ATOM      8  O   UNL     1       4.217  -1.937  -4.669  0.00  0.00    -0.153 OA
ATOM      9  O   UNL     1       2.148  -3.127  -5.380  0.00  0.00    -0.153 OA
BRANCH   7  13
ATOM     10  C   UNL     1       0.707  -0.490  -1.238  0.00  0.00    -0.042 A 
ATOM     11  C   UNL     1       0.036  -1.284  -2.148  0.00  0.00    +0.006 A 
ATOM     12  C   UNL     1       0.683  -1.730  -3.286  0.00  0.00    +0.029 A 
ATOM     13  C   UNL     1       2.001  -1.381  -3.513  0.00  0.00    +0.105 A 
ATOM     14  C   UNL     1       2.672  -0.586  -2.603  0.00  0.00    +0.029 A 
ATOM     15  C   UNL     1       2.024  -0.137  -1.467  0.00  0.00    +0.006 A 
BRANCH  10  17
ATOM     16  C   UNL     1      -0.019   1.526   0.010  0.00  0.00    +0.015 C 
ATOM     17  C   UNL     1       0.002  -0.004   0.002  0.00  0.00    -0.013 C 
ATOM     18  C   UNL     1       0.742  -0.511   1.242  0.00  0.00    +0.015 C 
ATOM     19  C   UNL     1      -1.433  -0.534   0.013  0.00  0.00    +0.015 C 
ENDBRANCH  10  17
ENDBRANCH   7  13
ENDBRANCH   1   7
BRANCH   4  20
ATOM     20  C   UNL     1       0.986   2.807  -7.539  0.00  0.00    +0.103 C 
BRANCH  20  21
ATOM     21  C   UNL     1       1.970   3.824  -8.120  0.00  0.00    +0.125 C 
BRANCH  21  22
ATOM     22  N   UNL     1       1.295   5.112  -8.295  0.00  0.00    -0.280 N 
ATOM     23  C   UNL     1       0.668   5.393  -9.454  0.00  0.00    +0.303 C 
ATOM     24  O   UNL     1       0.107   6.462  -9.599  0.00  0.00    -0.253 OA
ATOM     25  N   UNL     1       0.663   4.488 -10.454  0.00  0.00    -0.294 N 
ATOM     26  H   UNL     1       1.110   3.635 -10.338  0.00  0.00    +0.151 HD
BRANCH  25  27
ATOM     27  C   UNL     1      -0.019   4.794 -11.714  0.00  0.00    +0.028 C 
ATOM     28  C   UNL     1       0.610   6.038 -12.345  0.00  0.00    +0.031 C 
ATOM     29  C   UNL     1       0.125   3.609 -12.671  0.00  0.00    +0.031 C 
ATOM     30  C   UNL     1      -1.502   5.053 -11.443  0.00  0.00    +0.031 C 
ENDBRANCH  25  27
BRANCH  22  31
ATOM     31  C   UNL     1       1.300   6.095  -7.209  0.00  0.00    +0.144 C 
BRANCH  31  32
ATOM     32  C   UNL     1       2.503   6.992  -7.350  0.00  0.00    -0.030 A 
ATOM     33  C   UNL     1       3.696   6.649  -6.742  0.00  0.00    +0.008 A 
ATOM     34  C   UNL     1       4.800   7.470  -6.870  0.00  0.00    +0.038 A 
ATOM     35  C   UNL     1       4.710   8.638  -7.609  0.00  0.00    +0.123 A 
ATOM     36  C   UNL     1       3.515   8.982  -8.217  0.00  0.00    +0.038 A 
ATOM     37  C   UNL     1       2.414   8.156  -8.091  0.00  0.00    +0.008 A 
ATOM     38  F   UNL     1       5.788   9.443  -7.735  0.00  0.00    -0.205 F 
ENDBRANCH  31  32
ENDBRANCH  22  31
ENDBRANCH  21  22
ENDBRANCH  20  21
ENDBRANCH   4  20
TORSDOF 9
