REMARK  Name = ZINC13035549
REMARK  9 active torsions:
REMARK  status: ('A' for Active; 'I' for Inactive)
REMARK    1  A    between atoms: C_1  and  C_2
REMARK    2  A    between atoms: C_5  and  C_8
REMARK    3  A    between atoms: C_11  and  S_17
REMARK    4  A    between atoms: N_12  and  C_13
REMARK    5  A    between atoms: C_13  and  C_14
REMARK    6  A    between atoms: C_14  and  C_15
REMARK    7  A    between atoms: S_17  and  C_18
REMARK    8  A    between atoms: C_18  and  C_19
REMARK    9  A    between atoms: C_19  and  C_21
REMARK                            x       y       z     vdW  Elec       q    Type
REMARK                         _______ _______ _______ _____ _____    ______ ____
ROOT
ATOM      1  C   UNL     1       1.064   1.675   3.070  0.00  0.00    +0.165 A 
ATOM      2  N   UNL     1       1.473   0.828   3.986  0.00  0.00    -0.128 NA
ATOM      3  N   UNL     1       0.639  -0.145   4.087  0.00  0.00    -0.122 NA
ATOM      4  C   UNL     1      -0.357   0.025   3.246  0.00  0.00    +0.192 A 
ATOM      5  N   UNL     1      -0.118   1.185   2.566  0.00  0.00    -0.302 N 
ENDROOT
BRANCH   1  10
ATOM      6  C   UNL     1       3.717   6.523   1.468  0.00  0.00    +0.044 C 
ATOM      7  C   UNL     1       3.022   5.254   1.887  0.00  0.00    -0.050 A 
ATOM      8  C   UNL     1       3.332   4.668   3.102  0.00  0.00    +0.004 A 
ATOM      9  C   UNL     1       2.699   3.506   3.493  0.00  0.00    +0.012 A 
ATOM     10  C   UNL     1       1.745   2.921   2.659  0.00  0.00    +0.019 A 
ATOM     11  C   UNL     1       1.442   3.513   1.432  0.00  0.00    +0.012 A 
ATOM     12  C   UNL     1       2.078   4.678   1.056  0.00  0.00    +0.004 A 
ENDBRANCH   1  10
BRANCH   5  13
ATOM     13  C   UNL     1      -0.952   1.785   1.521  0.00  0.00    +0.137 C 
BRANCH  13  14
ATOM     14  C   UNL     1      -0.570   1.195   0.162  0.00  0.00    +0.147 C 
BRANCH  14  15
ATOM     15  C   UNL     1      -1.427   1.813  -0.912  0.00  0.00    +0.358 C 
ATOM     16  O   UNL     1      -2.258   2.640  -0.621  0.00  0.00    -0.246 OA
ATOM     17  O   UNL     1      -1.268   1.444  -2.193  0.00  0.00    -0.246 OA
ENDBRANCH  14  15
ENDBRANCH  13  14
ENDBRANCH   5  13
BRANCH   4  18
ATOM     18  S   UNL     1      -1.739  -1.047   3.033  0.00  0.00    -0.078 S 
BRANCH  18  19
ATOM     19  C   UNL     1      -1.341  -2.320   4.256  0.00  0.00    +0.157 C 
BRANCH  19  20
ATOM     20  C   UNL     1      -2.418  -3.374   4.253  0.00  0.00    +0.175 C 
ATOM     21  O   UNL     1      -3.362  -3.275   3.496  0.00  0.00    -0.291 OA
BRANCH  20  22
ATOM     22  C   UNL     1      -2.325  -4.517   5.159  0.00  0.00    +0.045 A 
ATOM     23  C   UNL     1      -1.217  -4.670   6.073  0.00  0.00    +0.040 A 
ATOM     24  C   UNL     1      -1.223  -5.757   6.868  0.00  0.00    +0.080 A 
ATOM     25  S   UNL     1      -2.722  -6.596   6.400  0.00  0.00    -0.065 S 
ATOM     26  C   UNL     1      -3.299  -5.503   5.187  0.00  0.00    +0.090 A 
ATOM     27 CL   UNL     1      -4.746  -5.616   4.235  0.00  0.00    -0.075 Cl
ATOM     28 CL   UNL     1      -0.052  -6.226   8.061  0.00  0.00    -0.076 Cl
ENDBRANCH  20  22
ENDBRANCH  19  20
ENDBRANCH  18  19
ENDBRANCH   4  18
TORSDOF 8
