REMARK  Name = ZINC64693637
REMARK  7 active torsions:
REMARK  status: ('A' for Active; 'I' for Inactive)
REMARK    1  A    between atoms: C_3  and  C_18
REMARK    2  A    between atoms: C_6  and  C_7
REMARK    3  A    between atoms: C_7  and  S_8
REMARK    4  A    between atoms: S_8  and  C_9
REMARK    5  A    between atoms: C_12  and  N_17
REMARK    6  A    between atoms: C_18  and  S_19
REMARK    7  A    between atoms: S_19  and  C_20
REMARK                            x       y       z     vdW  Elec       q    Type
REMARK                         _______ _______ _______ _____ _____    ______ ____
ROOT
ATOM      1  C   UNL     1      -0.017   1.378   0.010  0.00  0.00    +0.005 A 
ATOM      2  C   UNL     1       1.171   2.086   0.002  0.00  0.00    +0.005 A 
ATOM      3  C   UNL     1       2.377   1.411  -0.013  0.00  0.00    -0.037 A 
ATOM      4  C   UNL     1       2.396   0.029  -0.020  0.00  0.00    +0.005 A 
ATOM      5  C   UNL     1       1.208  -0.679  -0.012  0.00  0.00    +0.005 A 
ATOM      6  C   UNL     1       0.002  -0.004   0.002  0.00  0.00    -0.037 A 
ENDROOT
BRANCH   6   7
ATOM      7  C   UNL     1      -1.293  -0.775   0.011  0.00  0.00    +0.112 C 
BRANCH   7   8
ATOM      8  S   UNL     1      -1.829  -1.075  -1.696  0.00  0.00    -0.083 S 
BRANCH   8   9
ATOM      9  C   UNL     1      -3.334  -1.974  -1.518  0.00  0.00    +0.171 A 
ATOM     10  N   UNL     1      -3.783  -2.248  -0.310  0.00  0.00    -0.209 NA
ATOM     11  H   UNL     1      -3.666  -2.150  -3.511  0.00  0.00    +0.171 HD
ATOM     12  C   UNL     1      -4.921  -2.928  -0.133  0.00  0.00    +0.124 A 
ATOM     13  C   UNL     1      -5.648  -3.355  -1.236  0.00  0.00    +0.113 A 
ATOM     14  C   UNL     1      -5.165  -3.060  -2.514  0.00  0.00    +0.254 A 
ATOM     15  O   UNL     1      -5.777  -3.419  -3.508  0.00  0.00    -0.268 OA
ATOM     16  N   UNL     1      -4.013  -2.366  -2.632  0.00  0.00    -0.302 N 
BRANCH  12  17
ATOM     17  N   UNL     1      -5.372  -3.205   1.143  0.00  0.00    -0.343 N 
ATOM     18  H   UNL     1      -4.862  -2.906   1.912  0.00  0.00    +0.144 HD
ATOM     19  H   UNL     1      -6.197  -3.698   1.269  0.00  0.00    +0.144 HD
ENDBRANCH  12  17
ENDBRANCH   8   9
ENDBRANCH   7   8
ENDBRANCH   6   7
BRANCH   3  20
ATOM     20  C   UNL     1       3.672   2.182  -0.022  0.00  0.00    +0.112 C 
BRANCH  20  21
ATOM     21  S   UNL     1       4.208   2.483   1.684  0.00  0.00    -0.084 S 
BRANCH  21  22
ATOM     22  C   UNL     1       5.714   3.382   1.506  0.00  0.00    +0.182 C 
ATOM     23  N   UNL     1       6.123   3.645   0.276  0.00  0.00    -0.155 NA
ATOM     24  C   UNL     1       7.248   4.318   0.037  0.00  0.00    +0.245 C 
ATOM     25  O   UNL     1       7.616   4.556  -1.097  0.00  0.00    -0.273 OA
ATOM     26  C   UNL     1       8.050   4.777   1.241  0.00  0.00    +0.169 C 
ATOM     27  C   UNL     1       7.478   4.415   2.599  0.00  0.00    +0.104 C 
ATOM     28  N   UNL     1       6.347   3.747   2.621  0.00  0.00    -0.213 NA
ATOM     29  N   UNL     1       8.105   4.771   3.742  0.00  0.00    -0.346 N 
ATOM     30  H   UNL     1       8.938   5.267   3.704  0.00  0.00    +0.143 HD
ATOM     31  H   UNL     1       7.723   4.529   4.600  0.00  0.00    +0.143 HD
ENDBRANCH  21  22
ENDBRANCH  20  21
ENDBRANCH   3  20
TORSDOF 7
