REMARK  Name = ZINC35489644
REMARK  6 active torsions:
REMARK  status: ('A' for Active; 'I' for Inactive)
REMARK    1  A    between atoms: C_1  and  C_2
REMARK    2  A    between atoms: C_5  and  C_20
REMARK    3  A    between atoms: C_6  and  C_8
REMARK    4  A    between atoms: C_8  and  C_10
REMARK    5  A    between atoms: C_8  and  N_18
REMARK    6  A    between atoms: N_18  and  C_19
REMARK                            x       y       z     vdW  Elec       q    Type
REMARK                         _______ _______ _______ _____ _____    ______ ____
ROOT
ATOM      1  C   UNL     1       0.277  -2.859   2.502  0.00  0.00    -0.007 C 
ENDROOT
BRANCH   1   7
ATOM      2  C   UNL     1       0.046   1.982   1.254  0.00  0.00    +0.044 C 
ATOM      3  C   UNL     1       0.026   0.529   0.855  0.00  0.00    -0.050 A 
ATOM      4  C   UNL     1      -0.119   0.179  -0.475  0.00  0.00    +0.003 A 
ATOM      5  C   UNL     1      -0.138  -1.154  -0.841  0.00  0.00    +0.004 A 
ATOM      6  C   UNL     1      -0.009  -2.137   0.122  0.00  0.00    -0.049 A 
ATOM      7  C   UNL     1       0.137  -1.787   1.452  0.00  0.00    -0.054 A 
ATOM      8  C   UNL     1       0.160  -0.454   1.817  0.00  0.00    +0.006 A 
ATOM      9  C   UNL     1      -0.030  -3.590  -0.277  0.00  0.00    +0.044 C 
ENDBRANCH   1   7
BRANCH   1  10
ATOM     10  C   UNL     1       1.736  -3.074   2.810  0.00  0.00    -0.021 A 
ATOM     11  C   UNL     1       2.351  -2.327   3.797  0.00  0.00    +0.020 A 
ATOM     12  C   UNL     1       3.690  -2.524   4.080  0.00  0.00    +0.018 A 
ATOM     13  C   UNL     1       4.415  -3.468   3.376  0.00  0.00    +0.018 A 
ATOM     14  C   UNL     1       3.802  -4.215   2.389  0.00  0.00    +0.039 A 
ATOM     15  C   UNL     1       2.460  -4.023   2.109  0.00  0.00    +0.125 A 
ATOM     16  F   UNL     1       1.858  -4.757   1.147  0.00  0.00    -0.205 F 
ATOM     17 BR   UNL     1       4.531  -1.501   5.431  0.00  0.00    -0.050 Br
ENDBRANCH   1  10
BRANCH   1  18
ATOM     18  N   UNL     1      -0.426  -2.443   3.723  0.00  0.00    +0.384 N 
ATOM     19  C   UNL     1      -1.867  -2.350   3.451  0.00  0.00    -0.099 C 
ATOM     20  H   UNL     1      -0.264  -3.121   4.452  0.00  0.00    -0.085 HD
ATOM     21  H   UNL     1      -0.080  -1.542   4.019  0.00  0.00    -0.085 HD
ENDBRANCH   1  18
TORSDOF 3
