REMARK  Name = ZINC09877349
REMARK  9 active torsions:
REMARK  status: ('A' for Active; 'I' for Inactive)
REMARK    1  A    between atoms: C_1  and  C_2
REMARK    2  A    between atoms: C_2  and  C_4
REMARK    3  A    between atoms: C_2  and  S_19
REMARK    4  A    between atoms: N_6  and  C_7
REMARK    5  A    between atoms: C_12  and  C_13
REMARK    6  A    between atoms: S_19  and  C_20
REMARK    7  A    between atoms: C_23  and  C_31
REMARK    8  A    between atoms: N_24  and  C_25
REMARK    9  A    between atoms: C_31  and  N_67
REMARK                            x       y       z     vdW  Elec       q    Type
REMARK                         _______ _______ _______ _____ _____    ______ ____
ROOT
ATOM      1  S   UNL     1       5.858  -3.085  -4.220  0.00  0.00    -0.073 S 
ENDROOT
BRANCH   1   2
ATOM      2  C   UNL     1       6.802  -1.920  -5.146  0.00  0.00    +0.197 A 
ATOM      3  N   UNL     1       6.516  -0.652  -5.329  0.00  0.00    -0.122 NA
ATOM      4  N   UNL     1       7.421  -0.099  -6.055  0.00  0.00    -0.135 NA
ATOM      5  C   UNL     1       8.333  -0.973  -6.377  0.00  0.00    +0.122 A 
ATOM      6  N   UNL     1       7.976  -2.164  -5.804  0.00  0.00    -0.276 N 
BRANCH   6   7
ATOM      7  C   UNL     1       8.668  -3.382  -5.880  0.00  0.00    +0.050 A 
ATOM      8  C   UNL     1       9.928  -3.503  -5.311  0.00  0.00    +0.026 A 
ATOM      9  C   UNL     1      10.604  -4.705  -5.382  0.00  0.00    +0.002 A 
ATOM     10  C   UNL     1      10.032  -5.785  -6.030  0.00  0.00    +0.000 A 
ATOM     11  C   UNL     1       8.779  -5.665  -6.604  0.00  0.00    +0.002 A 
ATOM     12  C   UNL     1       8.096  -4.467  -6.530  0.00  0.00    +0.026 A 
ENDBRANCH   6   7
BRANCH   5  13
ATOM     13  C   UNL     1       9.557  -0.717  -7.218  0.00  0.00    -0.001 C 
BRANCH  13  19
ATOM     14  C   UNL     1      10.396   0.990  -5.720  0.00  0.00    -0.078 C 
ATOM     15  C   UNL     1      11.505   1.315  -4.717  0.00  0.00    -0.019 C 
ATOM     16  C   UNL     1      12.851   1.355  -5.446  0.00  0.00    -0.004 C 
ATOM     17  C   UNL     1      13.090   0.009  -6.134  0.00  0.00    -0.019 C 
ATOM     18  C   UNL     1      11.935  -0.279  -7.097  0.00  0.00    -0.078 C 
ATOM     19  N   UNL     1      10.672  -0.329  -6.330  0.00  0.00    +0.384 N 
ATOM     20  H   UNL     1      10.763  -1.028  -5.584  0.00  0.00    -0.081 HD
ENDBRANCH  13  19
ENDBRANCH   5  13
ENDBRANCH   1   2
BRANCH   1  22
ATOM     21  C   UNL     1       3.692  -1.560  -4.888  0.00  0.00    +0.029 C 
ATOM     22  C   UNL     1       4.498  -2.022  -3.673  0.00  0.00    +0.137 C 
BRANCH  22  23
ATOM     23  C   UNL     1       3.602  -2.795  -2.740  0.00  0.00    +0.230 C 
ATOM     24  O   UNL     1       3.622  -4.007  -2.744  0.00  0.00    -0.274 OA
ATOM     25  N   UNL     1       2.777  -2.138  -1.900  0.00  0.00    -0.284 N 
ATOM     26  H   UNL     1       2.712  -1.171  -1.941  0.00  0.00    +0.155 HD
BRANCH  25  27
ATOM     27  C   UNL     1       2.016  -2.850  -0.969  0.00  0.00    +0.041 A 
ATOM     28  C   UNL     1       1.515  -4.103  -1.292  0.00  0.00    +0.024 A 
ATOM     29  C   UNL     1       0.758  -4.803  -0.373  0.00  0.00    +0.002 A 
ATOM     30  C   UNL     1       0.498  -4.262   0.875  0.00  0.00    +0.001 A 
ATOM     31  C   UNL     1       0.994  -3.019   1.212  0.00  0.00    +0.010 A 
ATOM     32  C   UNL     1       1.759  -2.304   0.293  0.00  0.00    +0.003 A 
BRANCH  32  33
ATOM     33  C   UNL     1       2.294  -0.967   0.650  0.00  0.00    -0.016 A 
ATOM     34  C   UNL     1       1.450   0.004   1.186  0.00  0.00    +0.008 A 
ATOM     35  C   UNL     1       1.954   1.245   1.517  0.00  0.00    +0.001 A 
ATOM     36  C   UNL     1       3.293   1.527   1.316  0.00  0.00    +0.000 A 
ATOM     37  C   UNL     1       4.135   0.568   0.784  0.00  0.00    +0.001 A 
ATOM     38  C   UNL     1       3.643  -0.678   0.450  0.00  0.00    +0.008 A 
ENDBRANCH  32  33
ENDBRANCH  25  27
ENDBRANCH  22  23
ENDBRANCH   1  22
TORSDOF 8
