REMARK  Name = ZINC23788842
REMARK  10 active torsions:
REMARK  status: ('A' for Active; 'I' for Inactive)
REMARK    1  A    between atoms: C_1  and  C_2
REMARK    2  A    between atoms: C_3  and  C_16
REMARK    3  A    between atoms: N_5  and  C_7
REMARK    4  A    between atoms: C_7  and  C_8
REMARK    5  A    between atoms: N_18  and  C_19
REMARK    6  A    between atoms: C_19  and  C_20
REMARK    7  A    between atoms: C_20  and  C_22
REMARK    8  A    between atoms: C_20  and  N_29
REMARK    9  A    between atoms: N_29  and  C_30
REMARK   10  A    between atoms: N_29  and  C_31
REMARK                            x       y       z     vdW  Elec       q    Type
REMARK                         _______ _______ _______ _____ _____    ______ ____
ROOT
ATOM      1  C   UNL     1       3.152   2.883   2.866  0.00  0.00    +0.249 C 
ATOM      2  O   UNL     1       3.976   1.998   2.994  0.00  0.00    -0.270 OA
ATOM      3  N   UNL     1       1.841   2.578   2.797  0.00  0.00    -0.312 N 
ATOM      4  H   UNL     1       1.095   3.378   2.681  0.00  0.00    +0.149 HD
ENDROOT
BRANCH   1   7
ATOM      5  C   UNL     1       3.882   4.454   0.207  0.00  0.00    +0.068 C 
ATOM      6  C   UNL     1       3.914   5.001   1.611  0.00  0.00    +0.074 A 
ATOM      7  C   UNL     1       3.586   4.288   2.787  0.00  0.00    +0.096 A 
ATOM      8  C   UNL     1       3.744   5.160   3.848  0.00  0.00    +0.140 A 
ATOM      9  N   UNL     1       4.155   6.336   3.344  0.00  0.00    -0.248 N 
ATOM     10  N   UNL     1       4.250   6.213   1.953  0.00  0.00    -0.174 NA
ATOM     11 CL   UNL     1       3.467   4.801   5.524  0.00  0.00    -0.062 Cl
BRANCH   9  12
ATOM     12  C   UNL     1       4.449   7.544   4.119  0.00  0.00    +0.181 C 
BRANCH  12  13
ATOM     13  C   UNL     1       3.195   8.370   4.256  0.00  0.00    -0.008 A 
ATOM     14  C   UNL     1       2.457   8.317   5.423  0.00  0.00    +0.007 A 
ATOM     15  C   UNL     1       1.307   9.074   5.548  0.00  0.00    +0.000 A 
ATOM     16  C   UNL     1       0.895   9.885   4.507  0.00  0.00    +0.001 A 
ATOM     17  C   UNL     1       1.633   9.938   3.340  0.00  0.00    +0.020 A 
ATOM     18  C   UNL     1       2.787   9.184   3.215  0.00  0.00    +0.046 A 
ATOM     19 CL   UNL     1       3.718   9.257   1.752  0.00  0.00    -0.083 Cl
ENDBRANCH  12  13
ENDBRANCH   9  12
ENDBRANCH   1   7
BRANCH   3  20
ATOM     20  C   UNL     1       1.409   1.180   2.875  0.00  0.00    +0.094 C 
BRANCH  20  21
ATOM     21  C   UNL     1      -0.093   1.094   2.598  0.00  0.00    -0.020 C 
BRANCH  21  22
ATOM     22  C   UNL     1      -0.559  -0.326   2.792  0.00  0.00    -0.041 A 
ATOM     23  C   UNL     1      -0.809  -1.127   1.694  0.00  0.00    +0.003 A 
ATOM     24  C   UNL     1      -1.237  -2.430   1.872  0.00  0.00    +0.000 A 
ATOM     25  C   UNL     1      -1.415  -2.931   3.148  0.00  0.00    +0.001 A 
ATOM     26  C   UNL     1      -1.165  -2.131   4.246  0.00  0.00    +0.020 A 
ATOM     27  C   UNL     1      -0.732  -0.829   4.069  0.00  0.00    +0.043 A 
ATOM     28 CL   UNL     1      -0.411   0.175   5.448  0.00  0.00    -0.083 Cl
ENDBRANCH  21  22
BRANCH  21  29
ATOM     29  N   UNL     1      -0.360   1.513   1.215  0.00  0.00    +0.382 N 
ATOM     30  C   UNL     1       0.681   1.018   0.305  0.00  0.00    -0.096 C 
ATOM     31  C   UNL     1      -0.490   2.973   1.123  0.00  0.00    -0.096 C 
ATOM     32  H   UNL     1      -1.318   1.069   0.907  0.00  0.00    -0.082 HD
ENDBRANCH  21  29
ENDBRANCH  20  21
ENDBRANCH   3  20
TORSDOF 7
