REMARK  Name = ZINC62823637
REMARK  3 active torsions:
REMARK  status: ('A' for Active; 'I' for Inactive)
REMARK    1  A    between atoms: C_10  and  C_12
REMARK    2  A    between atoms: C_15  and  N_19
REMARK    3  A    between atoms: C_17  and  N_18
REMARK                            x       y       z     vdW  Elec       q    Type
REMARK                         _______ _______ _______ _____ _____    ______ ____
ROOT
ATOM      1  C   UNL     1       5.947   0.853  -0.067  0.00  0.00    +0.038 A 
ATOM      2  C   UNL     1       6.697  -0.321   0.019  0.00  0.00    +0.015 A 
ATOM      3  C   UNL     1       8.074  -0.258   0.022  0.00  0.00    +0.033 A 
ATOM      4  C   UNL     1       8.719   0.965  -0.060  0.00  0.00    +0.128 A 
ATOM      5  C   UNL     1       7.989   2.134  -0.146  0.00  0.00    +0.056 A 
ATOM      6  C   UNL     1       6.602   2.089  -0.156  0.00  0.00    +0.037 A 
ENDROOT
BRANCH   1  16
ATOM      7  C   UNL     1      -0.018   1.376  -0.058  0.00  0.00    +0.004 A 
ATOM      8  C   UNL     1       1.157   2.092  -0.033  0.00  0.00    +0.030 A 
ATOM      9  C   UNL     1       2.383   1.418  -0.053  0.00  0.00    +0.091 A 
ATOM     10  C   UNL     1       2.398   0.013  -0.099  0.00  0.00    +0.085 A 
ATOM     11  C   UNL     1       1.203  -0.692  -0.123  0.00  0.00    +0.066 A 
ATOM     12  C   UNL     1       0.003  -0.011  -0.103  0.00  0.00    +0.022 A 
ATOM     13 CL   UNL     1       1.217  -2.427  -0.179  0.00  0.00    -0.081 Cl
ATOM     14  N   UNL     1       3.730  -0.358  -0.109  0.00  0.00    -0.337 N 
ATOM     15  H   UNL     1       4.075  -1.264  -0.139  0.00  0.00    +0.167 HD
ATOM     16  C   UNL     1       4.471   0.792  -0.071  0.00  0.00    +0.141 A 
ATOM     17  N   UNL     1       3.673   1.833  -0.038  0.00  0.00    -0.228 NA
ENDBRANCH   1  16
BRANCH   6  18
ATOM     18  N   UNL     1       5.865   3.267  -0.248  0.00  0.00    -0.357 N 
ATOM     19  H   UNL     1       4.898   3.241  -0.167  0.00  0.00    +0.142 HD
ATOM     20  H   UNL     1       6.317   4.112  -0.394  0.00  0.00    +0.142 HD
ENDBRANCH   6  18
BRANCH   4  21
ATOM     21  N   UNL     1      10.198   1.019  -0.056  0.00  0.00    +0.056 N 
ATOM     22  O   UNL     1      10.840  -0.003   0.019  0.00  0.00    -0.126 OA
ATOM     23  O   UNL     1      10.764   2.085  -0.128  0.00  0.00    -0.126 OA
ENDBRANCH   4  21
TORSDOF 3
