REMARK  Name = ZINC66672494
REMARK  4 active torsions:
REMARK  status: ('A' for Active; 'I' for Inactive)
REMARK    1  A    between atoms: C_10  and  N_12
REMARK    2  A    between atoms: C_13  and  N_17
REMARK    3  A    between atoms: C_18  and  C_20
REMARK    4  A    between atoms: C_22  and  C_26
REMARK                            x       y       z     vdW  Elec       q    Type
REMARK                         _______ _______ _______ _____ _____    ______ ____
ROOT
ATOM      1  N   UNL     1       4.649   0.018   0.860  0.00  0.00    -0.243 N 
ATOM      2  C   UNL     1       5.818   0.619   0.520  0.00  0.00    +0.124 A 
ATOM      3  C   UNL     1       6.355   1.141   1.656  0.00  0.00    +0.065 A 
ATOM      4  C   UNL     1       5.489   0.850   2.713  0.00  0.00    +0.136 A 
ATOM      5  N   UNL     1       4.467   0.184   2.239  0.00  0.00    -0.177 NA
ENDROOT
BRANCH   1  15
ATOM      6  C   UNL     1      -0.017   1.375   0.010  0.00  0.00    +0.000 A 
ATOM      7  C   UNL     1       1.174   2.078   0.002  0.00  0.00    +0.000 A 
ATOM      8  C   UNL     1       2.372   1.395  -0.016  0.00  0.00    +0.006 A 
ATOM      9  C   UNL     1       2.393   0.006  -0.025  0.00  0.00    -0.020 A 
ATOM     10  C   UNL     1       1.208  -0.694  -0.013  0.00  0.00    -0.042 A 
ATOM     11  C   UNL     1       0.002  -0.004   0.002  0.00  0.00    +0.004 A 
ATOM     12  C   UNL     1       1.155  -2.199  -0.005  0.00  0.00    +0.035 C 
ATOM     13  C   UNL     1       2.493  -2.786  -0.452  0.00  0.00    +0.007 C 
ATOM     14  C   UNL     1       3.607  -2.135   0.376  0.00  0.00    +0.032 C 
ATOM     15  C   UNL     1       3.736  -0.675  -0.053  0.00  0.00    +0.139 C 
ENDBRANCH   1  15
BRANCH   2  16
ATOM     16  N   UNL     1       6.367   0.688  -0.759  0.00  0.00    -0.265 N 
ATOM     17  C   UNL     1       7.542   1.320  -0.955  0.00  0.00    +0.269 C 
ATOM     18  O   UNL     1       8.122   1.829  -0.016  0.00  0.00    -0.268 OA
ATOM     19  H   UNL     1       5.904   0.282  -1.509  0.00  0.00    +0.157 HD
BRANCH  17  20
ATOM     20  C   UNL     1       8.124   1.393  -2.310  0.00  0.00    +0.147 A 
ATOM     21  C   UNL     1       9.345   2.013  -2.670  0.00  0.00    +0.057 A 
ATOM     22  C   UNL     1       9.463   1.829  -4.006  0.00  0.00    +0.040 A 
ATOM     23  N   UNL     1       8.376   1.140  -4.413  0.00  0.00    -0.281 N 
ATOM     24  H   UNL     1       8.201   0.870  -5.328  0.00  0.00    +0.189 HD
ATOM     25  N   UNL     1       7.609   0.889  -3.414  0.00  0.00    -0.169 NA
BRANCH  22  26
ATOM     26  C   UNL     1      10.598   2.305  -4.876  0.00  0.00    +0.037 C 
ATOM     27  C   UNL     1      10.262   2.721  -6.310  0.00  0.00    +0.010 C 
ATOM     28  C   UNL     1      11.012   1.413  -6.048  0.00  0.00    +0.010 C 
ENDBRANCH  22  26
ENDBRANCH  17  20
ENDBRANCH   2  16
TORSDOF 4
