REMARK  Name = ZINC63772593
REMARK  8 active torsions:
REMARK  status: ('A' for Active; 'I' for Inactive)
REMARK    1  A    between atoms: C_1  and  C_2
REMARK    2  A    between atoms: C_7  and  S_12
REMARK    3  A    between atoms: S_12  and  C_13
REMARK    4  A    between atoms: C_13  and  C_14
REMARK    5  A    between atoms: N_16  and  C_17
REMARK    6  A    between atoms: C_19  and  C_31
REMARK    7  A    between atoms: C_31  and  O_33
REMARK    8  A    between atoms: O_33  and  C_34
REMARK                            x       y       z     vdW  Elec       q    Type
REMARK                         _______ _______ _______ _____ _____    ______ ____
ROOT
ATOM      1  C   UNL     1      -4.198  -5.185   1.746  0.00  0.00    +0.224 C 
ATOM      2  O   UNL     1      -4.270  -6.261   2.301  0.00  0.00    -0.275 OA
ATOM      3  N   UNL     1      -5.322  -4.495   1.466  0.00  0.00    -0.302 N 
ATOM      4  H   UNL     1      -5.264  -3.635   1.022  0.00  0.00    +0.150 HD
ENDROOT
BRANCH   3   5
ATOM      5  C   UNL     1      -6.629  -5.045   1.832  0.00  0.00    +0.145 C 
ATOM      6  C   UNL     1      -7.526  -3.951   2.433  0.00  0.00    +0.132 C 
ATOM      7  C   UNL     1      -8.828  -3.725   1.688  0.00  0.00    +0.018 C 
ATOM      8  C   UNL     1      -9.985  -4.420   2.374  0.00  0.00    +0.005 C 
ATOM      9  C   UNL     1     -11.280  -3.664   2.207  0.00  0.00    +0.000 C 
ATOM     10  C   UNL     1     -12.082  -4.046   1.001  0.00  0.00    +0.000 C 
ATOM     11  C   UNL     1     -11.194  -3.702  -0.237  0.00  0.00    +0.001 C 
ATOM     12  C   UNL     1     -10.091  -4.773  -0.269  0.00  0.00    +0.014 C 
ATOM     13  C   UNL     1      -8.769  -4.230   0.220  0.00  0.00    +0.052 C 
ATOM     14  S   UNL     1      -7.543  -5.588   0.335  0.00  0.00    -0.134 S 
BRANCH   6  15
ATOM     15  C   UNL     1      -7.853  -4.329   3.855  0.00  0.00    +0.313 C 
ATOM     16  O   UNL     1      -7.914  -5.494   4.172  0.00  0.00    -0.250 OA
BRANCH  15  17
ATOM     17  O   UNL     1      -8.076  -3.372   4.769  0.00  0.00    -0.468 OA
ATOM     18  C   UNL     1      -8.381  -3.802   6.098  0.00  0.00    +0.280 C 
ENDBRANCH  15  17
ENDBRANCH   6  15
ENDBRANCH   3   5
BRANCH   1  19
ATOM     19  C   UNL     1      -2.853  -4.620   1.370  0.00  0.00    +0.168 C 
BRANCH  19  20
ATOM     20  S   UNL     1      -1.549  -5.774   1.876  0.00  0.00    -0.106 S 
BRANCH  20  27
ATOM     21  C   UNL     1       0.364   0.897  -0.063  0.00  0.00    +0.044 C 
ATOM     22  C   UNL     1       0.256  -0.606  -0.100  0.00  0.00    -0.048 A 
ATOM     23  C   UNL     1       0.175  -1.246  -1.349  0.00  0.00    +0.005 A 
ATOM     24  C   UNL     1       0.076  -2.585  -1.474  0.00  0.00    +0.028 A 
ATOM     25  C   UNL     1       0.050  -3.426  -0.269  0.00  0.00    +0.061 A 
ATOM     26  N   UNL     1      -0.037  -4.712  -0.089  0.00  0.00    -0.355 N 
ATOM     27  C   UNL     1      -0.014  -4.957   1.358  0.00  0.00    +0.236 C 
ATOM     28  N   UNL     1       0.098  -3.641   1.999  0.00  0.00    -0.355 N 
ATOM     29  C   UNL     1       0.136  -2.748   1.053  0.00  0.00    +0.061 A 
ATOM     30  C   UNL     1       0.246  -1.282   1.066  0.00  0.00    +0.030 A 
ATOM     31  H   UNL     1      -0.105  -5.385  -0.784  0.00  0.00    +0.162 HD
ATOM     32  H   UNL     1       0.137  -3.469   2.953  0.00  0.00    +0.162 HD
ENDBRANCH  20  27
ENDBRANCH  19  20
ENDBRANCH   1  19
TORSDOF 6
