REMARK  Name = ZINC13495561
REMARK  10 active torsions:
REMARK  status: ('A' for Active; 'I' for Inactive)
REMARK    1  A    between atoms: C_1  and  C_2
REMARK    2  A    between atoms: C_2  and  C_3
REMARK    3  A    between atoms: C_3  and  C_5
REMARK    4  A    between atoms: C_3  and  N_16
REMARK    5  A    between atoms: N_9  and  C_10
REMARK    6  A    between atoms: C_10  and  C_11
REMARK    7  A    between atoms: N_16  and  C_17
REMARK    8  A    between atoms: N_16  and  C_33
REMARK    9  A    between atoms: C_17  and  C_18
REMARK   10  A    between atoms: C_33  and  C_34
REMARK                            x       y       z     vdW  Elec       q    Type
REMARK                         _______ _______ _______ _____ _____    ______ ____
ROOT
ATOM      1  N   UNL     1       0.525   0.032   2.783  0.00  0.00    -0.286 NA
ENDROOT
BRANCH   1   2
ATOM      2  C   UNL     1       1.506  -0.337   1.753  0.00  0.00    +0.127 C 
BRANCH   2   3
ATOM      3  C   UNL     1       1.213   0.425   0.486  0.00  0.00    +0.169 A 
ATOM      4  N   UNL     1       0.831   1.675   0.394  0.00  0.00    -0.112 NA
ATOM      5  N   UNL     1       0.685   1.956  -0.855  0.00  0.00    -0.023 NA
ATOM      6  N   UNL     1       0.964   0.918  -1.562  0.00  0.00    -0.043 NA
ATOM      7  N   UNL     1       1.299  -0.046  -0.772  0.00  0.00    -0.220 N 
BRANCH   7   8
ATOM      8  C   UNL     1       1.696  -1.399  -1.170  0.00  0.00    +0.221 C 
BRANCH   8   9
ATOM      9  C   UNL     1       0.475  -2.279  -1.244  0.00  0.00    +0.126 A 
ATOM     10  C   UNL     1      -0.291  -2.473  -2.333  0.00  0.00    +0.046 A 
ATOM     11  C   UNL     1      -1.320  -3.366  -1.956  0.00  0.00    +0.041 A 
ATOM     12  C   UNL     1      -1.122  -3.664  -0.659  0.00  0.00    +0.195 A 
ATOM     13  O   UNL     1      -0.030  -3.008  -0.235  0.00  0.00    -0.466 OA
ENDBRANCH   8   9
ENDBRANCH   7   8
ENDBRANCH   2   3
BRANCH   2  15
ATOM     14  C   UNL     1       3.248  -0.836   3.473  0.00  0.00    +0.006 C 
ATOM     15  C   UNL     1       2.913   0.009   2.242  0.00  0.00    +0.023 C 
ENDBRANCH   2  15
ENDBRANCH   1   2
BRANCH   1  16
ATOM     16  C   UNL     1       0.424   1.491   2.915  0.00  0.00    +0.125 C 
BRANCH  16  17
ATOM     17  C   UNL     1      -0.233   1.832   4.228  0.00  0.00    +0.031 A 
ATOM     18  C   UNL     1       0.531   2.086   5.321  0.00  0.00    +0.020 A 
ATOM     19  C   UNL     1      -0.136   2.414   6.580  0.00  0.00    +0.003 A 
ATOM     20  C   UNL     1       0.602   2.684   7.739  0.00  0.00    +0.059 A 
ATOM     21  C   UNL     1      -0.055   2.989   8.911  0.00  0.00    +0.167 A 
ATOM     22  C   UNL     1      -1.455   3.030   8.946  0.00  0.00    +0.168 A 
ATOM     23  C   UNL     1      -2.191   2.765   7.806  0.00  0.00    +0.075 A 
ATOM     24  C   UNL     1      -1.544   2.456   6.616  0.00  0.00    +0.053 A 
ATOM     25  N   UNL     1      -2.263   2.188   5.468  0.00  0.00    -0.322 N 
ATOM     26  H   UNL     1      -3.232   2.218   5.494  0.00  0.00    +0.169 HD
ATOM     27  C   UNL     1      -1.639   1.892   4.315  0.00  0.00    +0.254 A 
ATOM     28  O   UNL     1      -2.306   1.665   3.320  0.00  0.00    -0.268 OA
ATOM     29  O   UNL     1      -1.846   3.352  10.212  0.00  0.00    -0.453 OA
ATOM     30  C   UNL     1      -0.700   3.104  11.046  0.00  0.00    +0.466 C 
ATOM     31  O   UNL     1       0.418   3.285  10.158  0.00  0.00    -0.453 OA
ENDBRANCH  16  17
ENDBRANCH   1  16
BRANCH   1  32
ATOM     32  C   UNL     1      -0.787  -0.563   2.497  0.00  0.00    +0.117 C 
BRANCH  32  33
ATOM     33  C   UNL     1      -0.756  -2.055   2.835  0.00  0.00    +0.132 C 
ATOM     34  C   UNL     1      -2.171  -2.655   2.692  0.00  0.00    +0.035 C 
ATOM     35  C   UNL     1      -2.237  -3.634   3.896  0.00  0.00    +0.031 C 
ATOM     36  C   UNL     1      -1.393  -2.867   4.945  0.00  0.00    +0.160 C 
ATOM     37  O   UNL     1      -0.342  -2.237   4.194  0.00  0.00    -0.375 OA
ENDBRANCH  32  33
ENDBRANCH   1  32
TORSDOF 9
