REMARK  Name = ZINC15675581
REMARK  8 active torsions:
REMARK  status: ('A' for Active; 'I' for Inactive)
REMARK    1  A    between atoms: C_3  and  O_31
REMARK    2  A    between atoms: C_6  and  C_7
REMARK    3  A    between atoms: C_9  and  C_12
REMARK    4  A    between atoms: N_22  and  C_23
REMARK    5  A    between atoms: C_23  and  C_24
REMARK    6  A    between atoms: C_27  and  C_29
REMARK    7  A    between atoms: C_29  and  O_30
REMARK    8  A    between atoms: O_31  and  C_32
REMARK                            x       y       z     vdW  Elec       q    Type
REMARK                         _______ _______ _______ _____ _____    ______ ____
ROOT
ATOM      1  C   UNL     1      -3.172  -3.857   0.021  0.00  0.00    +0.152 C 
ATOM      2  C   UNL     1      -3.712  -4.202  -1.374  0.00  0.00    +0.083 C 
ATOM      3  C   UNL     1      -4.473  -5.499  -1.266  0.00  0.00    +0.040 A 
ATOM      4  C   UNL     1      -4.880  -6.030  -0.091  0.00  0.00    +0.051 A 
ATOM      5  N   UNL     1      -5.516  -7.172  -0.354  0.00  0.00    -0.349 N 
ATOM      6  C   UNL     1      -5.522  -7.371  -1.647  0.00  0.00    +0.171 A 
ATOM      7  N   UNL     1      -4.879  -6.343  -2.250  0.00  0.00    -0.349 N 
ATOM      8  H   UNL     1      -4.736  -6.231  -3.203  0.00  0.00    +0.166 HD
ATOM      9  C   UNL     1      -4.622  -5.379   1.245  0.00  0.00    +0.140 C 
ATOM     10  N   UNL     1      -4.253  -3.973   1.010  0.00  0.00    -0.278 NA
ATOM     11  H   UNL     1      -5.911  -7.762   0.307  0.00  0.00    +0.166 HD
ENDROOT
BRANCH   1  14
ATOM     12  C   UNL     1      -1.272  -0.765   0.011  0.00  0.00    +0.202 A 
ATOM     13  N   UNL     1      -1.385  -2.105   0.010  0.00  0.00    -0.190 NA
ATOM     14  C   UNL     1      -2.642  -2.446   0.019  0.00  0.00    +0.245 A 
ATOM     15  O   UNL     1      -3.385  -1.332   0.026  0.00  0.00    -0.336 OA
ATOM     16  N   UNL     1      -2.474  -0.243   0.026  0.00  0.00    -0.056 NA
BRANCH  12  22
ATOM     17  C   UNL     1      -0.017   1.390   0.010  0.00  0.00    +0.015 A 
ATOM     18  C   UNL     1       1.169   2.094   0.002  0.00  0.00    +0.046 A 
ATOM     19  C   UNL     1       2.380   1.416  -0.013  0.00  0.00    +0.130 A 
ATOM     20  C   UNL     1       2.402   0.028  -0.021  0.00  0.00    +0.046 A 
ATOM     21  C   UNL     1       1.220  -0.682  -0.013  0.00  0.00    +0.015 A 
ATOM     22  C   UNL     1       0.002  -0.004   0.002  0.00  0.00    +0.023 A 
BRANCH  19  23
ATOM     23  O   UNL     1       3.546   2.112  -0.021  0.00  0.00    -0.406 OA
BRANCH  23  24
ATOM     24  C   UNL     1       4.756   1.352  -0.036  0.00  0.00    +0.575 C 
ATOM     25  F   UNL     1       4.789   0.551  -1.183  0.00  0.00    -0.133 F 
ATOM     26  F   UNL     1       5.853   2.220  -0.043  0.00  0.00    -0.133 F 
ATOM     27  F   UNL     1       4.811   0.540   1.101  0.00  0.00    -0.133 F 
ENDBRANCH  23  24
ENDBRANCH  19  23
ENDBRANCH  12  22
ENDBRANCH   1  14
BRANCH  10  28
ATOM     28  C   UNL     1      -3.889  -3.307   2.268  0.00  0.00    +0.160 C 
BRANCH  28  29
ATOM     29  C   UNL     1      -5.098  -3.230   3.164  0.00  0.00    +0.119 A 
ATOM     30  C   UNL     1      -5.465  -4.153   4.071  0.00  0.00    +0.046 A 
ATOM     31  C   UNL     1      -6.649  -3.680   4.681  0.00  0.00    +0.047 A 
ATOM     32  C   UNL     1      -6.935  -2.496   4.111  0.00  0.00    +0.131 A 
ATOM     33  O   UNL     1      -5.989  -2.226   3.196  0.00  0.00    -0.461 OA
BRANCH  32  34
ATOM     34  C   UNL     1      -8.114  -1.618   4.444  0.00  0.00    +0.230 C 
BRANCH  34  35
ATOM     35  O   UNL     1      -7.753  -0.712   5.488  0.00  0.00    -0.387 OA
ATOM     36  H   UNL     1      -8.465  -0.115   5.755  0.00  0.00    +0.210 HD
ENDBRANCH  34  35
ENDBRANCH  32  34
ENDBRANCH  28  29
ENDBRANCH  10  28
TORSDOF 8
