REMARK  Name = ZINC45574272
REMARK  5 active torsions:
REMARK  status: ('A' for Active; 'I' for Inactive)
REMARK    1  A    between atoms: C_1  and  C_2
REMARK    2  A    between atoms: C_9  and  C_19
REMARK    3  A    between atoms: C_12  and  C_13
REMARK    4  A    between atoms: N_21  and  N_22
REMARK    5  A    between atoms: C_23  and  C_25
REMARK                            x       y       z     vdW  Elec       q    Type
REMARK                         _______ _______ _______ _____ _____    ______ ____
ROOT
ATOM      1  C   UNL     1      -0.644   1.423   0.113  0.00  0.00    +0.051 C 
ATOM      2  C   UNL     1      -0.298  -0.042   0.051  0.00  0.00    +0.040 A 
ATOM      3  C   UNL     1      -0.406  -0.749  -1.169  0.00  0.00    +0.196 A 
ATOM      4  O   UNL     1      -0.776  -0.197  -2.192  0.00  0.00    -0.287 OA
ATOM      5  C   UNL     1      -0.051  -2.183  -1.156  0.00  0.00    +0.065 A 
ATOM      6  C   UNL     1      -0.126  -2.958  -2.312  0.00  0.00    +0.015 A 
ATOM      7  C   UNL     1       0.213  -4.295  -2.267  0.00  0.00    +0.002 A 
ATOM      8  C   UNL     1       0.627  -4.874  -1.082  0.00  0.00    +0.017 A 
ATOM      9  C   UNL     1       0.709  -4.116   0.085  0.00  0.00    +0.081 A 
ATOM     10  C   UNL     1       0.368  -2.755   0.053  0.00  0.00    +0.151 A 
ATOM     11  O   UNL     1       0.439  -1.999   1.165  0.00  0.00    -0.454 OA
ATOM     12  C   UNL     1       0.125  -0.694   1.168  0.00  0.00    +0.142 A 
ENDROOT
BRANCH  12  13
ATOM     13  C   UNL     1       0.237   0.061   2.432  0.00  0.00    +0.018 A 
ATOM     14  C   UNL     1      -0.334  -0.443   3.603  0.00  0.00    +0.011 A 
ATOM     15  C   UNL     1      -0.225   0.268   4.780  0.00  0.00    +0.001 A 
ATOM     16  C   UNL     1       0.448   1.477   4.802  0.00  0.00    +0.000 A 
ATOM     17  C   UNL     1       1.015   1.982   3.646  0.00  0.00    +0.001 A 
ATOM     18  C   UNL     1       0.919   1.280   2.463  0.00  0.00    +0.011 A 
ENDBRANCH  12  13
BRANCH   9  19
ATOM     19  C   UNL     1       1.151  -4.741   1.347  0.00  0.00    +0.264 C 
ATOM     20  O   UNL     1       1.221  -4.077   2.363  0.00  0.00    -0.269 OA
ATOM     21  N   UNL     1       1.478  -6.048   1.373  0.00  0.00    -0.230 N 
ATOM     22  H   UNL     1       1.422  -6.579   0.563  0.00  0.00    +0.173 HD
BRANCH  21  23
ATOM     23  N   UNL     1       1.898  -6.642   2.571  0.00  0.00    -0.229 N 
ATOM     24  C   UNL     1       2.224  -7.949   2.597  0.00  0.00    +0.278 C 
ATOM     25  O   UNL     1       2.154  -8.613   1.582  0.00  0.00    -0.267 OA
ATOM     26  H   UNL     1       1.954  -6.112   3.381  0.00  0.00    +0.173 HD
BRANCH  24  27
ATOM     27  C   UNL     1       2.668  -8.577   3.864  0.00  0.00    +0.127 A 
ATOM     28  C   UNL     1       3.010  -9.938   3.872  0.00  0.00    +0.034 A 
ATOM     29  C   UNL     1       3.421 -10.528   5.032  0.00  0.00    +0.012 A 
ATOM     30  C   UNL     1       3.488  -9.737   6.195  0.00  0.00    +0.000 A 
ATOM     31  C   UNL     1       3.902 -10.278   7.422  0.00  0.00    +0.010 A 
ATOM     32  C   UNL     1       3.955  -9.482   8.526  0.00  0.00    +0.001 A 
ATOM     33  C   UNL     1       3.603  -8.135   8.455  0.00  0.00    +0.002 A 
ATOM     34  C   UNL     1       3.196  -7.576   7.284  0.00  0.00    +0.028 A 
ATOM     35  C   UNL     1       3.128  -8.366   6.119  0.00  0.00    +0.072 A 
ATOM     36  N   UNL     1       2.739  -7.842   4.957  0.00  0.00    -0.242 NA
ENDBRANCH  24  27
ENDBRANCH  21  23
ENDBRANCH   9  19
TORSDOF 4
