REMARK  Name = ZINC13499193
REMARK  18 active torsions:
REMARK  status: ('A' for Active; 'I' for Inactive)
REMARK    1  A    between atoms: C_1  and  C_2
REMARK    2  A    between atoms: C_2  and  O_3
REMARK    3  A    between atoms: O_3  and  C_4
REMARK    4  A    between atoms: C_4  and  C_6
REMARK    5  A    between atoms: C_6  and  N_7
REMARK    6  A    between atoms: C_8  and  C_12
REMARK    7  A    between atoms: C_12  and  C_14
REMARK    8  A    between atoms: C_12  and  N_17
REMARK    9  A    between atoms: C_14  and  C_15
REMARK   10  A    between atoms: C_14  and  C_16
REMARK   11  A    between atoms: N_17  and  C_18
REMARK   12  A    between atoms: N_17  and  C_27
REMARK   13  A    between atoms: C_18  and  C_19
REMARK   14  A    between atoms: C_24  and  O_25
REMARK   15  A    between atoms: O_25  and  C_26
REMARK   16  A    between atoms: C_27  and  C_28
REMARK   17  A    between atoms: C_31  and  C_41
REMARK   18  A    between atoms: C_34  and  C_40
REMARK                            x       y       z     vdW  Elec       q    Type
REMARK                         _______ _______ _______ _____ _____    ______ ____
ROOT
ATOM      1  N   UNL     1      -2.143  -6.298  -4.145  0.00  0.00    -0.284 NA
ENDROOT
BRANCH   1   2
ATOM      2  C   UNL     1      -2.918  -5.101  -3.794  0.00  0.00    +0.130 C 
BRANCH   2   4
ATOM      3  N   UNL     1      -4.389  -4.081  -5.611  0.00  0.00    -0.217 N 
ATOM      4  C   UNL     1      -3.190  -4.296  -5.038  0.00  0.00    +0.169 A 
ATOM      5  N   UNL     1      -2.304  -3.668  -5.773  0.00  0.00    -0.112 NA
ATOM      6  N   UNL     1      -2.927  -3.097  -6.746  0.00  0.00    -0.023 NA
ATOM      7  N   UNL     1      -4.186  -3.350  -6.654  0.00  0.00    -0.043 NA
BRANCH   3   8
ATOM      8  C   UNL     1      -5.681  -4.588  -5.141  0.00  0.00    +0.267 C 
BRANCH   8   9
ATOM      9  C   UNL     1      -5.994  -5.887  -5.837  0.00  0.00    +0.329 C 
ATOM     10  O   UNL     1      -5.250  -6.309  -6.691  0.00  0.00    -0.249 OA
BRANCH   9  11
ATOM     11  O   UNL     1      -7.098  -6.576  -5.508  0.00  0.00    -0.464 OA
BRANCH  11  13
ATOM     12  C   UNL     1      -8.627  -8.437  -5.701  0.00  0.00    +0.048 C 
ATOM     13  C   UNL     1      -7.332  -7.799  -6.208  0.00  0.00    +0.229 C 
ENDBRANCH  11  13
ENDBRANCH   9  11
ENDBRANCH   8   9
ENDBRANCH   3   8
ENDBRANCH   2   4
BRANCH   2  14
ATOM     14  C   UNL     1      -2.122  -4.251  -2.801  0.00  0.00    +0.008 C 
ATOM     15  C   UNL     1      -1.916  -5.040  -1.506  0.00  0.00    +0.009 C 
ATOM     16  C   UNL     1      -0.761  -3.901  -3.406  0.00  0.00    +0.009 C 
ENDBRANCH   2  14
ENDBRANCH   1   2
BRANCH   1  17
ATOM     17  C   UNL     1      -3.030  -7.439  -4.412  0.00  0.00    +0.124 C 
BRANCH  17  18
ATOM     18  C   UNL     1      -3.186  -8.259  -3.158  0.00  0.00    +0.008 A 
ATOM     19  C   UNL     1      -2.393  -9.372  -2.956  0.00  0.00    +0.008 A 
ATOM     20  C   UNL     1      -2.535 -10.125  -1.806  0.00  0.00    +0.001 A 
ATOM     21  C   UNL     1      -3.472  -9.766  -0.853  0.00  0.00    +0.004 A 
ATOM     22  C   UNL     1      -4.267  -8.654  -1.050  0.00  0.00    +0.046 A 
ATOM     23  C   UNL     1      -4.122  -7.894  -2.202  0.00  0.00    +0.124 A 
BRANCH  23  24
ATOM     24  O   UNL     1      -4.900  -6.796  -2.395  0.00  0.00    -0.495 OA
ATOM     25  C   UNL     1      -5.761  -6.413  -1.320  0.00  0.00    +0.277 C 
ENDBRANCH  23  24
ENDBRANCH  17  18
ENDBRANCH   1  17
BRANCH   1  26
ATOM     26  C   UNL     1      -1.261  -6.038  -5.290  0.00  0.00    +0.126 C 
BRANCH  26  27
ATOM     27  C   UNL     1      -0.310  -7.194  -5.465  0.00  0.00    +0.032 A 
ATOM     28  C   UNL     1      -0.608  -8.187  -6.339  0.00  0.00    +0.020 A 
ATOM     29  C   UNL     1       0.337  -9.296  -6.486  0.00  0.00    +0.002 A 
ATOM     30  C   UNL     1       0.085 -10.349  -7.372  0.00  0.00    -0.041 A 
ATOM     31  C   UNL     1       0.987 -11.368  -7.486  0.00  0.00    +0.004 A 
ATOM     32  C   UNL     1       2.151 -11.370  -6.730  0.00  0.00    +0.005 A 
ATOM     33  C   UNL     1       2.420 -10.343  -5.851  0.00  0.00    -0.026 A 
ATOM     34  C   UNL     1       1.516  -9.293  -5.718  0.00  0.00    +0.052 A 
ATOM     35  N   UNL     1       1.760  -8.253  -4.847  0.00  0.00    -0.322 N 
ATOM     36  H   UNL     1       2.574  -8.253  -4.318  0.00  0.00    +0.169 HD
ATOM     37  C   UNL     1       0.889  -7.237  -4.723  0.00  0.00    +0.254 A 
ATOM     38  O   UNL     1       1.140  -6.331  -3.946  0.00  0.00    -0.268 OA
ATOM     39  C   UNL     1       3.687 -10.358  -5.035  0.00  0.00    +0.046 C 
ATOM     40  C   UNL     1      -1.177 -10.358  -8.197  0.00  0.00    +0.044 C 
ENDBRANCH  26  27
ENDBRANCH   1  26
TORSDOF 12
