REMARK  Name = ZINC38684329
REMARK  16 active torsions:
REMARK  status: ('A' for Active; 'I' for Inactive)
REMARK    1  A    between atoms: C_1  and  C_2
REMARK    2  A    between atoms: C_2  and  O_3
REMARK    3  A    between atoms: O_3  and  C_4
REMARK    4  A    between atoms: C_6  and  C_16
REMARK    5  A    between atoms: C_9  and  O_10
REMARK    6  A    between atoms: O_10  and  C_11
REMARK    7  A    between atoms: C_11  and  C_12
REMARK    8  A    between atoms: C_12  and  C_13
REMARK    9  A    between atoms: C_13  and  C_14
REMARK   10  A    between atoms: C_13  and  C_15
REMARK   11  A    between atoms: C_21  and  O_30
REMARK   12  A    between atoms: C_25  and  N_29
REMARK   13  A    between atoms: C_26  and  C_27
REMARK   14  A    between atoms: O_30  and  C_31
REMARK   15  A    between atoms: C_31  and  C_33
REMARK   16  A    between atoms: C_36  and  C_39
REMARK                            x       y       z     vdW  Elec       q    Type
REMARK                         _______ _______ _______ _____ _____    ______ ____
ROOT
ATOM      1  C   UNL     1      -0.276  -4.932   0.505  0.00  0.00    +0.098 C 
ATOM      2  C   UNL     1      -1.308  -5.813  -0.149  0.00  0.00    +0.008 A 
ATOM      3  C   UNL     1      -2.587  -5.327  -0.353  0.00  0.00    +0.012 A 
ATOM      4  C   UNL     1      -3.546  -6.120  -0.951  0.00  0.00    +0.047 A 
ATOM      5  C   UNL     1      -3.228  -7.411  -1.350  0.00  0.00    +0.135 A 
ATOM      6  C   UNL     1      -1.948  -7.901  -1.147  0.00  0.00    +0.093 A 
ATOM      7  C   UNL     1      -0.985  -7.101  -0.545  0.00  0.00    +0.138 A 
ATOM      8  O   UNL     1       0.263  -7.596  -0.354  0.00  0.00    -0.441 OA
ATOM      9  C   UNL     1       1.081  -7.021   0.544  0.00  0.00    +0.199 C 
ATOM     10  C   UNL     1       0.879  -5.762   0.990  0.00  0.00    +0.098 C 
ENDROOT
BRANCH   1  13
ATOM     11  C   UNL     1       0.518  -1.637  -1.163  0.00  0.00    +0.162 A 
ATOM     12  C   UNL     1       0.061  -2.569  -0.246  0.00  0.00    +0.054 A 
ATOM     13  C   UNL     1       0.221  -3.919  -0.494  0.00  0.00    -0.031 A 
ATOM     14  C   UNL     1       0.837  -4.343  -1.658  0.00  0.00    +0.008 A 
ATOM     15  C   UNL     1       1.295  -3.418  -2.577  0.00  0.00    +0.050 A 
ATOM     16  C   UNL     1       1.132  -2.063  -2.337  0.00  0.00    +0.162 A 
BRANCH  11  17
ATOM     17  O   UNL     1       0.361  -0.308  -0.920  0.00  0.00    -0.489 OA
BRANCH  17  19
ATOM     18  C   UNL     1      -0.365   1.581   0.401  0.00  0.00    +0.048 C 
ATOM     19  C   UNL     1      -0.279   0.057   0.305  0.00  0.00    +0.226 C 
ENDBRANCH  17  19
ENDBRANCH  11  17
BRANCH  16  20
ATOM     20  O   UNL     1       1.577  -1.152  -3.243  0.00  0.00    -0.488 OA
BRANCH  20  21
ATOM     21  C   UNL     1       2.198  -1.662  -4.425  0.00  0.00    +0.229 C 
BRANCH  21  22
ATOM     22  C   UNL     1       2.630  -0.497  -5.317  0.00  0.00    +0.044 C 
BRANCH  22  23
ATOM     23  C   UNL     1       3.295  -1.043  -6.583  0.00  0.00    -0.014 C 
ATOM     24  C   UNL     1       2.265  -1.822  -7.404  0.00  0.00    +0.007 C 
ATOM     25  C   UNL     1       3.838   0.119  -7.416  0.00  0.00    +0.007 C 
ENDBRANCH  22  23
ENDBRANCH  21  22
ENDBRANCH  20  21
ENDBRANCH  16  20
ENDBRANCH   1  13
BRANCH   9  26
ATOM     26  N   UNL     1       2.152  -7.734   1.022  0.00  0.00    -0.328 N 
ATOM     27  H   UNL     1       2.310  -8.639   0.711  0.00  0.00    +0.145 HD
ATOM     28  H   UNL     1       2.752  -7.333   1.670  0.00  0.00    +0.145 HD
ENDBRANCH   9  26
BRANCH  10  29
ATOM     29  C   UNL     1       1.788  -5.207   1.947  0.00  0.00    +0.101 C 
ATOM     30  N   UNL     1       2.510  -4.767   2.706  0.00  0.00    -0.191 NA
ENDBRANCH  10  29
BRANCH   5  31
ATOM     31  O   UNL     1      -4.170  -8.193  -1.939  0.00  0.00    -0.422 OA
BRANCH  31  32
ATOM     32  C   UNL     1      -4.585  -7.862  -3.177  0.00  0.00    +0.344 C 
ATOM     33  O   UNL     1      -4.044  -6.953  -3.775  0.00  0.00    -0.245 OA
BRANCH  32  34
ATOM     34  C   UNL     1      -5.696  -8.603  -3.808  0.00  0.00    +0.059 A 
ATOM     35  C   UNL     1      -6.323  -9.644  -3.120  0.00  0.00    +0.015 A 
ATOM     36  C   UNL     1      -7.360 -10.332  -3.715  0.00  0.00    +0.004 A 
ATOM     37  C   UNL     1      -7.780  -9.992  -4.989  0.00  0.00    -0.050 A 
ATOM     38  C   UNL     1      -7.162  -8.962  -5.676  0.00  0.00    +0.004 A 
ATOM     39  C   UNL     1      -6.127  -8.262  -5.091  0.00  0.00    +0.015 A 
ATOM     40  C   UNL     1      -8.913 -10.749  -5.632  0.00  0.00    +0.044 C 
ENDBRANCH  32  34
ENDBRANCH  31  32
ENDBRANCH   5  31
TORSDOF 12
