REMARK  Name = ZINC09663402
REMARK  6 active torsions:
REMARK  status: ('A' for Active; 'I' for Inactive)
REMARK    1  A    between atoms: C_1  and  C_2
REMARK    2  A    between atoms: C_11  and  C_12
REMARK    3  A    between atoms: C_11  and  N_59
REMARK    4  A    between atoms: N_14  and  C_15
REMARK    5  A    between atoms: C_18  and  S_21
REMARK    6  A    between atoms: S_21  and  N_24
REMARK                            x       y       z     vdW  Elec       q    Type
REMARK                         _______ _______ _______ _____ _____    ______ ____
ROOT
ATOM      1  C   UNL     1      -0.708  -4.849  -0.898  0.00  0.00    +0.201 C 
ATOM      2  O   UNL     1      -1.345  -4.250  -1.739  0.00  0.00    -0.278 OA
ATOM      3  N   UNL     1       0.059  -4.170  -0.023  0.00  0.00    -0.287 N 
ATOM      4  H   UNL     1       0.628  -4.651   0.599  0.00  0.00    +0.155 HD
ENDROOT
BRANCH   3   5
ATOM      5  C   UNL     1       0.036  -2.771  -0.010  0.00  0.00    +0.033 A 
ATOM      6  C   UNL     1      -1.137  -2.092  -0.313  0.00  0.00    +0.025 A 
ATOM      7  C   UNL     1      -1.157  -0.711  -0.300  0.00  0.00    +0.030 A 
ATOM      8  C   UNL     1      -0.011  -0.004   0.013  0.00  0.00    +0.106 A 
ATOM      9  C   UNL     1       1.160  -0.677   0.310  0.00  0.00    +0.030 A 
ATOM     10  C   UNL     1       1.185  -2.058   0.304  0.00  0.00    +0.025 A 
BRANCH   8  11
ATOM     11  S   UNL     1      -0.041   1.757   0.028  0.00  0.00    +0.061 S 
ATOM     12  O   UNL     1       1.298   2.188  -0.181  0.00  0.00    -0.153 OA
ATOM     13  O   UNL     1      -1.109   2.153  -0.821  0.00  0.00    -0.153 OA
BRANCH  11  14
ATOM     14  N   UNL     1      -0.455   2.228   1.561  0.00  0.00    -0.177 NA
ATOM     15  C   UNL     1      -1.854   2.412   1.875  0.00  0.00    +0.109 C 
ATOM     16  C   UNL     1      -2.275   3.865   1.567  0.00  0.00    +0.017 C 
ATOM     17  C   UNL     1      -1.681   4.786   2.548  0.00  0.00    +0.001 C 
ATOM     18  C   UNL     1      -0.156   4.822   2.535  0.00  0.00    +0.001 C 
ATOM     19  C   UNL     1       0.377   3.706   3.400  0.00  0.00    +0.017 C 
ATOM     20  C   UNL     1       0.620   2.447   2.549  0.00  0.00    +0.109 C 
ENDBRANCH  11  14
ENDBRANCH   8  11
ENDBRANCH   3   5
BRANCH   1  21
ATOM     21  C   UNL     1      -0.773  -6.353  -0.834  0.00  0.00    +0.020 C 
BRANCH  21  31
ATOM     22  C   UNL     1      -2.681  -8.468  -0.349  0.00  0.00    -0.008 C 
ATOM     23  C   UNL     1      -1.973  -8.273  -1.691  0.00  0.00    -0.039 C 
ATOM     24  C   UNL     1      -2.885  -8.737  -2.823  0.00  0.00    -0.051 A 
ATOM     25  C   UNL     1      -3.661  -9.892  -2.771  0.00  0.00    +0.010 A 
ATOM     26  C   UNL     1      -4.447 -10.228  -3.821  0.00  0.00    +0.045 A 
ATOM     27  S   UNL     1      -4.119  -8.896  -4.967  0.00  0.00    -0.101 S 
ATOM     28  C   UNL     1      -2.967  -7.999  -3.965  0.00  0.00    -0.010 A 
ATOM     29  C   UNL     1      -2.236  -6.731  -4.263  0.00  0.00    +0.024 C 
ATOM     30  C   UNL     1      -1.115  -6.581  -3.221  0.00  0.00    -0.072 C 
ATOM     31  N   UNL     1      -1.699  -6.829  -1.881  0.00  0.00    +0.390 N 
ATOM     32  H   UNL     1      -2.583  -6.312  -1.804  0.00  0.00    -0.080 HD
ENDBRANCH  21  31
ENDBRANCH   1  21
TORSDOF 5
