REMARK  Name = ZINC54361560
REMARK  4 active torsions:
REMARK  status: ('A' for Active; 'I' for Inactive)
REMARK    1  A    between atoms: C_1  and  N_2
REMARK    2  A    between atoms: C_11  and  C_13
REMARK    3  A    between atoms: N_15  and  C_16
REMARK    4  A    between atoms: C_16  and  C_17
REMARK                            x       y       z     vdW  Elec       q    Type
REMARK                         _______ _______ _______ _____ _____    ______ ____
ROOT
ATOM      1  C   UNL     1      -0.018   1.461   0.010  0.00  0.00    +0.130 C 
ATOM      2  N   UNL     1       0.002  -0.004   0.002  0.00  0.00    -0.323 N 
ATOM      3  C   UNL     1       0.006  -0.755  -1.262  0.00  0.00    +0.200 C 
ATOM      4  C   UNL     1      -0.935  -1.926  -1.142  0.00  0.00    +0.235 C 
ATOM      5  O   UNL     1      -1.492  -2.352  -2.132  0.00  0.00    -0.274 OA
ATOM      6  N   UNL     1      -1.166  -2.504   0.052  0.00  0.00    -0.283 N 
ATOM      7  C   UNL     1      -0.572  -1.999   1.216  0.00  0.00    +0.055 A 
ATOM      8  C   UNL     1       0.023  -0.730   1.194  0.00  0.00    +0.051 A 
ATOM      9  C   UNL     1       0.616  -0.209   2.334  0.00  0.00    +0.026 A 
ATOM     10  C   UNL     1       0.629  -0.946   3.500  0.00  0.00    +0.015 A 
ATOM     11  C   UNL     1       0.046  -2.215   3.533  0.00  0.00    +0.039 A 
ATOM     12  C   UNL     1      -0.565  -2.740   2.380  0.00  0.00    +0.038 A 
ATOM     13  H   UNL     1      -1.749  -3.277   0.106  0.00  0.00    +0.155 HD
ENDROOT
BRANCH  11  14
ATOM     14  C   UNL     1       0.062  -3.002   4.780  0.00  0.00    +0.244 C 
ATOM     15  O   UNL     1      -0.445  -4.107   4.809  0.00  0.00    -0.270 OA
ATOM     16  N   UNL     1       0.640  -2.498   5.888  0.00  0.00    -0.307 N 
ATOM     17  H   UNL     1       1.045  -1.616   5.865  0.00  0.00    +0.149 HD
BRANCH  16  18
ATOM     18  C   UNL     1       0.657  -3.280   7.127  0.00  0.00    +0.142 C 
BRANCH  18  19
ATOM     19  C   UNL     1       1.357  -2.495   8.206  0.00  0.00    +0.005 A 
ATOM     20  C   UNL     1       2.677  -2.768   8.514  0.00  0.00    +0.008 A 
ATOM     21  C   UNL     1       3.319  -2.049   9.504  0.00  0.00    +0.000 A 
ATOM     22  C   UNL     1       2.643  -1.056  10.188  0.00  0.00    +0.003 A 
ATOM     23  C   UNL     1       1.324  -0.781   9.882  0.00  0.00    +0.038 A 
ATOM     24  C   UNL     1       0.681  -1.497   8.886  0.00  0.00    +0.128 A 
ATOM     25  F   UNL     1      -0.608  -1.226   8.583  0.00  0.00    -0.205 F 
ENDBRANCH  18  19
ENDBRANCH  16  18
ENDBRANCH  11  14
TORSDOF 3
