REMARK  Name = ZINC12853511
REMARK  6 active torsions:
REMARK  status: ('A' for Active; 'I' for Inactive)
REMARK    1  A    between atoms: C_1  and  C_2
REMARK    2  A    between atoms: C_2  and  C_4
REMARK    3  A    between atoms: C_2  and  N_12
REMARK    4  A    between atoms: N_12  and  C_13
REMARK    5  A    between atoms: C_13  and  C_14
REMARK    6  A    between atoms: C_18  and  C_27
REMARK                            x       y       z     vdW  Elec       q    Type
REMARK                         _______ _______ _______ _____ _____    ______ ____
ROOT
ATOM      1  C   UNL     1      -3.336  -1.100  -1.298  0.00  0.00    +0.234 C 
ATOM      2  O   UNL     1      -3.800  -1.492  -0.248  0.00  0.00    -0.274 OA
ATOM      3  N   UNL     1      -4.078  -1.149  -2.423  0.00  0.00    -0.263 N 
ATOM      4  C   UNL     1      -3.499  -0.806  -3.733  0.00  0.00    +0.168 C 
ATOM      5  C   UNL     1      -4.016  -1.832  -4.751  0.00  0.00    +0.276 C 
ATOM      6  O   UNL     1      -5.444  -1.790  -4.764  0.00  0.00    -0.476 OA
ATOM      7  C   UNL     1      -6.090  -1.848  -3.570  0.00  0.00    +0.143 A 
ATOM      8  C   UNL     1      -5.428  -1.536  -2.387  0.00  0.00    +0.078 A 
ATOM      9  C   UNL     1      -6.100  -1.601  -1.177  0.00  0.00    +0.027 A 
ATOM     10  C   UNL     1      -7.429  -1.984  -1.147  0.00  0.00    +0.002 A 
ATOM     11  C   UNL     1      -8.085  -2.303  -2.321  0.00  0.00    +0.004 A 
ATOM     12  C   UNL     1      -7.423  -2.227  -3.529  0.00  0.00    +0.047 A 
ENDROOT
BRANCH   5  13
ATOM     13  C   UNL     1      -3.485  -1.496  -6.121  0.00  0.00    +0.253 C 
ATOM     14  O   UNL     1      -4.249  -1.166  -7.003  0.00  0.00    -0.272 OA
ATOM     15  N   UNL     1      -2.161  -1.562  -6.366  0.00  0.00    -0.326 N 
ATOM     16  H   UNL     1      -1.550  -1.826  -5.661  0.00  0.00    +0.145 HD
ATOM     17  H   UNL     1      -1.820  -1.345  -7.248  0.00  0.00    +0.145 HD
ENDBRANCH   5  13
BRANCH   1  18
ATOM     18  C   UNL     1      -1.931  -0.558  -1.345  0.00  0.00    +0.178 C 
BRANCH  18  19
ATOM     19  N   UNL     1      -1.384  -0.495   0.017  0.00  0.00    -0.302 NA
ATOM     20  H   UNL     1      -1.424  -1.398   0.465  0.00  0.00    +0.123 HD
BRANCH  19  22
ATOM     21  C   UNL     1      -0.051   1.560   0.024  0.00  0.00    +0.029 C 
ATOM     22  C   UNL     1      -0.012   0.030   0.009  0.00  0.00    +0.083 C 
BRANCH  22  23
ATOM     23  C   UNL     1       0.721  -0.465   1.229  0.00  0.00    -0.012 A 
ATOM     24  C   UNL     1       0.012  -0.925   2.323  0.00  0.00    +0.008 A 
ATOM     25  C   UNL     1       0.684  -1.380   3.441  0.00  0.00    +0.020 A 
ATOM     26  C   UNL     1       2.068  -1.375   3.467  0.00  0.00    +0.042 A 
ATOM     27  C   UNL     1       2.778  -0.915   2.373  0.00  0.00    +0.040 A 
ATOM     28  C   UNL     1       2.104  -0.465   1.252  0.00  0.00    +0.047 A 
ATOM     29 CL   UNL     1       2.995   0.107  -0.124  0.00  0.00    -0.083 Cl
ATOM     30 CL   UNL     1       2.912  -1.945   4.873  0.00  0.00    -0.083 Cl
ENDBRANCH  22  23
ENDBRANCH  19  22
ENDBRANCH  18  19
ENDBRANCH   1  18
TORSDOF 5
