REMARK  Name = ZINC36483691
REMARK  13 active torsions:
REMARK  status: ('A' for Active; 'I' for Inactive)
REMARK    1  A    between atoms: C_1  and  C_2
REMARK    2  A    between atoms: C_2  and  C_3
REMARK    3  A    between atoms: C_3  and  C_4
REMARK    4  A    between atoms: C_3  and  C_6
REMARK    5  A    between atoms: C_4  and  C_5
REMARK    6  A    between atoms: C_6  and  C_8
REMARK    7  A    between atoms: C_6  and  N_22
REMARK    8  A    between atoms: N_10  and  C_11
REMARK    9  A    between atoms: C_11  and  S_12
REMARK   10  A    between atoms: S_12  and  C_15
REMARK   11  A    between atoms: C_18  and  C_21
REMARK   12  A    between atoms: N_22  and  C_23
REMARK   13  A    between atoms: C_30  and  C_32
REMARK                            x       y       z     vdW  Elec       q    Type
REMARK                         _______ _______ _______ _____ _____    ______ ____
ROOT
ATOM      1  C   UNL     1      -3.398   0.786   0.817  0.00  0.00    +0.170 C 
ENDROOT
BRANCH   1   2
ATOM      2  C   UNL     1      -4.849   0.534   0.499  0.00  0.00    +0.235 C 
ATOM      3  O   UNL     1      -5.164   0.089  -0.584  0.00  0.00    -0.274 OA
ATOM      4  N   UNL     1      -5.798   0.804   1.418  0.00  0.00    -0.295 N 
ATOM      5  H   UNL     1      -5.553   1.221   2.259  0.00  0.00    +0.150 HD
BRANCH   4   6
ATOM      6  C   UNL     1      -7.197   0.467   1.147  0.00  0.00    +0.278 C 
BRANCH   6   7
ATOM      7  S   UNL     1      -7.595  -1.126   1.919  0.00  0.00    +0.013 S 
ATOM      8  O   UNL     1      -8.977  -1.417   1.757  0.00  0.00    -0.168 OA
ATOM      9  O   UNL     1      -6.608  -2.092   1.585  0.00  0.00    -0.168 OA
BRANCH   7  10
ATOM     10  C   UNL     1      -7.393  -0.855   3.648  0.00  0.00    +0.090 A 
ATOM     11  C   UNL     1      -6.142  -0.973   4.224  0.00  0.00    +0.027 A 
ATOM     12  C   UNL     1      -5.983  -0.760   5.581  0.00  0.00    +0.005 A 
ATOM     13  C   UNL     1      -7.075  -0.429   6.361  0.00  0.00    -0.050 A 
ATOM     14  C   UNL     1      -8.326  -0.309   5.785  0.00  0.00    +0.005 A 
ATOM     15  C   UNL     1      -8.484  -0.518   4.427  0.00  0.00    +0.027 A 
ATOM     16  C   UNL     1      -6.902  -0.197   7.840  0.00  0.00    +0.044 C 
ENDBRANCH   7  10
ENDBRANCH   6   7
ENDBRANCH   4   6
ENDBRANCH   1   2
BRANCH   1  17
ATOM     17  N   UNL     1      -3.089   2.202   0.600  0.00  0.00    -0.253 N 
ATOM     18  C   UNL     1      -2.480   2.914   1.568  0.00  0.00    +0.287 C 
ATOM     19  O   UNL     1      -2.301   4.109   1.423  0.00  0.00    -0.266 OA
BRANCH  17  20
ATOM     20  C   UNL     1      -3.427   2.813  -0.611  0.00  0.00    +0.039 A 
ATOM     21  C   UNL     1      -3.856   2.043  -1.684  0.00  0.00    +0.023 A 
ATOM     22  C   UNL     1      -4.189   2.649  -2.879  0.00  0.00    +0.003 A 
ATOM     23  C   UNL     1      -4.096   4.023  -3.009  0.00  0.00    +0.020 A 
ATOM     24  C   UNL     1      -3.669   4.794  -1.942  0.00  0.00    +0.043 A 
ATOM     25  C   UNL     1      -3.340   4.193  -0.742  0.00  0.00    +0.043 A 
ATOM     26 CL   UNL     1      -3.553   6.518  -2.110  0.00  0.00    -0.083 Cl
ENDBRANCH  17  20
BRANCH  18  27
ATOM     27  C   UNL     1      -2.032   2.250   2.796  0.00  0.00    +0.190 A 
ATOM     28  C   UNL     1      -1.404   2.850   3.850  0.00  0.00    +0.054 A 
ATOM     29  C   UNL     1      -1.160   1.845   4.799  0.00  0.00    +0.042 A 
ATOM     30  C   UNL     1      -1.643   0.691   4.290  0.00  0.00    +0.196 A 
ATOM     31  O   UNL     1      -2.173   0.940   3.085  0.00  0.00    -0.458 OA
ENDBRANCH  18  27
ENDBRANCH   1  17
BRANCH   1  32
ATOM     32  C   UNL     1      -2.519  -0.073  -0.094  0.00  0.00    +0.018 C 
BRANCH  32  34
ATOM     33  C   UNL     1      -0.790   1.670  -0.553  0.00  0.00    +0.004 C 
ATOM     34  C   UNL     1      -1.052   0.312   0.101  0.00  0.00    +0.002 C 
ENDBRANCH  32  34
BRANCH  32  35
ATOM     35  C   UNL     1      -2.710  -1.550   0.258  0.00  0.00    +0.002 C 
ATOM     36  C   UNL     1      -4.126  -1.986  -0.125  0.00  0.00    +0.004 C 
ENDBRANCH  32  35
ENDBRANCH   1  32
TORSDOF 10
