REMARK  Name = ZINC08410502
REMARK  15 active torsions:
REMARK  status: ('A' for Active; 'I' for Inactive)
REMARK    1  A    between atoms: C_1  and  C_2
REMARK    2  A    between atoms: C_5  and  C_9
REMARK    3  A    between atoms: C_6  and  C_8
REMARK    4  A    between atoms: C_16  and  N_37
REMARK    5  A    between atoms: C_17  and  C_35
REMARK    6  A    between atoms: C_18  and  C_20
REMARK    7  A    between atoms: C_22  and  C_31
REMARK    8  A    between atoms: C_23  and  O_30
REMARK    9  A    between atoms: C_24  and  C_26
REMARK   10  A    between atoms: C_26  and  C_27
REMARK   11  A    between atoms: C_26  and  C_28
REMARK   12  A    between atoms: C_26  and  C_29
REMARK   13  A    between atoms: C_31  and  C_32
REMARK   14  A    between atoms: C_31  and  C_33
REMARK   15  A    between atoms: C_31  and  C_34
REMARK                            x       y       z     vdW  Elec       q    Type
REMARK                         _______ _______ _______ _____ _____    ______ ____
ROOT
ATOM      1  C   UNL     1       0.149  -3.973   0.084  0.00  0.00    +0.101 A 
ATOM      2  C   UNL     1       0.023  -4.875  -0.977  0.00  0.00    +0.054 A 
ATOM      3  C   UNL     1       0.080  -6.139  -0.466  0.00  0.00    +0.223 A 
ATOM      4  N   UNL     1       0.234  -6.035   0.870  0.00  0.00    -0.246 N 
ATOM      5  H   UNL     1       0.304  -6.774   1.495  0.00  0.00    +0.192 HD
ATOM      6  N   UNL     1       0.281  -4.671   1.196  0.00  0.00    -0.171 NA
ATOM      7  O   UNL     1      -0.010  -7.247  -1.243  0.00  0.00    -0.423 OA
ATOM      8  C   UNL     1       0.117  -7.088  -2.576  0.00  0.00    +0.200 C 
ATOM      9  C   UNL     1       0.065  -5.889  -3.198  0.00  0.00    +0.098 C 
ATOM     10  C   UNL     1      -0.148  -4.598  -2.449  0.00  0.00    +0.102 C 
ENDROOT
BRANCH   1  15
ATOM     11  C   UNL     1       0.120   1.772  -0.331  0.00  0.00    +0.044 C 
ATOM     12  C   UNL     1       0.128   0.268  -0.222  0.00  0.00    -0.050 A 
ATOM     13  C   UNL     1       0.919  -0.480  -1.075  0.00  0.00    +0.004 A 
ATOM     14  C   UNL     1       0.930  -1.857  -0.980  0.00  0.00    +0.010 A 
ATOM     15  C   UNL     1       0.142  -2.493  -0.023  0.00  0.00    +0.005 A 
ATOM     16  C   UNL     1      -0.654  -1.734   0.833  0.00  0.00    -0.041 A 
ATOM     17  C   UNL     1      -0.653  -0.357   0.733  0.00  0.00    +0.007 A 
ATOM     18  C   UNL     1      -1.510  -2.415   1.870  0.00  0.00    +0.044 C 
ENDBRANCH   1  15
BRANCH  10  19
ATOM     19  C   UNL     1      -1.539  -4.081  -2.710  0.00  0.00    -0.034 A 
ATOM     20  C   UNL     1      -2.637  -4.821  -2.311  0.00  0.00    +0.012 A 
ATOM     21  C   UNL     1      -3.913  -4.350  -2.550  0.00  0.00    -0.000 A 
ATOM     22  C   UNL     1      -4.093  -3.133  -3.191  0.00  0.00    +0.124 A 
ATOM     23  C   UNL     1      -2.990  -2.392  -3.590  0.00  0.00    -0.000 A 
ATOM     24  C   UNL     1      -1.716  -2.865  -3.344  0.00  0.00    +0.012 A 
BRANCH  23  25
ATOM     25  C   UNL     1      -3.182  -1.070  -4.287  0.00  0.00    -0.009 C 
ATOM     26  C   UNL     1      -1.818  -0.490  -4.665  0.00  0.00    +0.015 C 
ATOM     27  C   UNL     1      -4.018  -1.276  -5.552  0.00  0.00    +0.015 C 
ATOM     28  C   UNL     1      -3.906  -0.100  -3.350  0.00  0.00    +0.015 C 
ENDBRANCH  23  25
BRANCH  21  29
ATOM     29  C   UNL     1      -5.109  -5.157  -2.115  0.00  0.00    -0.009 C 
ATOM     30  C   UNL     1      -4.636  -6.446  -1.439  0.00  0.00    +0.015 C 
ATOM     31  C   UNL     1      -5.944  -4.340  -1.127  0.00  0.00    +0.015 C 
ATOM     32  C   UNL     1      -5.961  -5.506  -3.337  0.00  0.00    +0.015 C 
ENDBRANCH  21  29
BRANCH  22  33
ATOM     33  O   UNL     1      -5.348  -2.667  -3.428  0.00  0.00    -0.506 OA
ATOM     34  H   UNL     1      -5.705  -2.120  -2.715  0.00  0.00    +0.292 HD
ENDBRANCH  22  33
ENDBRANCH  10  19
BRANCH   8  35
ATOM     35  N   UNL     1       0.310  -8.208  -3.346  0.00  0.00    -0.328 N 
ATOM     36  H   UNL     1       0.352  -9.083  -2.928  0.00  0.00    +0.145 HD
ATOM     37  H   UNL     1       0.405  -8.126  -4.307  0.00  0.00    +0.145 HD
ENDBRANCH   8  35
BRANCH   9  38
ATOM     38  C   UNL     1       0.218  -5.844  -4.621  0.00  0.00    +0.101 C 
ATOM     39  N   UNL     1       0.340  -5.808  -5.750  0.00  0.00    -0.191 NA
ENDBRANCH   9  38
TORSDOF 7
