REMARK  Name = ZINC35846043
REMARK  14 active torsions:
REMARK  status: ('A' for Active; 'I' for Inactive)
REMARK    1  A    between atoms: C_1  and  C_2
REMARK    2  A    between atoms: C_2  and  N_3
REMARK    3  A    between atoms: N_3  and  C_4
REMARK    4  A    between atoms: N_3  and  C_6
REMARK    5  A    between atoms: C_4  and  C_5
REMARK    6  A    between atoms: C_6  and  C_7
REMARK    7  A    between atoms: C_7  and  C_8
REMARK    8  A    between atoms: C_8  and  C_9
REMARK    9  A    between atoms: C_9  and  C_11
REMARK   10  A    between atoms: C_9  and  N_12
REMARK   11  A    between atoms: C_13  and  C_15
REMARK   12  A    between atoms: C_18  and  C_20
REMARK   13  A    between atoms: C_20  and  N_21
REMARK   14  A    between atoms: C_29  and  C_31
REMARK                            x       y       z     vdW  Elec       q    Type
REMARK                         _______ _______ _______ _____ _____    ______ ____
ROOT
ATOM      1  C   UNL     1       5.854  -3.848  -4.440  0.00  0.00    +0.189 A 
ATOM      2  C   UNL     1       6.818  -3.674  -5.391  0.00  0.00    +0.055 A 
ATOM      3  C   UNL     1       8.023  -3.451  -4.708  0.00  0.00    +0.043 A 
ATOM      4  C   UNL     1       7.746  -3.498  -3.386  0.00  0.00    +0.090 A 
ATOM      5  O   UNL     1       6.436  -3.733  -3.229  0.00  0.00    -0.457 OA
ENDROOT
BRANCH   1   7
ATOM      6  N   UNL     1       3.581  -4.257  -3.657  0.00  0.00    -0.306 N 
ATOM      7  C   UNL     1       4.432  -4.109  -4.691  0.00  0.00    +0.280 C 
ATOM      8  O   UNL     1       4.022  -4.192  -5.834  0.00  0.00    -0.267 OA
ATOM      9  H   UNL     1       3.909  -4.191  -2.746  0.00  0.00    +0.149 HD
BRANCH   6  10
ATOM     10  C   UNL     1       2.162  -4.517  -3.908  0.00  0.00    +0.070 C 
ATOM     11  C   UNL     1       1.946  -6.019  -4.109  0.00  0.00    +0.028 C 
BRANCH  10  12
ATOM     12  C   UNL     1       1.336  -4.039  -2.711  0.00  0.00    +0.020 C 
BRANCH  12  13
ATOM     13  C   UNL     1       1.453  -2.519  -2.586  0.00  0.00    -0.017 C 
BRANCH  13  14
ATOM     14  C   UNL     1       0.628  -2.041  -1.389  0.00  0.00    -0.079 C 
BRANCH  14  15
ATOM     15  N   UNL     1       0.826  -0.598  -1.203  0.00  0.00    +0.379 N 
ATOM     16  H   UNL     1       1.813  -0.402  -1.119  0.00  0.00    -0.082 HD
BRANCH  15  18
ATOM     17  C   UNL     1       0.597   1.616  -2.224  0.00  0.00    -0.017 C 
ATOM     18  C   UNL     1       0.280   0.126  -2.359  0.00  0.00    -0.082 C 
ENDBRANCH  15  18
BRANCH  15  19
ATOM     19  C   UNL     1       0.136  -0.162   0.018  0.00  0.00    -0.082 C 
ATOM     20  C   UNL     1       0.810  -0.793   1.238  0.00  0.00    -0.017 C 
ENDBRANCH  15  19
ENDBRANCH  14  15
ENDBRANCH  13  14
ENDBRANCH  12  13
ENDBRANCH  10  12
ENDBRANCH   6  10
ENDBRANCH   1   7
BRANCH   4  21
ATOM     21  C   UNL     1       8.744  -3.313  -2.273  0.00  0.00    -0.002 C 
BRANCH  21  22
ATOM     22  N   UNL     1       8.819  -1.891  -1.914  0.00  0.00    +0.394 N 
ATOM     23  C   UNL     1       7.527  -1.456  -1.368  0.00  0.00    -0.055 C 
ATOM     24  C   UNL     1       7.484   0.075  -1.285  0.00  0.00    +0.103 C 
ATOM     25  N   UNL     1       8.697   0.526  -0.590  0.00  0.00    -0.353 N 
ATOM     26  C   UNL     1       8.943   1.737  -0.032  0.00  0.00    +0.086 A 
ATOM     27  C   UNL     1      10.183   1.709   0.504  0.00  0.00    +0.019 A 
ATOM     28  C   UNL     1      10.720   0.427   0.262  0.00  0.00    +0.021 A 
ATOM     29  C   UNL     1       9.795  -0.274  -0.409  0.00  0.00    +0.009 A 
ATOM     30  C   UNL     1       9.880  -1.694  -0.911  0.00  0.00    +0.011 C 
ATOM     31  H   UNL     1       9.033  -1.348  -2.738  0.00  0.00    -0.080 HD
BRANCH  30  32
ATOM     32  C   UNL     1      11.227  -1.931  -1.543  0.00  0.00    -0.055 A 
ATOM     33  C   UNL     1      11.481  -1.471  -2.821  0.00  0.00    +0.004 A 
ATOM     34  C   UNL     1      12.717  -1.688  -3.401  0.00  0.00    +0.020 A 
ATOM     35  C   UNL     1      13.700  -2.365  -2.702  0.00  0.00    +0.041 A 
ATOM     36  C   UNL     1      13.445  -2.825  -1.422  0.00  0.00    +0.020 A 
ATOM     37  C   UNL     1      12.211  -2.603  -0.841  0.00  0.00    +0.004 A 
ATOM     38 CL   UNL     1      15.252  -2.638  -3.430  0.00  0.00    -0.084 Cl
ENDBRANCH  30  32
ENDBRANCH  21  22
ENDBRANCH   4  21
TORSDOF 11
