REMARK  Name = ZINC30364313
REMARK  7 active torsions:
REMARK  status: ('A' for Active; 'I' for Inactive)
REMARK    1  A    between atoms: C_1  and  C_2
REMARK    2  A    between atoms: C_2  and  C_3
REMARK    3  A    between atoms: C_2  and  C_4
REMARK    4  A    between atoms: N_13  and  S_14
REMARK    5  A    between atoms: S_14  and  C_17
REMARK    6  A    between atoms: C_21  and  S_23
REMARK    7  A    between atoms: S_23  and  N_26
REMARK                            x       y       z     vdW  Elec       q    Type
REMARK                         _______ _______ _______ _____ _____    ______ ____
ROOT
ATOM      1  S   UNL     1       2.318   5.528  -0.348  0.00  0.00    +0.075 S 
ATOM      2  O   UNL     1       3.642   5.885  -0.724  0.00  0.00    -0.150 OA
ATOM      3  O   UNL     1       1.199   5.753  -1.195  0.00  0.00    -0.150 OA
ENDROOT
BRANCH   1  13
ATOM      4  C   UNL     1      -1.220   1.747   0.016  0.00  0.00    -0.044 A 
ATOM      5  C   UNL     1      -1.246   3.130   0.028  0.00  0.00    +0.006 A 
ATOM      6  C   UNL     1      -0.063   3.841   0.019  0.00  0.00    +0.025 A 
ATOM      7  C   UNL     1       1.154   3.167   0.003  0.00  0.00    +0.054 A 
ATOM      8  C   UNL     1       1.179   1.781   0.000  0.00  0.00    -0.024 A 
ATOM      9  C   UNL     1      -0.012   1.076   0.007  0.00  0.00    +0.009 A 
ATOM     10  C   UNL     1       2.478   1.018  -0.006  0.00  0.00    +0.038 C 
ATOM     11  C   UNL     1       3.616   1.903  -0.515  0.00  0.00    +0.025 C 
ATOM     12  C   UNL     1       3.609   3.221   0.271  0.00  0.00    +0.132 C 
ATOM     13  N   UNL     1       2.341   3.907  -0.013  0.00  0.00    -0.203 N 
BRANCH   4  15
ATOM     14  C   UNL     1      -3.314   1.319   1.272  0.00  0.00    +0.012 C 
ATOM     15  C   UNL     1      -2.511   0.970   0.018  0.00  0.00    +0.013 C 
ATOM     16  C   UNL     1      -3.325   1.332  -1.226  0.00  0.00    +0.012 C 
ENDBRANCH   4  15
ENDBRANCH   1  13
BRANCH   1  17
ATOM     17  C   UNL     1       1.981   6.367   1.165  0.00  0.00    +0.111 A 
ATOM     18  C   UNL     1       0.675   6.638   1.529  0.00  0.00    +0.029 A 
ATOM     19  C   UNL     1       0.411   7.292   2.717  0.00  0.00    +0.004 A 
ATOM     20  C   UNL     1       1.452   7.684   3.537  0.00  0.00    +0.028 A 
ATOM     21  C   UNL     1       2.758   7.418   3.171  0.00  0.00    +0.107 A 
ATOM     22  C   UNL     1       3.023   6.760   1.984  0.00  0.00    +0.057 A 
BRANCH  21  23
ATOM     23  S   UNL     1       4.086   7.919   4.215  0.00  0.00    +0.056 S 
ATOM     24  O   UNL     1       3.551   8.031   5.527  0.00  0.00    -0.153 OA
ATOM     25  O   UNL     1       5.184   7.070   3.911  0.00  0.00    -0.153 OA
BRANCH  23  26
ATOM     26  N   UNL     1       4.525   9.446   3.751  0.00  0.00    -0.204 NA
ATOM     27  H   UNL     1       5.355   9.797   4.381  0.00  0.00    +0.144 HD
ATOM     28  H   UNL     1       3.667  10.125   3.864  0.00  0.00    +0.144 HD
ENDBRANCH  23  26
ENDBRANCH  21  23
ENDBRANCH   1  17
TORSDOF 5
