REMARK  Name = ZINC32971979
REMARK  18 active torsions:
REMARK  status: ('A' for Active; 'I' for Inactive)
REMARK    1  A    between atoms: C_1  and  C_2
REMARK    2  A    between atoms: C_5  and  C_8
REMARK    3  A    between atoms: C_8  and  S_9
REMARK    4  A    between atoms: S_9  and  C_10
REMARK    5  A    between atoms: C_10  and  C_11
REMARK    6  A    between atoms: N_13  and  C_14
REMARK    7  A    between atoms: N_13  and  C_15
REMARK    8  A    between atoms: C_15  and  C_16
REMARK    9  A    between atoms: N_18  and  C_19
REMARK   10  A    between atoms: N_18  and  C_23
REMARK   11  A    between atoms: C_19  and  C_20
REMARK   12  A    between atoms: C_20  and  C_21
REMARK   13  A    between atoms: C_20  and  C_22
REMARK   14  A    between atoms: C_24  and  N_36
REMARK   15  A    between atoms: N_25  and  C_32
REMARK   16  A    between atoms: C_32  and  C_33
REMARK   17  A    between atoms: C_33  and  C_34
REMARK   18  A    between atoms: C_33  and  C_35
REMARK                            x       y       z     vdW  Elec       q    Type
REMARK                         _______ _______ _______ _____ _____    ______ ____
ROOT
ATOM      1  C   UNL     1      -0.109   2.527  -7.490  0.00  0.00    +0.237 C 
ATOM      2  O   UNL     1       0.998   2.707  -7.026  0.00  0.00    -0.274 OA
ATOM      3  N   UNL     1      -0.539   3.283  -8.521  0.00  0.00    -0.263 N 
ENDROOT
BRANCH   3   4
ATOM      4  C   UNL     1       0.259   4.343  -9.000  0.00  0.00    +0.140 A 
ATOM      5  C   UNL     1       0.590   5.399  -8.175  0.00  0.00    +0.127 A 
ATOM      6  N   UNL     1       1.370   6.419  -8.670  0.00  0.00    -0.280 N 
ATOM      7  C   UNL     1       1.805   6.387  -9.943  0.00  0.00    +0.331 A 
ATOM      8  O   UNL     1       2.493   7.298 -10.361  0.00  0.00    -0.246 OA
ATOM      9  N   UNL     1       1.492   5.366 -10.761  0.00  0.00    -0.273 N 
ATOM     10  H   UNL     1       1.855   5.362 -11.799  0.00  0.00    +0.173 HD
ATOM     11  C   UNL     1       0.736   4.340 -10.324  0.00  0.00    +0.277 A 
ATOM     12  O   UNL     1       0.462   3.417 -11.072  0.00  0.00    -0.266 OA
BRANCH   5  13
ATOM     13  N   UNL     1       0.146   5.432  -6.875  0.00  0.00    -0.343 N 
ATOM     14  H   UNL     1       0.413   6.277  -6.224  0.00  0.00    +0.144 HD
ATOM     15  H   UNL     1      -0.478   4.614  -6.486  0.00  0.00    +0.144 HD
ENDBRANCH   5  13
BRANCH   6  16
ATOM     16  C   UNL     1       1.730   7.546  -7.806  0.00  0.00    +0.131 C 
BRANCH  16  17
ATOM     17  C   UNL     1       3.042   7.235  -7.082  0.00  0.00    +0.003 C 
ATOM     18  C   UNL     1       3.482   8.459  -6.277  0.00  0.00    +0.009 C 
ATOM     19  C   UNL     1       2.835   6.050  -6.137  0.00  0.00    +0.009 C 
ENDBRANCH  16  17
ENDBRANCH   6  16
ENDBRANCH   3   4
BRANCH   1  20
ATOM     20  C   UNL     1      -1.003   1.460  -6.913  0.00  0.00    +0.203 C 
BRANCH  20  23
ATOM     21  C   UNL     1      -0.434   1.252  -4.553  0.00  0.00    +0.226 C 
ATOM     22  O   UNL     1      -1.117   2.229  -4.332  0.00  0.00    -0.275 OA
ATOM     23  N   UNL     1      -0.311   0.786  -5.811  0.00  0.00    -0.295 N 
ATOM     24  C   UNL     1       0.514  -0.395  -6.078  0.00  0.00    +0.132 C 
BRANCH  21  25
ATOM     25  C   UNL     1       0.277   0.558  -3.420  0.00  0.00    +0.165 C 
BRANCH  25  26
ATOM     26  S   UNL     1      -0.083   1.417  -1.863  0.00  0.00    -0.147 S 
BRANCH  26  27
ATOM     27  C   UNL     1       0.835   0.471  -0.617  0.00  0.00    +0.104 C 
BRANCH  27  32
ATOM     28  C   UNL     1       0.007   2.833   4.591  0.00  0.00    +0.044 C 
ATOM     29  C   UNL     1       0.223   2.217   3.233  0.00  0.00    -0.050 A 
ATOM     30  C   UNL     1      -0.632   1.231   2.778  0.00  0.00    +0.003 A 
ATOM     31  C   UNL     1      -0.434   0.666   1.532  0.00  0.00    +0.005 A 
ATOM     32  C   UNL     1       0.619   1.087   0.741  0.00  0.00    -0.038 A 
ATOM     33  C   UNL     1       1.477   2.070   1.199  0.00  0.00    +0.005 A 
ATOM     34  C   UNL     1       1.276   2.638   2.443  0.00  0.00    +0.003 A 
ENDBRANCH  27  32
ENDBRANCH  26  27
ENDBRANCH  25  26
ENDBRANCH  21  25
ENDBRANCH  20  23
ENDBRANCH   1  20
BRANCH   3  35
ATOM     35  C   UNL     1      -1.834   3.002  -9.145  0.00  0.00    +0.117 C 
BRANCH  35  36
ATOM     36  C   UNL     1      -2.940   3.724  -8.373  0.00  0.00    +0.001 C 
ATOM     37  C   UNL     1      -2.755   5.236  -8.512  0.00  0.00    +0.009 C 
ATOM     38  C   UNL     1      -4.303   3.322  -8.939  0.00  0.00    +0.009 C 
ENDBRANCH  35  36
ENDBRANCH   3  35
TORSDOF 12
