REMARK  Name = ZINC06195617
REMARK  14 active torsions:
REMARK  status: ('A' for Active; 'I' for Inactive)
REMARK    1  A    between atoms: C_1  and  C_2
REMARK    2  A    between atoms: C_5  and  C_36
REMARK    3  A    between atoms: C_6  and  N_8
REMARK    4  A    between atoms: N_8  and  C_9
REMARK    5  A    between atoms: C_9  and  C_11
REMARK    6  A    between atoms: C_9  and  C_17
REMARK    7  A    between atoms: N_19  and  C_20
REMARK    8  A    between atoms: C_20  and  C_21
REMARK    9  A    between atoms: C_21  and  C_22
REMARK   10  A    between atoms: C_22  and  C_23
REMARK   11  A    between atoms: C_22  and  C_24
REMARK   12  A    between atoms: C_25  and  C_27
REMARK   13  A    between atoms: C_28  and  N_35
REMARK   14  A    between atoms: C_29  and  C_32
REMARK                            x       y       z     vdW  Elec       q    Type
REMARK                         _______ _______ _______ _____ _____    ______ ____
ROOT
ATOM      1  N   UNL     1      -3.166   3.183   0.190  0.00  0.00    -0.251 N 
ATOM      2  C   UNL     1      -3.977   3.430  -0.858  0.00  0.00    +0.262 C 
ATOM      3  O   UNL     1      -4.706   4.405  -0.846  0.00  0.00    -0.269 OA
ENDROOT
BRANCH   1   9
ATOM      4  C   UNL     1       1.182   1.165  -0.901  0.00  0.00    +0.044 C 
ATOM      5  C   UNL     1      -0.216   1.056  -0.347  0.00  0.00    -0.049 A 
ATOM      6  C   UNL     1      -0.671  -0.152   0.148  0.00  0.00    +0.004 A 
ATOM      7  C   UNL     1      -1.952  -0.256   0.657  0.00  0.00    +0.005 A 
ATOM      8  C   UNL     1      -2.784   0.847   0.668  0.00  0.00    -0.029 A 
ATOM      9  C   UNL     1      -2.328   2.063   0.176  0.00  0.00    +0.041 A 
ATOM     10  C   UNL     1      -1.040   2.164  -0.335  0.00  0.00    +0.027 A 
ATOM     11  C   UNL     1      -4.183   0.731   1.217  0.00  0.00    +0.045 C 
ENDBRANCH   1   9
BRANCH   2  12
ATOM     12  C   UNL     1      -3.981   2.528  -2.010  0.00  0.00    +0.116 A 
ATOM     13  C   UNL     1      -4.732   2.596  -3.185  0.00  0.00    +0.076 A 
ATOM     14  C   UNL     1      -4.455   1.543  -4.058  0.00  0.00    +0.155 A 
ATOM     15  N   UNL     1      -3.566   0.638  -3.712  0.00  0.00    -0.203 NA
ATOM     16  S   UNL     1      -3.023   1.053  -2.292  0.00  0.00    +0.019 S 
BRANCH  14  17
ATOM     17  C   UNL     1      -5.153   1.446  -5.353  0.00  0.00    +0.262 C 
ATOM     18  O   UNL     1      -5.975   2.286  -5.665  0.00  0.00    -0.269 OA
ATOM     19  N   UNL     1      -4.881   0.426  -6.190  0.00  0.00    -0.324 N 
ATOM     20  H   UNL     1      -4.225  -0.245  -5.941  0.00  0.00    +0.145 HD
ATOM     21  H   UNL     1      -5.340   0.361  -7.042  0.00  0.00    +0.145 HD
ENDBRANCH  14  17
BRANCH  13  22
ATOM     22  N   UNL     1      -5.652   3.600  -3.455  0.00  0.00    -0.355 N 
ATOM     23  H   UNL     1      -5.802   4.307  -2.809  0.00  0.00    +0.142 HD
ATOM     24  H   UNL     1      -6.145   3.594  -4.291  0.00  0.00    +0.142 HD
ENDBRANCH  13  22
ENDBRANCH   2  12
BRANCH   1  25
ATOM     25  C   UNL     1      -3.162   4.086   1.343  0.00  0.00    +0.198 C 
BRANCH  25  26
ATOM     26  C   UNL     1      -2.596   5.421   0.934  0.00  0.00    -0.015 A 
ATOM     27  C   UNL     1      -1.414   5.500   0.213  0.00  0.00    +0.025 A 
ATOM     28  C   UNL     1      -0.927   6.741  -0.149  0.00  0.00    +0.111 A 
ATOM     29  N   UNL     1      -1.568   7.843   0.192  0.00  0.00    -0.263 NA
ATOM     30  C   UNL     1      -2.691   7.806   0.882  0.00  0.00    +0.111 A 
ATOM     31  C   UNL     1      -3.241   6.600   1.274  0.00  0.00    +0.025 A 
ENDBRANCH  25  26
BRANCH  25  32
ATOM     32  C   UNL     1      -2.315   3.496   2.441  0.00  0.00    +0.238 C 
ATOM     33  O   UNL     1      -1.236   3.007   2.178  0.00  0.00    -0.273 OA
ATOM     34  N   UNL     1      -2.755   3.511   3.714  0.00  0.00    -0.313 N 
ATOM     35  H   UNL     1      -3.618   3.901   3.925  0.00  0.00    +0.149 HD
BRANCH  34  36
ATOM     36  C   UNL     1      -1.931   2.937   4.781  0.00  0.00    +0.104 C 
BRANCH  36  37
ATOM     37  C   UNL     1      -2.658   3.082   6.120  0.00  0.00    +0.022 C 
BRANCH  37  38
ATOM     38  C   UNL     1      -1.797   2.483   7.234  0.00  0.00    -0.016 C 
ATOM     39  C   UNL     1      -0.511   3.299   7.381  0.00  0.00    +0.007 C 
ATOM     40  C   UNL     1      -2.574   2.515   8.552  0.00  0.00    +0.007 C 
ENDBRANCH  37  38
ENDBRANCH  36  37
ENDBRANCH  34  36
ENDBRANCH  25  32
ENDBRANCH   1  25
TORSDOF 10
