REMARK  Name = ZINC20842243
REMARK  12 active torsions:
REMARK  status: ('A' for Active; 'I' for Inactive)
REMARK    1  A    between atoms: C_1  and  C_2
REMARK    2  A    between atoms: C_2  and  C_3
REMARK    3  A    between atoms: C_2  and  C_4
REMARK    4  A    between atoms: C_2  and  C_5
REMARK    5  A    between atoms: C_8  and  S_11
REMARK    6  A    between atoms: N_9  and  N_10
REMARK    7  A    between atoms: S_11  and  C_12
REMARK    8  A    between atoms: C_12  and  C_13
REMARK    9  A    between atoms: N_15  and  C_16
REMARK   10  A    between atoms: C_19  and  S_22
REMARK   11  A    between atoms: S_22  and  N_25
REMARK   12  A    between atoms: N_25  and  C_26
REMARK                            x       y       z     vdW  Elec       q    Type
REMARK                         _______ _______ _______ _____ _____    ______ ____
ROOT
ATOM      1  C   UNL     1       1.025   7.735   0.516  0.00  0.00    +0.227 C 
ATOM      2  O   UNL     1       2.221   7.938   0.524  0.00  0.00    -0.275 OA
ATOM      3  N   UNL     1       0.166   8.771   0.442  0.00  0.00    -0.285 N 
ATOM      4  H   UNL     1      -0.915   8.584   0.357  0.00  0.00    +0.155 HD
ENDROOT
BRANCH   3   5
ATOM      5  C   UNL     1       0.649  10.084   0.474  0.00  0.00    +0.034 A 
ATOM      6  C   UNL     1      -0.085  11.080   1.103  0.00  0.00    +0.025 A 
ATOM      7  C   UNL     1       0.397  12.374   1.137  0.00  0.00    +0.030 A 
ATOM      8  C   UNL     1       1.604  12.680   0.537  0.00  0.00    +0.109 A 
ATOM      9  C   UNL     1       2.335  11.691  -0.096  0.00  0.00    +0.030 A 
ATOM     10  C   UNL     1       1.861  10.394  -0.129  0.00  0.00    +0.025 A 
BRANCH   8  11
ATOM     11  S   UNL     1       2.213  14.333   0.577  0.00  0.00    +0.072 S 
ATOM     12  O   UNL     1       1.698  14.926   1.761  0.00  0.00    -0.150 OA
ATOM     13  O   UNL     1       3.606  14.259   0.306  0.00  0.00    -0.150 OA
BRANCH  11  14
ATOM     14  N   UNL     1       1.524  15.139  -0.695  0.00  0.00    -0.216 N 
ATOM     15  H   UNL     1       2.158  15.535  -1.503  0.00  0.00    +0.174 HD
BRANCH  14  16
ATOM     16  C   UNL     1       0.138  15.316  -0.743  0.00  0.00    +0.048 A 
ATOM     17  C   UNL     1      -0.630  14.561  -1.619  0.00  0.00    +0.027 A 
ATOM     18  C   UNL     1      -1.999  14.734  -1.661  0.00  0.00    +0.040 A 
ATOM     19  C   UNL     1      -2.606  15.668  -0.838  0.00  0.00    +0.124 A 
ATOM     20  C   UNL     1      -1.841  16.426   0.033  0.00  0.00    +0.040 A 
ATOM     21  C   UNL     1      -0.472  16.252   0.083  0.00  0.00    +0.027 A 
ATOM     22  F   UNL     1      -3.945  15.839  -0.884  0.00  0.00    -0.205 F 
ENDBRANCH  14  16
ENDBRANCH  11  14
ENDBRANCH   8  11
ENDBRANCH   3   5
BRANCH   1  23
ATOM     23  C   UNL     1       0.500   6.324   0.588  0.00  0.00    +0.173 C 
BRANCH  23  24
ATOM     24  S   UNL     1       1.889   5.167   0.678  0.00  0.00    -0.075 S 
BRANCH  24  28
ATOM     25  C   UNL     1       0.501   1.526   0.865  0.00  0.00    +0.156 A 
ATOM     26  N   UNL     1      -0.587   2.239   0.800  0.00  0.00    -0.131 NA
ATOM     27  N   UNL     1      -0.293   3.489   0.739  0.00  0.00    -0.121 NA
ATOM     28  C   UNL     1       1.011   3.641   0.751  0.00  0.00    +0.209 A 
ATOM     29  N   UNL     1       1.559   2.393   0.832  0.00  0.00    -0.227 N 
BRANCH  25  31
ATOM     30  C   UNL     1       1.308  -0.375   2.239  0.00  0.00    +0.019 C 
ATOM     31  C   UNL     1       0.581   0.023   0.952  0.00  0.00    +0.024 C 
ATOM     32  C   UNL     1      -0.833  -0.562   0.963  0.00  0.00    +0.019 C 
ATOM     33  C   UNL     1       1.348  -0.518  -0.256  0.00  0.00    +0.019 C 
ENDBRANCH  25  31
BRANCH  29  34
ATOM     34  N   UNL     1       2.887   2.075   0.871  0.00  0.00    -0.295 N 
ATOM     35  H   UNL     1       3.644   2.873   0.838  0.00  0.00    +0.163 HD
ATOM     36  H   UNL     1       3.199   1.023   0.937  0.00  0.00    +0.163 HD
ENDBRANCH  29  34
ENDBRANCH  24  28
ENDBRANCH  23  24
ENDBRANCH   1  23
TORSDOF 9
