REMARK  Name = ZINC39666079
REMARK  9 active torsions:
REMARK  status: ('A' for Active; 'I' for Inactive)
REMARK    1  A    between atoms: C_1  and  C_2
REMARK    2  A    between atoms: C_5  and  O_8
REMARK    3  A    between atoms: O_8  and  C_9
REMARK    4  A    between atoms: C_9  and  C_11
REMARK    5  A    between atoms: C_9  and  C_12
REMARK    6  A    between atoms: C_12  and  N_13
REMARK    7  A    between atoms: C_14  and  C_16
REMARK    8  A    between atoms: C_27  and  C_29
REMARK    9  A    between atoms: C_29  and  C_35
REMARK                            x       y       z     vdW  Elec       q    Type
REMARK                         _______ _______ _______ _____ _____    ______ ____
ROOT
ATOM      1  C   UNL     1      -4.173  -6.843  -0.188  0.00  0.00    +0.100 C 
ATOM      2  C   UNL     1      -3.964  -6.354  -1.639  0.00  0.00    +0.121 C 
ATOM      3  N   UNL     1      -4.004  -7.587  -2.460  0.00  0.00    -0.300 N 
ATOM      4  C   UNL     1      -5.077  -8.405  -1.844  0.00  0.00    +0.115 C 
ATOM      5  C   UNL     1      -4.906  -8.188  -0.328  0.00  0.00    -0.004 C 
ATOM      6  C   UNL     1      -4.068  -9.312   0.274  0.00  0.00    -0.010 C 
ATOM      7  C   UNL     1      -4.842 -10.629   0.175  0.00  0.00    -0.082 C 
ATOM      8  N   UNL     1      -6.117 -10.505   0.892  0.00  0.00    +0.379 N 
ATOM      9  C   UNL     1      -6.955  -9.485   0.250  0.00  0.00    -0.082 C 
ATOM     10  C   UNL     1      -6.270  -8.119   0.352  0.00  0.00    -0.010 C 
ATOM     11  C   UNL     1      -3.239  -7.894  -3.526  0.00  0.00    +0.222 C 
ATOM     12  O   UNL     1      -2.458  -7.079  -3.968  0.00  0.00    -0.275 OA
ATOM     13  H   UNL     1      -6.598 -11.392   0.877  0.00  0.00    -0.086 HD
ATOM     14  H   UNL     1      -5.938 -10.238   1.849  0.00  0.00    -0.086 HD
ENDROOT
BRANCH  11  15
ATOM     15  C   UNL     1      -3.354  -9.253  -4.168  0.00  0.00    +0.044 C 
ATOM     16  C   UNL     1      -2.981 -10.332  -3.150  0.00  0.00    +0.016 C 
ATOM     17  C   UNL     1      -1.542 -10.111  -2.677  0.00  0.00    +0.001 C 
ATOM     18  C   UNL     1      -0.594 -10.191  -3.875  0.00  0.00    +0.000 C 
ATOM     19  C   UNL     1      -0.967  -9.111  -4.894  0.00  0.00    +0.001 C 
ATOM     20  C   UNL     1      -2.405  -9.332  -5.366  0.00  0.00    +0.016 C 
ATOM     21  C   UNL     1      -4.792  -9.473  -4.641  0.00  0.00    +0.021 C 
ENDBRANCH  11  15
BRANCH   1  23
ATOM     22  N   UNL     1      -2.773  -7.037   1.842  0.00  0.00    -0.312 N 
ATOM     23  C   UNL     1      -2.845  -7.038   0.496  0.00  0.00    +0.218 C 
ATOM     24  O   UNL     1      -1.840  -7.197  -0.164  0.00  0.00    -0.275 OA
ATOM     25  H   UNL     1      -3.577  -6.910   2.370  0.00  0.00    +0.149 HD
BRANCH  22  26
ATOM     26  C   UNL     1      -1.482  -7.227   2.507  0.00  0.00    +0.148 C 
BRANCH  26  27
ATOM     27  C   UNL     1      -1.678  -7.183   4.024  0.00  0.00    +0.187 C 
ATOM     28  C   UNL     1      -0.330  -7.381   4.719  0.00  0.00    +0.053 C 
BRANCH  27  29
ATOM     29  O   UNL     1      -2.225  -5.917   4.397  0.00  0.00    -0.488 OA
BRANCH  29  34
ATOM     30  C   UNL     1      -5.017  -5.676   9.283  0.00  0.00    +0.044 C 
ATOM     31  C   UNL     1      -4.270  -5.741   7.975  0.00  0.00    -0.050 A 
ATOM     32  C   UNL     1      -3.783  -6.951   7.518  0.00  0.00    +0.007 A 
ATOM     33  C   UNL     1      -3.098  -7.013   6.320  0.00  0.00    +0.046 A 
ATOM     34  C   UNL     1      -2.899  -5.859   5.576  0.00  0.00    +0.121 A 
ATOM     35  C   UNL     1      -3.389  -4.646   6.037  0.00  0.00    +0.046 A 
ATOM     36  C   UNL     1      -4.078  -4.590   7.233  0.00  0.00    +0.007 A 
ENDBRANCH  29  34
ENDBRANCH  27  29
ENDBRANCH  26  27
ENDBRANCH  22  26
ENDBRANCH   1  23
TORSDOF 6
