REMARK  Name = ZINC10395940
REMARK  11 active torsions:
REMARK  status: ('A' for Active; 'I' for Inactive)
REMARK    1  A    between atoms: C_1  and  C_2
REMARK    2  A    between atoms: C_3  and  C_34
REMARK    3  A    between atoms: C_7  and  N_33
REMARK    4  A    between atoms: C_9  and  C_11
REMARK    5  A    between atoms: C_11  and  S_12
REMARK    6  A    between atoms: S_12  and  C_13
REMARK    7  A    between atoms: C_16  and  C_27
REMARK    8  A    between atoms: N_17  and  C_18
REMARK    9  A    between atoms: C_23  and  C_24
REMARK   10  A    between atoms: C_24  and  C_25
REMARK   11  A    between atoms: C_24  and  C_26
REMARK                            x       y       z     vdW  Elec       q    Type
REMARK                         _______ _______ _______ _____ _____    ______ ____
ROOT
ATOM      1  C   UNL     1       2.181   1.079   0.003  0.00  0.00    +0.197 A 
ATOM      2  N   UNL     1       1.283   2.039   0.001  0.00  0.00    -0.122 NA
ATOM      3  N   UNL     1       0.100   1.539   0.031  0.00  0.00    -0.128 NA
ATOM      4  C   UNL     1       0.167   0.228   0.053  0.00  0.00    +0.171 A 
ATOM      5  N   UNL     1       1.503  -0.109   0.036  0.00  0.00    -0.270 N 
ENDROOT
BRANCH   5   6
ATOM      6  C   UNL     1       2.052  -1.398   0.050  0.00  0.00    +0.054 A 
ATOM      7  C   UNL     1       2.304  -2.060  -1.145  0.00  0.00    +0.026 A 
ATOM      8  C   UNL     1       2.845  -3.330  -1.128  0.00  0.00    +0.002 A 
ATOM      9  C   UNL     1       3.137  -3.943   0.077  0.00  0.00    +0.000 A 
ATOM     10  C   UNL     1       2.888  -3.287   1.268  0.00  0.00    +0.006 A 
ATOM     11  C   UNL     1       2.351  -2.014   1.257  0.00  0.00    -0.021 A 
BRANCH  11  12
ATOM     12  C   UNL     1       2.085  -1.297   2.556  0.00  0.00    +0.015 C 
ATOM     13  C   UNL     1       1.099  -2.112   3.396  0.00  0.00    +0.012 C 
ATOM     14  C   UNL     1       3.397  -1.133   3.326  0.00  0.00    +0.012 C 
ENDBRANCH  11  12
ENDBRANCH   5   6
BRANCH   4  15
ATOM     15  C   UNL     1      -0.975  -0.710   0.090  0.00  0.00    +0.038 A 
ATOM     16  C   UNL     1      -2.270  -0.267  -0.207  0.00  0.00    +0.014 A 
ATOM     17  C   UNL     1      -3.304  -1.184  -0.159  0.00  0.00    +0.020 A 
ATOM     18  C   UNL     1      -3.029  -2.497   0.179  0.00  0.00    +0.111 A 
ATOM     19  N   UNL     1      -1.799  -2.886   0.455  0.00  0.00    -0.263 NA
ATOM     20  C   UNL     1      -0.781  -2.052   0.416  0.00  0.00    +0.122 A 
ENDBRANCH   4  15
BRANCH   1  21
ATOM     21  S   UNL     1       3.931   1.283  -0.032  0.00  0.00    -0.078 S 
BRANCH  21  22
ATOM     22  C   UNL     1       4.035   3.090  -0.067  0.00  0.00    +0.153 C 
BRANCH  22  31
ATOM     23  C   UNL     1      10.390   4.942   0.795  0.00  0.00    +0.045 C 
ATOM     24  C   UNL     1       9.476   4.663  -0.371  0.00  0.00    -0.028 A 
ATOM     25  C   UNL     1       9.928   4.776  -1.629  0.00  0.00    -0.008 A 
ATOM     26  S   UNL     1       8.508   4.351  -2.620  0.00  0.00    -0.074 S 
ATOM     27  C   UNL     1       7.347   4.033  -1.319  0.00  0.00    +0.114 A 
ATOM     28  C   UNL     1       8.098   4.266  -0.145  0.00  0.00    +0.050 A 
ATOM     29  C   UNL     1       7.393   4.079   1.076  0.00  0.00    +0.128 A 
ATOM     30  N   UNL     1       6.122   3.715   1.038  0.00  0.00    -0.216 NA
ATOM     31  C   UNL     1       5.483   3.509  -0.100  0.00  0.00    +0.143 A 
ATOM     32  N   UNL     1       6.082   3.667  -1.264  0.00  0.00    -0.224 NA
ATOM     33  C   UNL     1      11.306   5.169  -2.094  0.00  0.00    +0.052 C 
BRANCH  29  34
ATOM     34  N   UNL     1       8.028   4.279   2.288  0.00  0.00    -0.343 N 
ATOM     35  H   UNL     1       8.818   4.840   2.336  0.00  0.00    +0.144 HD
ATOM     36  H   UNL     1       7.684   3.857   3.091  0.00  0.00    +0.144 HD
ENDBRANCH  29  34
ENDBRANCH  22  31
ENDBRANCH  21  22
ENDBRANCH   1  21
TORSDOF 7
