REMARK  Name = ZINC40983994
REMARK  8 active torsions:
REMARK  status: ('A' for Active; 'I' for Inactive)
REMARK    1  A    between atoms: C_1  and  C_2
REMARK    2  A    between atoms: C_6  and  N_8
REMARK    3  A    between atoms: C_13  and  C_15
REMARK    4  A    between atoms: C_16  and  C_18
REMARK    5  A    between atoms: N_21  and  C_24
REMARK    6  A    between atoms: C_24  and  C_25
REMARK    7  A    between atoms: C_26  and  C_37
REMARK    8  A    between atoms: C_28  and  C_30
REMARK                            x       y       z     vdW  Elec       q    Type
REMARK                         _______ _______ _______ _____ _____    ______ ____
ROOT
ATOM      1  C   UNL     1       1.273  -4.050   6.928  0.00  0.00    +0.072 C 
ATOM      2  C   UNL     1       2.445  -3.064   6.966  0.00  0.00    -0.006 C 
ATOM      3  C   UNL     1       2.476  -2.370   8.329  0.00  0.00    -0.078 C 
ATOM      4  N   UNL     1       2.644  -3.372   9.389  0.00  0.00    +0.383 N 
ATOM      5  C   UNL     1       1.489  -4.278   9.405  0.00  0.00    -0.078 C 
ATOM      6  C   UNL     1       1.419  -5.045   8.082  0.00  0.00    -0.006 C 
ATOM      7  H   UNL     1       3.484  -3.904   9.217  0.00  0.00    -0.081 HD
ENDROOT
BRANCH   1  15
ATOM      8  N   UNL     1      -0.626  -3.085   2.559  0.00  0.00    -0.324 N 
ATOM      9  C   UNL     1      -0.515  -2.354   3.828  0.00  0.00    +0.124 C 
ATOM     10  C   UNL     1       0.843  -2.679   4.464  0.00  0.00    +0.126 C 
ATOM     11  N   UNL     1       1.021  -4.138   4.469  0.00  0.00    -0.298 N 
ATOM     12  C   UNL     1       0.909  -4.870   3.199  0.00  0.00    +0.130 C 
ATOM     13  C   UNL     1      -0.454  -4.545   2.564  0.00  0.00    +0.088 C 
ATOM     14  C   UNL     1      -1.573  -5.191   3.384  0.00  0.00    +0.029 C 
ATOM     15  C   UNL     1       1.282  -4.793   5.617  0.00  0.00    +0.219 C 
ATOM     16  O   UNL     1       1.526  -5.981   5.596  0.00  0.00    -0.275 OA
BRANCH   8  22
ATOM     17  C   UNL     1      -1.138  -3.155  -2.329  0.00  0.00    +0.044 C 
ATOM     18  C   UNL     1      -1.153  -2.415  -1.016  0.00  0.00    -0.049 A 
ATOM     19  C   UNL     1      -1.435  -1.061  -0.989  0.00  0.00    +0.003 A 
ATOM     20  C   UNL     1      -1.449  -0.379   0.213  0.00  0.00    +0.002 A 
ATOM     21  C   UNL     1      -1.181  -1.047   1.392  0.00  0.00    +0.023 A 
ATOM     22  C   UNL     1      -0.898  -2.406   1.369  0.00  0.00    +0.030 A 
ATOM     23  C   UNL     1      -0.890  -3.091   0.159  0.00  0.00    +0.026 A 
ENDBRANCH   8  22
ENDBRANCH   1  15
BRANCH   4  24
ATOM     24  C   UNL     1       2.752  -2.695  10.688  0.00  0.00    -0.019 C 
BRANCH  24  25
ATOM     25  C   UNL     1       3.046  -3.712  11.761  0.00  0.00    +0.066 A 
ATOM     26  C   UNL     1       2.135  -4.389  12.482  0.00  0.00    +0.124 A 
ATOM     27  O   UNL     1       2.810  -5.193  13.327  0.00  0.00    -0.440 OA
ATOM     28  C   UNL     1       4.123  -4.999  13.114  0.00  0.00    +0.228 A 
ATOM     29  N   UNL     1       4.264  -4.107  12.162  0.00  0.00    -0.216 NA
ATOM     30  C   UNL     1       0.637  -4.271  12.367  0.00  0.00    +0.088 C 
BRANCH  28  31
ATOM     31  C   UNL     1       5.224  -5.680  13.829  0.00  0.00    +0.038 A 
ATOM     32  C   UNL     1       6.551  -5.383  13.517  0.00  0.00    +0.013 A 
ATOM     33  C   UNL     1       7.574  -6.022  14.187  0.00  0.00    +0.002 A 
ATOM     34  C   UNL     1       7.287  -6.955  15.166  0.00  0.00    +0.020 A 
ATOM     35  C   UNL     1       5.972  -7.255  15.481  0.00  0.00    +0.042 A 
ATOM     36  C   UNL     1       4.939  -6.618  14.822  0.00  0.00    +0.033 A 
ATOM     37 CL   UNL     1       5.622  -8.429  16.711  0.00  0.00    -0.084 Cl
ENDBRANCH  28  31
ENDBRANCH  24  25
ENDBRANCH   4  24
TORSDOF 5
