REMARK  Name = ZINC63491265
REMARK  9 active torsions:
REMARK  status: ('A' for Active; 'I' for Inactive)
REMARK    1  A    between atoms: C_1  and  C_2
REMARK    2  A    between atoms: C_3  and  C_18
REMARK    3  A    between atoms: C_4  and  O_17
REMARK    4  A    between atoms: N_6  and  C_8
REMARK    5  A    between atoms: C_18  and  C_19
REMARK    6  A    between atoms: C_22  and  C_25
REMARK    7  A    between atoms: C_25  and  C_26
REMARK    8  A    between atoms: C_25  and  C_27
REMARK    9  A    between atoms: C_25  and  C_28
REMARK                            x       y       z     vdW  Elec       q    Type
REMARK                         _______ _______ _______ _____ _____    ______ ____
ROOT
ATOM      1  C   UNL     1      -0.018   1.503   0.010  0.00  0.00    +0.062 C 
ATOM      2  C   UNL     1       0.002  -0.004   0.002  0.00  0.00    +0.019 C 
ATOM      3  C   UNL     1      -1.078  -0.758   0.003  0.00  0.00    -0.003 C 
ATOM      4  C   UNL     1      -0.608  -2.197  -0.008  0.00  0.00    +0.235 C 
ATOM      5  N   UNL     1       0.865  -2.098  -0.014  0.00  0.00    -0.157 NA
ATOM      6  N   UNL     1       1.155  -0.763  -0.014  0.00  0.00    -0.276 N 
ATOM      7  H   UNL     1       2.054  -0.397  -0.021  0.00  0.00    +0.166 HD
ENDROOT
BRANCH   5   8
ATOM      8  C   UNL     1       1.431  -2.754  -1.200  0.00  0.00    +0.271 C 
ATOM      9  N   UNL     1       0.864  -2.167  -2.421  0.00  0.00    -0.350 N 
ATOM     10  C   UNL     1       0.246  -3.118  -3.060  0.00  0.00    +0.061 A 
ATOM     11  C   UNL     1      -0.503  -3.149  -4.324  0.00  0.00    +0.027 A 
ATOM     12  C   UNL     1      -1.046  -4.308  -4.747  0.00  0.00    +0.002 A 
ATOM     13  C   UNL     1      -0.927  -5.509  -4.025  0.00  0.00    +0.002 A 
ATOM     14  C   UNL     1      -0.262  -5.591  -2.856  0.00  0.00    +0.027 A 
ATOM     15  C   UNL     1       0.372  -4.389  -2.296  0.00  0.00    +0.061 A 
ATOM     16  N   UNL     1       1.063  -4.175  -1.214  0.00  0.00    -0.350 N 
ATOM     17  H   UNL     1       0.935  -1.241  -2.699  0.00  0.00    +0.163 HD
ATOM     18  H   UNL     1       1.292  -4.834  -0.540  0.00  0.00    +0.163 HD
ENDBRANCH   5   8
BRANCH   4  19
ATOM     19  O   UNL     1      -1.060  -2.879   1.164  0.00  0.00    -0.372 OA
ATOM     20  H   UNL     1      -2.023  -2.923   1.246  0.00  0.00    +0.212 HD
ENDBRANCH   4  19
BRANCH   3  21
ATOM     21  C   UNL     1      -2.507  -0.280   0.013  0.00  0.00    +0.071 C 
BRANCH  21  22
ATOM     22  C   UNL     1      -3.031  -0.230  -1.399  0.00  0.00    -0.043 A 
ATOM     23  C   UNL     1      -2.888   0.922  -2.149  0.00  0.00    +0.004 A 
ATOM     24  C   UNL     1      -3.368   0.968  -3.444  0.00  0.00    +0.004 A 
ATOM     25  C   UNL     1      -3.990  -0.139  -3.990  0.00  0.00    -0.042 A 
ATOM     26  C   UNL     1      -4.132  -1.292  -3.241  0.00  0.00    +0.004 A 
ATOM     27  C   UNL     1      -3.648  -1.339  -1.947  0.00  0.00    +0.004 A 
BRANCH  25  28
ATOM     28  C   UNL     1      -4.514  -0.088  -5.402  0.00  0.00    -0.013 C 
ATOM     29  C   UNL     1      -3.360   0.199  -6.365  0.00  0.00    +0.015 C 
ATOM     30  C   UNL     1      -5.152  -1.433  -5.758  0.00  0.00    +0.015 C 
ATOM     31  C   UNL     1      -5.563   1.020  -5.518  0.00  0.00    +0.015 C 
ENDBRANCH  25  28
ENDBRANCH  21  22
ENDBRANCH   3  21
TORSDOF 5
