REMARK  Name = ZINC00339952
REMARK  7 active torsions:
REMARK  status: ('A' for Active; 'I' for Inactive)
REMARK    1  A    between atoms: C_1  and  C_2
REMARK    2  A    between atoms: C_2  and  C_3
REMARK    3  A    between atoms: C_2  and  C_4
REMARK    4  A    between atoms: C_2  and  C_5
REMARK    5  A    between atoms: N_7  and  C_8
REMARK    6  A    between atoms: C_8  and  C_10
REMARK    7  A    between atoms: C_8  and  N_42
REMARK                            x       y       z     vdW  Elec       q    Type
REMARK                         _______ _______ _______ _____ _____    ______ ____
ROOT
ATOM      1  C   UNL     1      -2.449   1.117   0.020  0.00  0.00    +0.071 C 
ENDROOT
BRANCH   1   8
ATOM      2  C   UNL     1      -4.371   0.550  -1.355  0.00  0.00    -0.076 C 
ATOM      3  C   UNL     1      -4.921   0.447  -2.752  0.00  0.00    -0.018 C 
ATOM      4  C   UNL     1      -4.465  -0.897  -3.360  0.00  0.00    -0.002 C 
ATOM      5  C   UNL     1      -3.082  -0.851  -3.821  0.00  0.00    -0.002 C 
ATOM      6  C   UNL     1      -2.094  -0.553  -2.674  0.00  0.00    -0.018 C 
ATOM      7  C   UNL     1      -2.132   0.922  -2.382  0.00  0.00    -0.076 C 
ATOM      8  N   UNL     1      -3.084   1.323  -1.291  0.00  0.00    +0.395 N 
ATOM      9  H   UNL     1      -3.301   2.321  -1.401  0.00  0.00    -0.079 HD
ENDBRANCH   1   8
BRANCH   1  12
ATOM     10  C   UNL     1      -0.016   1.234  -0.017  0.00  0.00    +0.217 C 
ATOM     11  O   UNL     1       0.012   0.025  -0.109  0.00  0.00    -0.275 OA
ATOM     12  N   UNL     1      -1.198   1.878   0.054  0.00  0.00    -0.324 N 
ATOM     13  H   UNL     1      -1.220   2.845   0.128  0.00  0.00    +0.147 HD
BRANCH  10  15
ATOM     14  C   UNL     1       2.457   1.055  -0.089  0.00  0.00    +0.020 C 
ATOM     15  C   UNL     1       1.272   2.017   0.012  0.00  0.00    +0.039 C 
ATOM     16  C   UNL     1       1.303   2.990  -1.168  0.00  0.00    +0.020 C 
ATOM     17  C   UNL     1       1.362   2.802   1.322  0.00  0.00    +0.020 C 
ENDBRANCH  10  15
ENDBRANCH   1  12
BRANCH   1  18
ATOM     18  C   UNL     1      -3.396   1.643   1.101  0.00  0.00    +0.194 C 
ATOM     19 CL   UNL     1      -3.925   3.313   0.675  0.00  0.00    -0.084 Cl
ATOM     20 CL   UNL     1      -4.837   0.566   1.213  0.00  0.00    -0.084 Cl
ATOM     21 CL   UNL     1      -2.540   1.670   2.687  0.00  0.00    -0.084 Cl
ENDBRANCH   1  18
TORSDOF 4
