REMARK  Name = ZINC41584667
REMARK  5 active torsions:
REMARK  status: ('A' for Active; 'I' for Inactive)
REMARK    1  A    between atoms: C_3  and  C_7
REMARK    2  A    between atoms: N_13  and  C_14
REMARK    3  A    between atoms: C_14  and  C_15
REMARK    4  A    between atoms: C_16  and  O_38
REMARK    5  A    between atoms: C_25  and  C_26
REMARK                            x       y       z     vdW  Elec       q    Type
REMARK                         _______ _______ _______ _____ _____    ______ ____
ROOT
ATOM      1  C   UNL     1       4.965   0.412   3.077  0.00  0.00    +0.020 A 
ATOM      2  C   UNL     1       4.783  -0.960   3.154  0.00  0.00    +0.122 A 
ATOM      3  C   UNL     1       5.612  -1.739   3.957  0.00  0.00    +0.046 A 
ATOM      4  C   UNL     1       6.617  -1.161   4.679  0.00  0.00    +0.016 A 
ATOM      5  C   UNL     1       6.814   0.220   4.612  0.00  0.00    +0.026 A 
ATOM      6  C   UNL     1       5.985   1.013   3.800  0.00  0.00    +0.144 A 
ATOM      7  O   UNL     1       6.181   2.347   3.734  0.00  0.00    -0.422 OA
ATOM      8  C   UNL     1       7.160   2.957   4.422  0.00  0.00    +0.338 A 
ATOM      9  O   UNL     1       7.290   4.165   4.323  0.00  0.00    -0.245 OA
ATOM     10  C   UNL     1       8.037   2.243   5.252  0.00  0.00    +0.101 A 
ATOM     11  C   UNL     1       7.889   0.871   5.381  0.00  0.00    +0.006 A 
ENDROOT
BRANCH  11  12
ATOM     12  C   UNL     1       8.792   0.086   6.244  0.00  0.00    +0.068 A 
ATOM     13  C   UNL     1       8.872   0.323   7.607  0.00  0.00    +0.027 A 
ATOM     14  C   UNL     1       9.787  -0.452   8.368  0.00  0.00    +0.020 A 
ATOM     15  C   UNL     1       9.770  -0.399   9.769  0.00  0.00    +0.031 A 
ATOM     16  C   UNL     1      10.636  -1.189  10.491  0.00  0.00    +0.042 A 
ATOM     17  C   UNL     1      11.529  -2.030   9.840  0.00  0.00    +0.023 A 
ATOM     18  C   UNL     1      11.571  -2.079   8.462  0.00  0.00    +0.048 A 
ATOM     19  C   UNL     1      10.712  -1.286   7.713  0.00  0.00    +0.139 A 
ATOM     20  O   UNL     1      10.777  -1.296   6.360  0.00  0.00    -0.422 OA
ATOM     21  C   UNL     1       9.639  -0.987   5.691  0.00  0.00    +0.345 A 
ATOM     22  O   UNL     1       9.329  -1.571   4.669  0.00  0.00    -0.245 OA
ATOM     23 CL   UNL     1      10.611  -1.133  12.226  0.00  0.00    -0.084 Cl
ENDBRANCH  11  12
BRANCH   2  24
ATOM     24  O   UNL     1       3.788  -1.548   2.442  0.00  0.00    -0.506 OA
ATOM     25  H   UNL     1       4.052  -1.830   1.556  0.00  0.00    +0.292 HD
ENDBRANCH   2  24
BRANCH   1  26
ATOM     26  C   UNL     1       4.063   1.247   2.206  0.00  0.00    -0.035 C 
BRANCH  26  32
ATOM     27  C   UNL     1       3.696   2.049  -0.023  0.00  0.00    -0.036 C 
ATOM     28  C   UNL     1       4.249   2.075  -1.449  0.00  0.00    -0.011 C 
ATOM     29  C   UNL     1       5.602   2.793  -1.454  0.00  0.00    -0.003 C 
ATOM     30  C   UNL     1       6.547   2.087  -0.478  0.00  0.00    -0.019 C 
ATOM     31  C   UNL     1       5.909   2.061   0.913  0.00  0.00    -0.078 C 
ATOM     32  N   UNL     1       4.633   1.337   0.855  0.00  0.00    +0.387 N 
ATOM     33  H   UNL     1       4.790   0.408   0.496  0.00  0.00    -0.080 HD
BRANCH  27  36
ATOM     34  C   UNL     1      -0.017   1.378   0.010  0.00  0.00    +0.020 A 
ATOM     35  C   UNL     1       1.185   2.070   0.002  0.00  0.00    +0.005 A 
ATOM     36  C   UNL     1       2.365   1.343  -0.013  0.00  0.00    -0.043 A 
ATOM     37  C   UNL     1       2.305  -0.038  -0.020  0.00  0.00    +0.112 A 
ATOM     38  N   UNL     1       1.144  -0.663  -0.013  0.00  0.00    -0.263 NA
ATOM     39  C   UNL     1       0.002  -0.004   0.002  0.00  0.00    +0.111 A 
ENDBRANCH  27  36
ENDBRANCH  26  32
ENDBRANCH   1  26
TORSDOF 5
