REMARK  Name = ZINC01432612
REMARK  3 active torsions:
REMARK  status: ('A' for Active; 'I' for Inactive)
REMARK    1  A    between atoms: C_1  and  C_2
REMARK    2  A    between atoms: C_2  and  C_30
REMARK    3  A    between atoms: C_6  and  C_20
REMARK                            x       y       z     vdW  Elec       q    Type
REMARK                         _______ _______ _______ _____ _____    ______ ____
ROOT
ATOM      1  C   UNL     1       2.937  -0.752  -3.131  0.00  0.00    +0.011 C 
ATOM      2  C   UNL     1       3.618  -1.337  -1.892  0.00  0.00    -0.023 C 
ATOM      3  C   UNL     1       3.786  -0.243  -0.834  0.00  0.00    +0.058 C 
ATOM      4  C   UNL     1       2.431   0.268  -0.417  0.00  0.00    +0.020 C 
ATOM      5  C   UNL     1       1.345  -0.534  -0.433  0.00  0.00    +0.039 C 
ATOM      6  C   UNL     1       0.002  -0.004   0.002  0.00  0.00    +0.147 C 
ATOM      7  C   UNL     1       1.062   2.165   0.004  0.00  0.00    +0.166 C 
ATOM      8  N   UNL     1       2.305   1.573  -0.019  0.00  0.00    -0.292 N 
ATOM      9  N   UNL     1       0.967   3.540   0.019  0.00  0.00    -0.243 N 
ATOM     10  C   UNL     1      -0.274   4.146   0.041  0.00  0.00    +0.295 A 
ATOM     11  N   UNL     1      -1.417   3.511   0.043  0.00  0.00    -0.195 NA
ATOM     12  C   UNL     1      -2.425   4.426   0.071  0.00  0.00    +0.111 A 
ATOM     13  C   UNL     1      -3.817   4.327   0.086  0.00  0.00    +0.031 A 
ATOM     14  C   UNL     1      -4.583   5.472   0.108  0.00  0.00    +0.002 A 
ATOM     15  C   UNL     1      -3.979   6.720   0.114  0.00  0.00    +0.004 A 
ATOM     16  C   UNL     1      -2.603   6.832   0.097  0.00  0.00    +0.048 A 
ATOM     17  C   UNL     1      -1.818   5.691   0.076  0.00  0.00    +0.157 A 
ATOM     18  O   UNL     1      -0.483   5.474   0.057  0.00  0.00    -0.424 OA
ATOM     19  C   UNL     1       1.437  -1.871  -0.854  0.00  0.00    +0.163 C 
ATOM     20  O   UNL     1       0.442  -2.567  -0.854  0.00  0.00    -0.292 OA
ATOM     21  C   UNL     1       2.749  -2.454  -1.306  0.00  0.00    +0.086 C 
ATOM     22  C   UNL     1       4.989  -1.896  -2.275  0.00  0.00    +0.011 C 
ATOM     23  H   UNL     1       3.090   2.078   0.247  0.00  0.00    +0.154 HD
ATOM     24  H   UNL     1       1.771   4.083   0.014  0.00  0.00    +0.159 HD
ATOM     25  N   UNL     1      -0.095   1.496   0.011  0.00  0.00    -0.350 N 
ATOM     26  H   UNL     1      -1.000   1.980   0.022  0.00  0.00    +0.163 HD
ENDROOT
BRANCH   6  27
ATOM     27  C   UNL     1      -0.301  -0.509   1.389  0.00  0.00    -0.020 A 
ATOM     28  C   UNL     1       0.239   0.130   2.490  0.00  0.00    +0.009 A 
ATOM     29  C   UNL     1      -0.041  -0.329   3.763  0.00  0.00    +0.039 A 
ATOM     30  C   UNL     1      -0.856  -1.435   3.935  0.00  0.00    +0.123 A 
ATOM     31  C   UNL     1      -1.392  -2.078   2.832  0.00  0.00    +0.039 A 
ATOM     32  C   UNL     1      -1.114  -1.614   1.560  0.00  0.00    +0.009 A 
ATOM     33  F   UNL     1      -1.127  -1.888   5.179  0.00  0.00    -0.205 F 
ENDBRANCH   6  27
TORSDOF 1
