REMARK  Name = ZINC59156720
REMARK  3 active torsions:
REMARK  status: ('A' for Active; 'I' for Inactive)
REMARK    1  A    between atoms: C_8  and  C_15
REMARK    2  A    between atoms: N_16  and  N_17
REMARK    3  A    between atoms: C_18  and  C_20
REMARK                            x       y       z     vdW  Elec       q    Type
REMARK                         _______ _______ _______ _____ _____    ______ ____
ROOT
ATOM      1  C   UNL     1      -0.016   1.354   0.009  0.00  0.00    +0.001 A 
ATOM      2  C   UNL     1       1.160   2.103   0.002  0.00  0.00    +0.001 A 
ATOM      3  C   UNL     1       2.382   1.513  -0.013  0.00  0.00    +0.008 A 
ATOM      4  C   UNL     1       2.475   0.104  -0.021  0.00  0.00    -0.017 A 
ATOM      5  C   UNL     1       3.713  -0.535  -0.035  0.00  0.00    +0.017 A 
ATOM      6  C   UNL     1       3.768  -1.929  -0.042  0.00  0.00    -0.017 A 
ATOM      7  C   UNL     1       5.005  -2.604  -0.055  0.00  0.00    +0.018 A 
ATOM      8  C   UNL     1       5.023  -3.986  -0.061  0.00  0.00    -0.005 A 
ATOM      9  C   UNL     1       3.827  -4.732  -0.054  0.00  0.00    +0.010 A 
ATOM     10  C   UNL     1       2.616  -4.128  -0.041  0.00  0.00    +0.009 A 
ATOM     11  C   UNL     1       2.531  -2.717  -0.034  0.00  0.00    -0.017 A 
ATOM     12  C   UNL     1       1.294  -2.077  -0.020  0.00  0.00    +0.017 A 
ATOM     13  C   UNL     1       1.239  -0.684  -0.013  0.00  0.00    -0.017 A 
ATOM     14  C   UNL     1       0.002  -0.004   0.002  0.00  0.00    +0.008 A 
ENDROOT
BRANCH   8  15
ATOM     15  C   UNL     1       6.316  -4.693  -0.076  0.00  0.00    +0.138 C 
ATOM     16  N   UNL     1       6.346  -5.991  -0.082  0.00  0.00    -0.188 NA
BRANCH  16  17
ATOM     17  N   UNL     1       7.576  -6.663  -0.096  0.00  0.00    -0.206 N 
ATOM     18  C   UNL     1       7.607  -8.010  -0.102  0.00  0.00    +0.244 C 
ATOM     19  O   UNL     1       6.571  -8.641  -0.095  0.00  0.00    -0.273 OA
ATOM     20  H   UNL     1       8.404  -6.158  -0.101  0.00  0.00    +0.177 HD
BRANCH  18  21
ATOM     21  C   UNL     1       8.929  -8.733  -0.117  0.00  0.00    +0.162 C 
ATOM     22  C   UNL     1       8.683 -10.243  -0.126  0.00  0.00    +0.024 C 
ATOM     23  C   UNL     1      10.017 -10.954   0.136  0.00  0.00    +0.020 C 
ATOM     24  C   UNL     1      10.456 -10.658   1.571  0.00  0.00    +0.104 C 
ATOM     25  N   UNL     1      10.414  -9.224   1.832  0.00  0.00    -0.315 N 
ATOM     26  C   UNL     1       9.720  -8.353   1.102  0.00  0.00    +0.225 C 
ATOM     27  O   UNL     1       9.728  -7.188   1.441  0.00  0.00    -0.275 OA
ATOM     28  H   UNL     1      10.923  -8.884   2.585  0.00  0.00    +0.149 HD
ENDBRANCH  18  21
ENDBRANCH  16  17
ENDBRANCH   8  15
TORSDOF 3
