REMARK  Name = ZINC64668424
REMARK  7 active torsions:
REMARK  status: ('A' for Active; 'I' for Inactive)
REMARK    1  A    between atoms: C_1  and  C_2
REMARK    2  A    between atoms: C_2  and  C_3
REMARK    3  A    between atoms: C_2  and  C_4
REMARK    4  A    between atoms: C_2  and  N_5
REMARK    5  A    between atoms: N_5  and  C_6
REMARK    6  A    between atoms: C_7  and  C_18
REMARK    7  A    between atoms: C_21  and  C_24
REMARK                            x       y       z     vdW  Elec       q    Type
REMARK                         _______ _______ _______ _____ _____    ______ ____
ROOT
ATOM      1  C   UNL     1       2.117   0.379  -1.297  0.00  0.00    +0.132 A 
ATOM      2  C   UNL     1       3.016   0.203  -2.308  0.00  0.00    +0.112 A 
ATOM      3  N   UNL     1       4.126   0.932  -2.008  0.00  0.00    -0.219 NA
ATOM      4  C   UNL     1       3.936   1.534  -0.872  0.00  0.00    +0.180 A 
ATOM      5  N   UNL     1       2.696   1.239  -0.370  0.00  0.00    -0.274 N 
ATOM      6  C   UNL     1       2.322   1.813   0.854  0.00  0.00    +0.064 A 
ATOM      7  C   UNL     1       1.103   1.629   1.527  0.00  0.00    +0.027 A 
ATOM      8  C   UNL     1       0.861   2.253   2.728  0.00  0.00    +0.002 A 
ATOM      9  C   UNL     1       1.807   3.080   3.310  0.00  0.00    +0.001 A 
ATOM     10  C   UNL     1       3.017   3.279   2.668  0.00  0.00    +0.017 A 
ATOM     11  C   UNL     1       3.257   2.653   1.467  0.00  0.00    +0.039 A 
ATOM     12  S   UNL     1       4.635   2.623   0.347  0.00  0.00    -0.049 S 
ENDROOT
BRANCH   2  13
ATOM     13  C   UNL     1       2.821  -0.630  -3.511  0.00  0.00    +0.004 A 
ATOM     14  C   UNL     1       2.087  -1.817  -3.428  0.00  0.00    +0.011 A 
ATOM     15  C   UNL     1       1.906  -2.588  -4.540  0.00  0.00    +0.019 A 
ATOM     16  C   UNL     1       2.455  -2.189  -5.764  0.00  0.00    +0.052 A 
ATOM     17  C   UNL     1       3.188  -1.000  -5.847  0.00  0.00    +0.019 A 
ATOM     18  C   UNL     1       3.365  -0.228  -4.735  0.00  0.00    +0.011 A 
BRANCH  16  19
ATOM     19  C   UNL     1       2.266  -2.997  -6.931  0.00  0.00    +0.099 C 
ATOM     20  N   UNL     1       2.116  -3.638  -7.857  0.00  0.00    -0.191 NA
ENDBRANCH  16  19
ENDBRANCH   2  13
BRANCH   1  21
ATOM     21  N   UNL     1       0.850  -0.192  -1.212  0.00  0.00    -0.324 N 
ATOM     22  H   UNL     1       0.549  -0.808  -1.899  0.00  0.00    +0.148 HD
BRANCH  21  24
ATOM     23  C   UNL     1      -0.205   1.655  -0.005  0.00  0.00    +0.031 C 
ATOM     24  C   UNL     1      -0.028   0.137  -0.087  0.00  0.00    +0.025 C 
ATOM     25  C   UNL     1       0.596  -0.374   1.213  0.00  0.00    +0.031 C 
ATOM     26  C   UNL     1      -1.392  -0.525  -0.294  0.00  0.00    +0.031 C 
ENDBRANCH  21  24
ENDBRANCH   1  21
TORSDOF 4
