REMARK  Name = ZINC20874204
REMARK  11 active torsions:
REMARK  status: ('A' for Active; 'I' for Inactive)
REMARK    1  A    between atoms: C_1  and  C_2
REMARK    2  A    between atoms: C_5  and  C_8
REMARK    3  A    between atoms: C_8  and  O_9
REMARK    4  A    between atoms: O_9  and  C_10
REMARK    5  A    between atoms: C_19  and  C_20
REMARK    6  A    between atoms: C_20  and  N_21
REMARK    7  A    between atoms: N_21  and  C_22
REMARK    8  A    between atoms: C_22  and  C_23
REMARK    9  A    between atoms: C_23  and  S_24
REMARK   10  A    between atoms: S_24  and  C_25
REMARK   11  A    between atoms: N_29  and  C_30
REMARK                            x       y       z     vdW  Elec       q    Type
REMARK                         _______ _______ _______ _____ _____    ______ ____
ROOT
ATOM      1  C   UNL     1       1.067   5.942   0.021  0.00  0.00    +0.123 A 
ATOM      2  C   UNL     1       2.292   5.268   0.006  0.00  0.00    +0.046 A 
ATOM      3  C   UNL     1       2.342   3.909  -0.000  0.00  0.00    +0.012 A 
ATOM      4  C   UNL     1       1.148   3.167   0.008  0.00  0.00    -0.017 A 
ATOM      5  C   UNL     1       1.163   1.762   0.000  0.00  0.00    +0.008 A 
ATOM      6  C   UNL     1      -0.013   1.076   0.008  0.00  0.00    +0.001 A 
ATOM      7  C   UNL     1      -1.235   1.746   0.017  0.00  0.00    +0.001 A 
ATOM      8  C   UNL     1      -1.288   3.105   0.030  0.00  0.00    +0.009 A 
ATOM      9  C   UNL     1      -0.095   3.849   0.023  0.00  0.00    -0.013 A 
ATOM     10  C   UNL     1      -0.112   5.253   0.029  0.00  0.00    -0.015 A 
ENDROOT
BRANCH   1  11
ATOM     11  O   UNL     1       1.050   7.301   0.028  0.00  0.00    -0.487 OA
BRANCH  11  12
ATOM     12  C   UNL     1       2.315   7.966   0.019  0.00  0.00    +0.264 C 
BRANCH  12  17
ATOM     13  C   UNL     1       1.485  13.685   0.056  0.00  0.00    +0.044 C 
ATOM     14  C   UNL     1       1.702  12.193   0.046  0.00  0.00    -0.050 A 
ATOM     15  C   UNL     1       1.812  11.503   1.239  0.00  0.00    +0.004 A 
ATOM     16  C   UNL     1       2.011  10.135   1.230  0.00  0.00    +0.007 A 
ATOM     17  C   UNL     1       2.098   9.457   0.029  0.00  0.00    -0.010 A 
ATOM     18  C   UNL     1       1.993  10.148  -1.164  0.00  0.00    +0.007 A 
ATOM     19  C   UNL     1       1.790  11.515  -1.155  0.00  0.00    +0.004 A 
ENDBRANCH  12  17
ENDBRANCH  11  12
ENDBRANCH   1  11
BRANCH  10  20
ATOM     20  C   UNL     1      -1.423   5.995   0.046  0.00  0.00    -0.042 C 
BRANCH  20  21
ATOM     21  N   UNL     1      -1.835   6.230   1.436  0.00  0.00    +0.382 N 
ATOM     22  H   UNL     1      -1.954   5.265   1.951  0.00  0.00    -0.085 HD
ATOM     23  H   UNL     1      -1.069   6.829   1.950  0.00  0.00    -0.085 HD
BRANCH  21  24
ATOM     24  C   UNL     1      -3.113   6.953   1.491  0.00  0.00    -0.071 C 
BRANCH  24  25
ATOM     25  C   UNL     1      -3.509   7.178   2.952  0.00  0.00    +0.058 C 
BRANCH  25  26
ATOM     26  S   UNL     1      -5.083   8.069   3.020  0.00  0.00    -0.086 S 
BRANCH  26  27
ATOM     27  C   UNL     1      -5.291   8.189   4.766  0.00  0.00    +0.209 A 
ATOM     28  N   UNL     1      -4.471   7.726   5.684  0.00  0.00    -0.102 NA
ATOM     29  N   UNL     1      -4.922   7.982   6.859  0.00  0.00    -0.022 NA
ATOM     30  N   UNL     1      -6.042   8.615   6.782  0.00  0.00    -0.043 NA
ATOM     31  N   UNL     1      -6.323   8.780   5.414  0.00  0.00    -0.223 N 
ATOM     32  C   UNL     1      -7.484   9.445   4.818  0.00  0.00    +0.177 C 
ENDBRANCH  26  27
ENDBRANCH  25  26
ENDBRANCH  24  25
ENDBRANCH  21  24
ENDBRANCH  20  21
ENDBRANCH  10  20
TORSDOF 9
