REMARK  Name = ZINC01608027
REMARK  9 active torsions:
REMARK  status: ('A' for Active; 'I' for Inactive)
REMARK    1  A    between atoms: C_1  and  C_2
REMARK    2  A    between atoms: C_2  and  O_27
REMARK    3  A    between atoms: C_4  and  C_16
REMARK    4  A    between atoms: C_18  and  O_25
REMARK    5  A    between atoms: C_19  and  O_24
REMARK    6  A    between atoms: C_20  and  O_22
REMARK    7  A    between atoms: O_22  and  C_23
REMARK    8  A    between atoms: O_25  and  C_26
REMARK    9  A    between atoms: O_27  and  C_28
REMARK                            x       y       z     vdW  Elec       q    Type
REMARK                         _______ _______ _______ _____ _____    ______ ____
ROOT
ATOM      1  C   UNL     1      -0.930  -4.874  -1.647  0.00  0.00    +0.089 C 
ATOM      2  C   UNL     1      -0.202  -4.979  -0.306  0.00  0.00    +0.210 C 
ATOM      3  C   UNL     1      -1.172  -4.653   0.836  0.00  0.00    +0.091 C 
ATOM      4  C   UNL     1      -1.786  -3.277   0.568  0.00  0.00    +0.059 C 
ATOM      5  C   UNL     1      -0.695  -2.293   0.224  0.00  0.00    +0.006 A 
ATOM      6  C   UNL     1      -0.970  -0.938   0.313  0.00  0.00    +0.057 A 
ATOM      7  C   UNL     1       0.002  -0.004   0.002  0.00  0.00    +0.167 A 
ATOM      8  C   UNL     1       1.265  -0.429  -0.404  0.00  0.00    +0.170 A 
ATOM      9  C   UNL     1       1.538  -1.782  -0.492  0.00  0.00    +0.095 A 
ATOM     10  C   UNL     1       0.559  -2.719  -0.176  0.00  0.00    +0.132 A 
ATOM     11  O   UNL     1       0.872  -4.038  -0.266  0.00  0.00    -0.461 OA
ATOM     12  O   UNL     1       2.036   0.669  -0.652  0.00  0.00    -0.452 OA
ATOM     13  C   UNL     1       1.366   1.765  -0.002  0.00  0.00    +0.466 C 
ATOM     14  O   UNL     1      -0.016   1.362   0.009  0.00  0.00    -0.453 OA
ENDROOT
BRANCH   4  15
ATOM     15  C   UNL     1      -2.517  -2.804   1.798  0.00  0.00    -0.032 A 
ATOM     16  C   UNL     1      -1.832  -2.641   2.987  0.00  0.00    +0.054 A 
ATOM     17  C   UNL     1      -2.500  -2.201   4.120  0.00  0.00    +0.165 A 
ATOM     18  C   UNL     1      -3.863  -1.936   4.061  0.00  0.00    +0.201 A 
ATOM     19  C   UNL     1      -4.549  -2.107   2.865  0.00  0.00    +0.165 A 
ATOM     20  C   UNL     1      -3.873  -2.542   1.735  0.00  0.00    +0.054 A 
BRANCH  19  21
ATOM     21  O   UNL     1      -5.883  -1.849   2.802  0.00  0.00    -0.491 OA
ATOM     22  C   UNL     1      -6.524  -2.046   1.540  0.00  0.00    +0.277 C 
ENDBRANCH  19  21
BRANCH  18  23
ATOM     23  O   UNL     1      -4.523  -1.510   5.172  0.00  0.00    -0.501 OA
ATOM     24  H   UNL     1      -4.887  -2.225   5.712  0.00  0.00    +0.292 HD
ENDBRANCH  18  23
BRANCH  17  25
ATOM     25  O   UNL     1      -1.824  -2.036   5.288  0.00  0.00    -0.491 OA
ATOM     26  C   UNL     1      -0.425  -2.327   5.274  0.00  0.00    +0.277 C 
ENDBRANCH  17  25
ENDBRANCH   4  15
BRANCH   2  27
ATOM     27  O   UNL     1       0.311  -6.302  -0.139  0.00  0.00    -0.343 OA
ATOM     28  C   UNL     1       1.313  -6.662  -1.092  0.00  0.00    +0.198 C 
ENDBRANCH   2  27
TORSDOF 5
