REMARK  Name = ZINC15724777
REMARK  4 active torsions:
REMARK  status: ('A' for Active; 'I' for Inactive)
REMARK    1  A    between atoms: C_1  and  C_2
REMARK    2  A    between atoms: C_5  and  C_8
REMARK    3  A    between atoms: N_25  and  C_26
REMARK    4  A    between atoms: C_26  and  C_27
REMARK                            x       y       z     vdW  Elec       q    Type
REMARK                         _______ _______ _______ _____ _____    ______ ____
ROOT
ATOM      1  C   UNL     1       3.932   7.230   3.194  0.00  0.00    +0.155 C 
ATOM      2  C   UNL     1       4.975   6.780   4.187  0.00  0.00    +0.046 A 
ATOM      3  C   UNL     1       4.913   5.605   4.851  0.00  0.00    -0.015 A 
ATOM      4  C   UNL     1       6.083   5.540   5.704  0.00  0.00    +0.003 A 
ATOM      5  C   UNL     1       6.545   4.577   6.606  0.00  0.00    +0.010 A 
ATOM      6  C   UNL     1       7.722   4.852   7.258  0.00  0.00    +0.001 A 
ATOM      7  C   UNL     1       8.427   6.025   7.042  0.00  0.00    +0.002 A 
ATOM      8  C   UNL     1       7.992   6.995   6.156  0.00  0.00    +0.026 A 
ATOM      9  C   UNL     1       6.801   6.742   5.478  0.00  0.00    +0.047 A 
ATOM     10  N   UNL     1       6.102   7.466   4.555  0.00  0.00    -0.356 N 
ATOM     11  H   UNL     1       6.364   8.334   4.212  0.00  0.00    +0.166 HD
ATOM     12  C   UNL     1       3.813   4.587   4.695  0.00  0.00    +0.056 C 
ATOM     13  C   UNL     1       2.598   5.261   4.046  0.00  0.00    +0.115 C 
ATOM     14  N   UNL     1       3.055   6.081   2.914  0.00  0.00    -0.273 N 
ATOM     15  C   UNL     1       2.684   5.785   1.653  0.00  0.00    +0.303 C 
ATOM     16  O   UNL     1       1.894   4.884   1.446  0.00  0.00    -0.253 OA
ATOM     17  N   UNL     1       3.189   6.488   0.620  0.00  0.00    -0.292 N 
ATOM     18  H   UNL     1       3.759   7.255   0.787  0.00  0.00    +0.151 HD
ENDROOT
BRANCH   1  23
ATOM     19  C   UNL     1       0.838  11.558   5.449  0.00  0.00    +0.044 C 
ATOM     20  C   UNL     1       1.645  10.429   4.861  0.00  0.00    -0.050 A 
ATOM     21  C   UNL     1       2.257  10.585   3.631  0.00  0.00    +0.004 A 
ATOM     22  C   UNL     1       2.997   9.549   3.092  0.00  0.00    +0.006 A 
ATOM     23  C   UNL     1       3.126   8.359   3.783  0.00  0.00    -0.021 A 
ATOM     24  C   UNL     1       2.510   8.202   5.010  0.00  0.00    +0.006 A 
ATOM     25  C   UNL     1       1.774   9.239   5.552  0.00  0.00    +0.004 A 
ENDBRANCH   1  23
BRANCH  17  26
ATOM     26  C   UNL     1       2.877   6.094  -0.756  0.00  0.00    +0.180 C 
BRANCH  26  27
ATOM     27  C   UNL     1       3.560   7.036  -1.715  0.00  0.00    +0.122 A 
ATOM     28  C   UNL     1       4.793   6.878  -2.229  0.00  0.00    +0.046 A 
ATOM     29  C   UNL     1       5.028   7.984  -3.078  0.00  0.00    +0.041 A 
ATOM     30  C   UNL     1       3.928   8.755  -3.026  0.00  0.00    +0.195 A 
ATOM     31  O   UNL     1       3.040   8.175  -2.201  0.00  0.00    -0.466 OA
ENDBRANCH  26  27
ENDBRANCH  17  26
TORSDOF 3
