REMARK  Name = ZINC18193091
REMARK  6 active torsions:
REMARK  status: ('A' for Active; 'I' for Inactive)
REMARK    1  A    between atoms: C_2  and  C_11
REMARK    2  A    between atoms: C_13  and  C_16
REMARK    3  A    between atoms: N_17  and  N_18
REMARK    4  A    between atoms: N_21  and  N_22
REMARK    5  A    between atoms: C_23  and  C_24
REMARK    6  A    between atoms: C_26  and  C_29
REMARK                            x       y       z     vdW  Elec       q    Type
REMARK                         _______ _______ _______ _____ _____    ______ ____
ROOT
ATOM      1  N   UNL     1       4.552   5.389   0.136  0.00  0.00    -0.189 N 
ATOM      2  C   UNL     1       5.868   5.217   0.374  0.00  0.00    +0.339 C 
ATOM      3  O   UNL     1       6.335   4.096   0.428  0.00  0.00    -0.249 OA
ATOM      4  N   UNL     1       6.665   6.289   0.551  0.00  0.00    -0.189 N 
ATOM      5  H   UNL     1       3.978   4.617   0.009  0.00  0.00    +0.179 HD
ATOM      6  H   UNL     1       7.612   6.166   0.722  0.00  0.00    +0.179 HD
ENDROOT
BRANCH   1   8
ATOM      7  C   UNL     1       2.728   6.845  -0.046  0.00  0.00    +0.176 C 
ATOM      8  N   UNL     1       4.014   6.681   0.073  0.00  0.00    -0.183 NA
BRANCH   7  11
ATOM      9  C   UNL     1       1.115   3.619   0.208  0.00  0.00    +0.136 A 
ATOM     10  O   UNL     1       2.209   4.401   0.154  0.00  0.00    -0.454 OA
ATOM     11  C   UNL     1       1.831   5.691   0.041  0.00  0.00    +0.148 A 
ATOM     12  C   UNL     1       0.455   5.734   0.023  0.00  0.00    +0.051 A 
ATOM     13  C   UNL     1       0.008   4.409   0.125  0.00  0.00    +0.050 A 
BRANCH   9  15
ATOM     14  C   UNL     1      -0.096   1.449   0.371  0.00  0.00    +0.012 A 
ATOM     15  C   UNL     1       1.114   2.147   0.332  0.00  0.00    +0.018 A 
ATOM     16  C   UNL     1       2.322   1.453   0.408  0.00  0.00    +0.027 A 
ATOM     17  C   UNL     1       2.312   0.065   0.523  0.00  0.00    +0.066 A 
ATOM     18  C   UNL     1       1.091  -0.618   0.562  0.00  0.00    +0.004 A 
ATOM     19  C   UNL     1      -0.098   0.072   0.486  0.00  0.00    +0.008 A 
ATOM     20  C   UNL     1       1.433  -2.081   0.689  0.00  0.00    +0.268 C 
ATOM     21  O   UNL     1       2.860  -2.170   0.719  0.00  0.00    -0.456 OA
ATOM     22  C   UNL     1       3.388  -0.938   0.624  0.00  0.00    +0.340 C 
ATOM     23  O   UNL     1       4.577  -0.688   0.621  0.00  0.00    -0.245 OA
ENDBRANCH   9  15
ENDBRANCH   7  11
ENDBRANCH   1   8
BRANCH   4  24
ATOM     24  N   UNL     1       6.128   7.581   0.488  0.00  0.00    -0.183 NA
ATOM     25  C   UNL     1       6.879   8.612   0.746  0.00  0.00    +0.176 C 
BRANCH  25  26
ATOM     26  C   UNL     1       8.319   8.437   0.946  0.00  0.00    +0.148 A 
ATOM     27  O   UNL     1       9.010   7.293   0.765  0.00  0.00    -0.454 OA
ATOM     28  C   UNL     1      10.310   7.508   1.042  0.00  0.00    +0.136 A 
ATOM     29  C   UNL     1      10.469   8.811   1.409  0.00  0.00    +0.050 A 
ATOM     30  C   UNL     1       9.205   9.414   1.345  0.00  0.00    +0.051 A 
BRANCH  28  31
ATOM     31  C   UNL     1      11.386   6.500   0.963  0.00  0.00    +0.018 A 
ATOM     32  C   UNL     1      11.091   5.195   0.566  0.00  0.00    +0.027 A 
ATOM     33  C   UNL     1      12.111   4.250   0.494  0.00  0.00    +0.066 A 
ATOM     34  C   UNL     1      13.421   4.620   0.819  0.00  0.00    +0.004 A 
ATOM     35  C   UNL     1      13.707   5.909   1.210  0.00  0.00    +0.008 A 
ATOM     36  C   UNL     1      12.700   6.853   1.279  0.00  0.00    +0.012 A 
ATOM     37  C   UNL     1      14.263   3.382   0.637  0.00  0.00    +0.268 C 
ATOM     38  O   UNL     1      13.380   2.342   0.209  0.00  0.00    -0.456 OA
ATOM     39  C   UNL     1      12.130   2.824   0.119  0.00  0.00    +0.340 C 
ATOM     40  O   UNL     1      11.158   2.180  -0.220  0.00  0.00    -0.245 OA
ENDBRANCH  28  31
ENDBRANCH  25  26
ENDBRANCH   4  24
TORSDOF 6
