REMARK  Name = ZINC60391865
REMARK  5 active torsions:
REMARK  status: ('A' for Active; 'I' for Inactive)
REMARK    1  A    between atoms: C_1  and  C_2
REMARK    2  A    between atoms: C_3  and  C_21
REMARK    3  A    between atoms: N_9  and  N_12
REMARK    4  A    between atoms: C_13  and  C_15
REMARK    5  A    between atoms: C_18  and  C_20
REMARK                            x       y       z     vdW  Elec       q    Type
REMARK                         _______ _______ _______ _____ _____    ______ ____
ROOT
ATOM      1  C   UNL     1      -0.018   1.503   0.010  0.00  0.00    +0.052 C 
ATOM      2  C   UNL     1       0.002  -0.004   0.002  0.00  0.00    -0.003 A 
ATOM      3  C   UNL     1      -1.050  -0.858   0.002  0.00  0.00    +0.007 A 
ATOM      4  C   UNL     1      -0.788  -2.293  -0.007  0.00  0.00    +0.082 A 
ATOM      5  C   UNL     1       0.570  -2.650  -0.015  0.00  0.00    +0.116 A 
ATOM      6  S   UNL     1       1.415  -1.090  -0.018  0.00  0.00    -0.073 S 
ATOM      7  N   UNL     1       0.963  -3.921  -0.024  0.00  0.00    -0.228 NA
ATOM      8  C   UNL     1       0.092  -4.894  -0.026  0.00  0.00    +0.223 A 
ATOM      9  N   UNL     1      -1.242  -4.643  -0.018  0.00  0.00    -0.212 N 
ATOM     10  C   UNL     1      -1.716  -3.383  -0.009  0.00  0.00    +0.280 A 
ATOM     11  O   UNL     1      -2.917  -3.173  -0.003  0.00  0.00    -0.265 OA
ENDROOT
BRANCH   3  12
ATOM     12  C   UNL     1      -2.440  -0.344   0.011  0.00  0.00    -0.016 A 
ATOM     13  C   UNL     1      -3.266  -0.581   1.109  0.00  0.00    +0.008 A 
ATOM     14  C   UNL     1      -4.560  -0.100   1.112  0.00  0.00    +0.001 A 
ATOM     15  C   UNL     1      -5.037   0.615   0.029  0.00  0.00    +0.000 A 
ATOM     16  C   UNL     1      -4.222   0.853  -1.064  0.00  0.00    +0.001 A 
ATOM     17  C   UNL     1      -2.925   0.382  -1.075  0.00  0.00    +0.008 A 
ENDBRANCH   3  12
BRANCH   9  18
ATOM     18  N   UNL     1      -2.143  -5.715  -0.021  0.00  0.00    -0.219 N 
ATOM     19  C   UNL     1      -2.341  -6.432   1.103  0.00  0.00    +0.234 C 
ATOM     20  O   UNL     1      -1.738  -6.149   2.116  0.00  0.00    -0.274 OA
ATOM     21  H   UNL     1      -2.625  -5.942  -0.832  0.00  0.00    +0.176 HD
BRANCH  19  22
ATOM     22  C   UNL     1      -3.310  -7.586   1.100  0.00  0.00    +0.080 C 
ATOM     23  C   UNL     1      -4.599  -7.428   1.909  0.00  0.00    +0.017 C 
ATOM     24  C   UNL     1      -3.492  -8.360   2.407  0.00  0.00    -0.001 C 
ATOM     25  C   UNL     1      -2.675  -7.903   3.618  0.00  0.00    +0.008 C 
ENDBRANCH  19  22
ENDBRANCH   9  18
TORSDOF 3
