REMARK  Name = ZINC21222473
REMARK  7 active torsions:
REMARK  status: ('A' for Active; 'I' for Inactive)
REMARK    1  A    between atoms: C_1  and  C_2
REMARK    2  A    between atoms: C_5  and  C_7
REMARK    3  A    between atoms: C_12  and  C_17
REMARK    4  A    between atoms: C_20  and  C_23
REMARK    5  A    between atoms: C_23  and  C_24
REMARK    6  A    between atoms: C_23  and  C_25
REMARK    7  A    between atoms: C_23  and  C_26
REMARK                            x       y       z     vdW  Elec       q    Type
REMARK                         _______ _______ _______ _____ _____    ______ ____
ROOT
ATOM      1  C   UNL     1       2.652   0.533  -1.333  0.00  0.00    +0.172 C 
ATOM      2  C   UNL     1       1.666  -0.574  -1.627  0.00  0.00    +0.039 C 
ATOM      3  C   UNL     1       0.489  -0.765  -1.012  0.00  0.00    +0.017 C 
ATOM      4  C   UNL     1      -0.426  -1.900  -1.445  0.00  0.00    +0.059 C 
ATOM      5  C   UNL     1       0.412  -3.097  -1.892  0.00  0.00    +0.032 C 
ATOM      6  C   UNL     1       1.279  -2.645  -3.072  0.00  0.00    +0.088 C 
ATOM      7  C   UNL     1       2.091  -1.459  -2.646  0.00  0.00    +0.163 C 
ATOM      8  O   UNL     1       3.155  -1.250  -3.196  0.00  0.00    -0.292 OA
ATOM      9  N   UNL     1       0.002  -0.004   0.002  0.00  0.00    -0.316 N 
ATOM     10  C   UNL     1      -0.017   1.387   0.010  0.00  0.00    +0.052 A 
ATOM     11  C   UNL     1      -1.195   2.112   0.035  0.00  0.00    +0.025 A 
ATOM     12  C   UNL     1      -1.140   3.495   0.091  0.00  0.00    +0.002 A 
ATOM     13  C   UNL     1       0.082   4.142   0.123  0.00  0.00    +0.002 A 
ATOM     14  C   UNL     1       1.261   3.418   0.080  0.00  0.00    +0.025 A 
ATOM     15  C   UNL     1       1.210   2.035   0.001  0.00  0.00    +0.049 A 
ATOM     16  N   UNL     1       2.369   1.274  -0.121  0.00  0.00    -0.329 N 
ATOM     17  H   UNL     1      -0.416  -0.485   0.899  0.00  0.00    +0.152 HD
ATOM     18  H   UNL     1       3.076   1.242   0.721  0.00  0.00    +0.147 HD
ENDROOT
BRANCH   1  23
ATOM     19  C   UNL     1       1.278   4.277  -4.421  0.00  0.00    +0.086 C 
ATOM     20  C   UNL     1       2.052   3.125  -3.834  0.00  0.00    +0.102 A 
ATOM     21  C   UNL     1       3.173   2.587  -4.348  0.00  0.00    +0.045 A 
ATOM     22  C   UNL     1       3.558   1.538  -3.482  0.00  0.00    +0.047 A 
ATOM     23  C   UNL     1       2.649   1.497  -2.491  0.00  0.00    +0.130 A 
ATOM     24  O   UNL     1       1.736   2.457  -2.713  0.00  0.00    -0.463 OA
ENDBRANCH   1  23
BRANCH   5  25
ATOM     25  C   UNL     1      -0.492  -4.222  -2.324  0.00  0.00    -0.043 A 
ATOM     26  C   UNL     1      -1.408  -4.022  -3.340  0.00  0.00    +0.004 A 
ATOM     27  C   UNL     1      -2.234  -5.056  -3.739  0.00  0.00    +0.004 A 
ATOM     28  C   UNL     1      -2.152  -6.287  -3.116  0.00  0.00    -0.042 A 
ATOM     29  C   UNL     1      -1.240  -6.485  -2.096  0.00  0.00    +0.004 A 
ATOM     30  C   UNL     1      -0.411  -5.453  -1.700  0.00  0.00    +0.004 A 
BRANCH  28  31
ATOM     31  C   UNL     1      -3.057  -7.412  -3.548  0.00  0.00    -0.013 C 
ATOM     32  C   UNL     1      -3.917  -7.858  -2.364  0.00  0.00    +0.015 C 
ATOM     33  C   UNL     1      -3.962  -6.931  -4.684  0.00  0.00    +0.015 C 
ATOM     34  C   UNL     1      -2.209  -8.589  -4.034  0.00  0.00    +0.015 C 
ENDBRANCH  28  31
ENDBRANCH   5  25
TORSDOF 3
