REMARK  Name = ZINC67122350
REMARK  11 active torsions:
REMARK  status: ('A' for Active; 'I' for Inactive)
REMARK    1  A    between atoms: C_1  and  C_2
REMARK    2  A    between atoms: N_5  and  C_8
REMARK    3  A    between atoms: C_8  and  C_9
REMARK    4  A    between atoms: C_9  and  C_11
REMARK    5  A    between atoms: C_9  and  O_24
REMARK    6  A    between atoms: C_11  and  N_12
REMARK    7  A    between atoms: N_12  and  C_13
REMARK    8  A    between atoms: C_13  and  C_14
REMARK    9  A    between atoms: C_17  and  C_19
REMARK   10  A    between atoms: C_19  and  S_20
REMARK   11  A    between atoms: S_20  and  C_21
REMARK                            x       y       z     vdW  Elec       q    Type
REMARK                         _______ _______ _______ _____ _____    ______ ____
ROOT
ATOM      1  N   UNL     1       3.478  -6.288   2.333  0.00  0.00    +0.385 N 
ATOM      2  H   UNL     1       4.390  -5.857   2.333  0.00  0.00    -0.085 HD
ATOM      3  H   UNL     1       2.973  -6.006   3.160  0.00  0.00    -0.085 HD
ENDROOT
BRANCH   1   4
ATOM      4  C   UNL     1       2.736  -5.863   1.138  0.00  0.00    -0.052 C 
BRANCH   4   5
ATOM      5  C   UNL     1       2.582  -4.341   1.147  0.00  0.00    +0.081 C 
BRANCH   5   6
ATOM      6  O   UNL     1       3.869  -3.731   1.030  0.00  0.00    -0.395 OA
ATOM      7  H   UNL     1       4.342  -3.965   0.220  0.00  0.00    +0.210 HD
ENDBRANCH   5   6
BRANCH   5   8
ATOM      8  C   UNL     1       1.704  -3.911  -0.029  0.00  0.00    -0.049 C 
BRANCH   8  13
ATOM      9  C   UNL     1      -0.019   1.526   0.010  0.00  0.00    +0.007 C 
ATOM     10  C   UNL     1       0.002  -0.004   0.002  0.00  0.00    -0.018 C 
ATOM     11  C   UNL     1       0.727  -0.499  -1.252  0.00  0.00    -0.016 C 
ATOM     12  C   UNL     1       0.814  -2.027  -1.215  0.00  0.00    -0.078 C 
ATOM     13  N   UNL     1       1.556  -2.449  -0.021  0.00  0.00    +0.381 N 
ATOM     14  C   UNL     1       0.829  -2.040   1.187  0.00  0.00    -0.078 C 
ATOM     15  C   UNL     1       0.743  -0.513   1.242  0.00  0.00    -0.016 C 
ATOM     16  H   UNL     1       2.469  -2.020  -0.024  0.00  0.00    -0.082 HD
ENDBRANCH   8  13
ENDBRANCH   5   8
ENDBRANCH   4   5
ENDBRANCH   1   4
BRANCH   1  17
ATOM     17  C   UNL     1       3.626  -7.749   2.324  0.00  0.00    -0.007 C 
BRANCH  17  18
ATOM     18  C   UNL     1       4.387  -8.184   3.550  0.00  0.00    +0.088 A 
ATOM     19  C   UNL     1       3.845  -8.515   4.736  0.00  0.00    +0.043 A 
ATOM     20  C   UNL     1       4.916  -8.857   5.594  0.00  0.00    +0.046 A 
ATOM     21  C   UNL     1       6.047  -8.716   4.881  0.00  0.00    +0.115 A 
ATOM     22  O   UNL     1       5.721  -8.313   3.642  0.00  0.00    -0.466 OA
BRANCH  21  23
ATOM     23  C   UNL     1       7.444  -8.970   5.385  0.00  0.00    +0.148 C 
BRANCH  23  24
ATOM     24  S   UNL     1       7.891 -10.702   5.081  0.00  0.00    -0.084 S 
BRANCH  24  25
ATOM     25  C   UNL     1       9.576 -10.843   5.737  0.00  0.00    +0.400 C 
ATOM     26  F   UNL     1      10.416  -9.955   5.056  0.00  0.00    -0.197 F 
ATOM     27  F   UNL     1       9.574 -10.530   7.100  0.00  0.00    -0.197 F 
ENDBRANCH  24  25
ENDBRANCH  23  24
ENDBRANCH  21  23
ENDBRANCH  17  18
ENDBRANCH   1  17
TORSDOF 10
