REMARK  Name = ZINC14161023
REMARK  8 active torsions:
REMARK  status: ('A' for Active; 'I' for Inactive)
REMARK    1  A    between atoms: C_1  and  C_2
REMARK    2  A    between atoms: C_4  and  C_37
REMARK    3  A    between atoms: N_10  and  C_11
REMARK    4  A    between atoms: C_11  and  N_13
REMARK    5  A    between atoms: N_13  and  C_14
REMARK    6  A    between atoms: C_14  and  C_15
REMARK    7  A    between atoms: N_24  and  C_27
REMARK    8  A    between atoms: C_27  and  C_28
REMARK                            x       y       z     vdW  Elec       q    Type
REMARK                         _______ _______ _______ _____ _____    ______ ____
ROOT
ATOM      1  C   UNL     1      -3.176   4.111   0.023  0.00  0.00    +0.066 C 
ATOM      2  C   UNL     1      -2.746   2.668  -0.022  0.00  0.00    +0.044 A 
ATOM      3  C   UNL     1      -3.691   1.655  -0.068  0.00  0.00    +0.046 A 
ATOM      4  C   UNL     1      -3.252   0.341  -0.108  0.00  0.00    +0.044 A 
ATOM      5  N   UNL     1      -1.953   0.094  -0.101  0.00  0.00    -0.219 NA
ATOM      6  C   UNL     1      -1.076   1.085  -0.057  0.00  0.00    +0.222 A 
ATOM      7  N   UNL     1      -1.462   2.351  -0.013  0.00  0.00    -0.219 NA
ATOM      8  N   UNL     1       0.281   0.790  -0.052  0.00  0.00    -0.258 N 
ATOM      9  C   UNL     1       1.201   1.802  -0.012  0.00  0.00    +0.180 C 
ATOM     10  N   UNL     1       0.803   3.061  -0.076  0.00  0.00    -0.164 NA
ATOM     11  N   UNL     1       2.531   1.512   0.094  0.00  0.00    -0.302 N 
ATOM     12  C   UNL     1       3.423   2.346   0.914  0.00  0.00    +0.123 C 
ATOM     13  C   UNL     1       4.205   1.426   1.865  0.00  0.00    +0.103 C 
ATOM     14  N   UNL     1       4.878   0.380   1.082  0.00  0.00    -0.295 NA
ATOM     15  C   UNL     1       3.906  -0.479   0.393  0.00  0.00    +0.103 C 
ATOM     16  C   UNL     1       3.111   0.359  -0.613  0.00  0.00    +0.123 C 
ATOM     17  C   UNL     1      -4.244  -0.793  -0.158  0.00  0.00    +0.066 C 
ATOM     18  H   UNL     1       0.616  -0.258  -0.079  0.00  0.00    +0.157 HD
ENDROOT
BRANCH  10  19
ATOM     19  C   UNL     1       1.706   4.045  -0.197  0.00  0.00    +0.157 C 
ATOM     20  S   UNL     1       2.826   4.025  -1.492  0.00  0.00    -0.017 S 
BRANCH  19  21
ATOM     21  N   UNL     1       1.732   5.048   0.702  0.00  0.00    -0.322 N 
ATOM     22  H   UNL     1       1.013   5.061   1.534  0.00  0.00    +0.148 HD
BRANCH  21  23
ATOM     23  C   UNL     1       2.719   6.123   0.571  0.00  0.00    +0.134 C 
BRANCH  23  24
ATOM     24  C   UNL     1       2.534   7.127   1.711  0.00  0.00    +0.135 C 
ATOM     25  C   UNL     1       3.563   8.267   1.577  0.00  0.00    +0.035 C 
ATOM     26  C   UNL     1       2.700   9.547   1.471  0.00  0.00    +0.031 C 
ATOM     27  C   UNL     1       1.356   9.084   2.088  0.00  0.00    +0.160 C 
ATOM     28  O   UNL     1       1.226   7.718   1.634  0.00  0.00    -0.375 OA
ENDBRANCH  23  24
ENDBRANCH  21  23
ENDBRANCH  19  21
ENDBRANCH  10  19
BRANCH  14  29
ATOM     29  C   UNL     1       5.777  -0.415   1.929  0.00  0.00    +0.119 C 
BRANCH  29  30
ATOM     30  C   UNL     1       6.903   0.456   2.423  0.00  0.00    -0.030 A 
ATOM     31  C   UNL     1       8.070   0.556   1.688  0.00  0.00    +0.009 A 
ATOM     32  C   UNL     1       9.104   1.358   2.134  0.00  0.00    +0.050 A 
ATOM     33  C   UNL     1       8.978   2.053   3.325  0.00  0.00    +0.166 A 
ATOM     34  C   UNL     1       7.805   1.948   4.068  0.00  0.00    +0.167 A 
ATOM     35  C   UNL     1       6.770   1.147   3.612  0.00  0.00    +0.054 A 
ATOM     36  O   UNL     1       7.926   2.720   5.187  0.00  0.00    -0.453 OA
ATOM     37  C   UNL     1       9.336   2.975   5.327  0.00  0.00    +0.466 C 
ATOM     38  O   UNL     1       9.835   2.892   3.979  0.00  0.00    -0.453 OA
ENDBRANCH  29  30
ENDBRANCH  14  29
TORSDOF 6
