REMARK  Name = ZINC25455674
REMARK  11 active torsions:
REMARK  status: ('A' for Active; 'I' for Inactive)
REMARK    1  A    between atoms: C_1  and  C_2
REMARK    2  A    between atoms: C_5  and  N_9
REMARK    3  A    between atoms: C_6  and  C_8
REMARK    4  A    between atoms: C_13  and  C_15
REMARK    5  A    between atoms: C_15  and  C_17
REMARK    6  A    between atoms: C_15  and  S_18
REMARK    7  A    between atoms: S_18  and  C_19
REMARK    8  A    between atoms: N_29  and  C_30
REMARK    9  A    between atoms: C_30  and  C_31
REMARK   10  A    between atoms: C_31  and  O_33
REMARK   11  A    between atoms: O_33  and  C_34
REMARK                            x       y       z     vdW  Elec       q    Type
REMARK                         _______ _______ _______ _____ _____    ______ ____
ROOT
ATOM      1  C   UNL     1      -0.749   1.578   1.294  0.00  0.00    +0.137 C 
ATOM      2  C   UNL     1      -0.038   1.071   0.038  0.00  0.00    +0.029 C 
ENDROOT
BRANCH   1   7
ATOM      3  N   UNL     1      -2.711   5.763  -0.031  0.00  0.00    -0.269 N 
ATOM      4  C   UNL     1      -1.741   5.098   0.629  0.00  0.00    +0.310 C 
ATOM      5  O   UNL     1      -0.877   5.714   1.221  0.00  0.00    -0.252 OA
ATOM      6  N   UNL     1      -1.730   3.750   0.632  0.00  0.00    -0.239 N 
ATOM      7  C   UNL     1      -0.761   3.085   1.291  0.00  0.00    +0.234 C 
ATOM      8  O   UNL     1       0.101   3.700   1.882  0.00  0.00    -0.274 OA
ATOM      9  H   UNL     1      -3.438   5.209  -0.643  0.00  0.00    +0.156 HD
ATOM     10  H   UNL     1      -2.513   3.193   0.096  0.00  0.00    +0.159 HD
BRANCH   3  15
ATOM     11  C   UNL     1      -3.036  11.414   0.347  0.00  0.00    +0.044 C 
ATOM     12  C   UNL     1      -2.950   9.912   0.247  0.00  0.00    -0.050 A 
ATOM     13  C   UNL     1      -2.346   9.187   1.258  0.00  0.00    +0.005 A 
ATOM     14  C   UNL     1      -2.265   7.811   1.169  0.00  0.00    +0.024 A 
ATOM     15  C   UNL     1      -2.791   7.156   0.063  0.00  0.00    +0.038 A 
ATOM     16  C   UNL     1      -3.393   7.888  -0.953  0.00  0.00    -0.029 A 
ATOM     17  C   UNL     1      -3.475   9.264  -0.855  0.00  0.00    +0.008 A 
ATOM     18  C   UNL     1      -3.959   7.182  -2.157  0.00  0.00    +0.045 C 
ENDBRANCH   3  15
ENDBRANCH   1   7
BRANCH   1  19
ATOM     19  S   UNL     1       0.126   0.985   2.764  0.00  0.00    -0.075 S 
BRANCH  19  20
ATOM     20  C   UNL     1      -0.137  -0.749   2.597  0.00  0.00    +0.173 A 
ATOM     21  N   UNL     1      -0.830  -1.180   1.572  0.00  0.00    -0.223 NA
ATOM     22  C   UNL     1      -1.066  -2.494   1.380  0.00  0.00    +0.079 A 
ATOM     23  C   UNL     1      -1.802  -2.954   0.284  0.00  0.00    +0.028 A 
ATOM     24  C   UNL     1      -2.021  -4.294   0.132  0.00  0.00    +0.002 A 
ATOM     25  C   UNL     1      -1.523  -5.209   1.050  0.00  0.00    +0.001 A 
ATOM     26  C   UNL     1      -0.800  -4.789   2.132  0.00  0.00    +0.015 A 
ATOM     27  C   UNL     1      -0.561  -3.428   2.313  0.00  0.00    +0.065 A 
ATOM     28  C   UNL     1       0.209  -2.920   3.457  0.00  0.00    +0.263 A 
ATOM     29  O   UNL     1       0.669  -3.675   4.293  0.00  0.00    -0.267 OA
ATOM     30  N   UNL     1       0.387  -1.581   3.545  0.00  0.00    -0.276 N 
BRANCH  30  31
ATOM     31  C   UNL     1       1.147  -1.020   4.665  0.00  0.00    +0.247 C 
BRANCH  31  32
ATOM     32  C   UNL     1       0.210  -0.719   5.806  0.00  0.00    +0.327 C 
ATOM     33  O   UNL     1      -0.971  -0.950   5.696  0.00  0.00    -0.249 OA
BRANCH  32  34
ATOM     34  O   UNL     1       0.688  -0.196   6.946  0.00  0.00    -0.467 OA
ATOM     35  C   UNL     1      -0.272   0.069   8.003  0.00  0.00    +0.280 C 
ENDBRANCH  32  34
ENDBRANCH  31  32
ENDBRANCH  30  31
ENDBRANCH  19  20
ENDBRANCH   1  19
TORSDOF 7
