REMARK  Name = ZINC12779816
REMARK  7 active torsions:
REMARK  status: ('A' for Active; 'I' for Inactive)
REMARK    1  A    between atoms: C_1  and  C_2
REMARK    2  A    between atoms: C_2  and  C_26
REMARK    3  A    between atoms: N_5  and  C_9
REMARK    4  A    between atoms: C_9  and  C_10
REMARK    5  A    between atoms: N_12  and  C_13
REMARK    6  A    between atoms: C_18  and  S_19
REMARK    7  A    between atoms: S_19  and  C_20
REMARK                            x       y       z     vdW  Elec       q    Type
REMARK                         _______ _______ _______ _____ _____    ______ ____
ROOT
ATOM      1  C   UNL     1      -0.343  10.866  -0.098  0.00  0.00    +0.214 C 
ENDROOT
BRANCH   1   6
ATOM      2  C   UNL     1      -3.292  14.284   1.206  0.00  0.00    +0.047 C 
ATOM      3  C   UNL     1      -1.869  14.168   0.654  0.00  0.00    +0.135 C 
ATOM      4  C   UNL     1      -1.235  12.861   1.088  0.00  0.00    +0.251 C 
ATOM      5  O   UNL     1      -1.016  12.494   2.223  0.00  0.00    -0.272 OA
ATOM      6  N   UNL     1      -0.967  12.191  -0.050  0.00  0.00    -0.215 N 
ATOM      7  C   UNL     1      -1.335  12.888  -1.131  0.00  0.00    +0.310 C 
ATOM      8  O   UNL     1      -1.190  12.492  -2.272  0.00  0.00    -0.252 OA
ATOM      9  N   UNL     1      -1.886  14.073  -0.816  0.00  0.00    -0.281 N 
ATOM     10  H   UNL     1      -2.225  14.738  -1.435  0.00  0.00    +0.152 HD
BRANCH   3  11
ATOM     11  C   UNL     1      -1.031  15.338   1.101  0.00  0.00    -0.015 A 
ATOM     12  C   UNL     1      -0.277  15.246   2.256  0.00  0.00    +0.009 A 
ATOM     13  C   UNL     1       0.496  16.316   2.663  0.00  0.00    +0.039 A 
ATOM     14  C   UNL     1       0.506  17.485   1.921  0.00  0.00    +0.123 A 
ATOM     15  C   UNL     1      -0.255  17.578   0.768  0.00  0.00    +0.039 A 
ATOM     16  C   UNL     1      -1.022  16.504   0.359  0.00  0.00    +0.009 A 
ATOM     17  F   UNL     1       1.257  18.535   2.322  0.00  0.00    -0.205 F 
ENDBRANCH   3  11
ENDBRANCH   1   6
BRANCH   1  18
ATOM     18  C   UNL     1      -1.413   9.806  -0.060  0.00  0.00    +0.235 C 
ATOM     19  O   UNL     1      -2.582  10.125   0.001  0.00  0.00    -0.274 OA
ATOM     20  N   UNL     1      -1.071   8.502  -0.094  0.00  0.00    -0.283 N 
ATOM     21  H   UNL     1      -0.144   8.247  -0.221  0.00  0.00    +0.155 HD
BRANCH  20  22
ATOM     22  C   UNL     1      -2.055   7.516   0.055  0.00  0.00    +0.047 A 
ATOM     23  C   UNL     1      -3.238   7.808   0.718  0.00  0.00    +0.024 A 
ATOM     24  C   UNL     1      -4.205   6.832   0.869  0.00  0.00    +0.002 A 
ATOM     25  C   UNL     1      -4.000   5.564   0.354  0.00  0.00    +0.001 A 
ATOM     26  C   UNL     1      -2.828   5.266  -0.314  0.00  0.00    +0.017 A 
ATOM     27  C   UNL     1      -1.851   6.239  -0.469  0.00  0.00    +0.034 A 
BRANCH  27  28
ATOM     28  S   UNL     1      -0.355   5.862  -1.320  0.00  0.00    -0.088 S 
BRANCH  28  29
ATOM     29  C   UNL     1      -0.540   6.659  -2.881  0.00  0.00    +0.013 A 
ATOM     30  C   UNL     1       0.513   6.667  -3.788  0.00  0.00    +0.015 A 
ATOM     31  C   UNL     1       0.365   7.293  -5.010  0.00  0.00    +0.001 A 
ATOM     32  C   UNL     1      -0.829   7.912  -5.331  0.00  0.00    +0.000 A 
ATOM     33  C   UNL     1      -1.877   7.911  -4.429  0.00  0.00    +0.001 A 
ATOM     34  C   UNL     1      -1.739   7.282  -3.208  0.00  0.00    +0.015 A 
ENDBRANCH  28  29
ENDBRANCH  27  28
ENDBRANCH  20  22
ENDBRANCH   1  18
TORSDOF 6
