REMARK  Name = ZINC23556722
REMARK  14 active torsions:
REMARK  status: ('A' for Active; 'I' for Inactive)
REMARK    1  A    between atoms: C_1  and  C_2
REMARK    2  A    between atoms: C_2  and  C_3
REMARK    3  A    between atoms: C_2  and  N_4
REMARK    4  A    between atoms: N_4  and  C_5
REMARK    5  A    between atoms: N_4  and  C_33
REMARK    6  A    between atoms: C_5  and  C_6
REMARK    7  A    between atoms: C_6  and  N_7
REMARK    8  A    between atoms: C_17  and  S_18
REMARK    9  A    between atoms: S_18  and  C_19
REMARK   10  A    between atoms: C_19  and  C_20
REMARK   11  A    between atoms: N_22  and  N_23
REMARK   12  A    between atoms: C_24  and  C_26
REMARK   13  A    between atoms: C_33  and  C_34
REMARK   14  A    between atoms: C_33  and  C_35
REMARK                            x       y       z     vdW  Elec       q    Type
REMARK                         _______ _______ _______ _____ _____    ______ ____
ROOT
ATOM      1  N   UNL     1      -0.409  -2.771   0.140  0.00  0.00    -0.289 N 
ATOM      2  C   UNL     1       0.730  -2.047   0.036  0.00  0.00    +0.262 A 
ATOM      3  O   UNL     1       1.815  -2.588  -0.070  0.00  0.00    -0.267 OA
ATOM      4  C   UNL     1       0.607  -0.583   0.057  0.00  0.00    +0.065 A 
ATOM      5  C   UNL     1       1.719   0.251  -0.044  0.00  0.00    +0.015 A 
ATOM      6  C   UNL     1       1.548   1.608  -0.019  0.00  0.00    +0.001 A 
ATOM      7  C   UNL     1       0.281   2.161   0.105  0.00  0.00    +0.002 A 
ATOM      8  C   UNL     1      -0.827   1.367   0.205  0.00  0.00    +0.028 A 
ATOM      9  C   UNL     1      -0.685  -0.024   0.183  0.00  0.00    +0.079 A 
ATOM     10  N   UNL     1      -1.750  -0.844   0.280  0.00  0.00    -0.223 NA
ATOM     11  C   UNL     1      -1.618  -2.147   0.259  0.00  0.00    +0.173 A 
ENDROOT
BRANCH   1  12
ATOM     12  C   UNL     1      -0.344  -4.235   0.125  0.00  0.00    +0.109 C 
BRANCH  12  13
ATOM     13  C   UNL     1      -0.184  -4.753   1.556  0.00  0.00    -0.056 C 
BRANCH  13  14
ATOM     14  N   UNL     1      -0.261  -6.220   1.557  0.00  0.00    +0.384 N 
ATOM     15  H   UNL     1      -1.132  -6.514   0.952  0.00  0.00    -0.081 HD
BRANCH  14  17
ATOM     16  C   UNL     1       0.720  -6.944  -0.567  0.00  0.00    -0.014 C 
ATOM     17  C   UNL     1       0.935  -6.810   0.942  0.00  0.00    -0.074 C 
ATOM     18  C   UNL     1       2.143  -5.908   1.207  0.00  0.00    -0.014 C 
ENDBRANCH  14  17
BRANCH  14  19
ATOM     19  C   UNL     1      -0.462  -6.736   2.918  0.00  0.00    -0.074 C 
ATOM     20  C   UNL     1      -1.701  -6.082   3.533  0.00  0.00    -0.014 C 
ATOM     21  C   UNL     1      -0.659  -8.252   2.865  0.00  0.00    -0.014 C 
ENDBRANCH  14  19
ENDBRANCH  13  14
ENDBRANCH  12  13
ENDBRANCH   1  12
BRANCH  11  22
ATOM     22  S   UNL     1      -3.067  -3.141   0.390  0.00  0.00    -0.078 S 
BRANCH  22  23
ATOM     23  C   UNL     1      -4.325  -1.847   0.518  0.00  0.00    +0.174 C 
BRANCH  23  24
ATOM     24  C   UNL     1      -5.687  -2.481   0.643  0.00  0.00    +0.239 C 
ATOM     25  O   UNL     1      -5.795  -3.688   0.646  0.00  0.00    -0.273 OA
ATOM     26  N   UNL     1      -6.784  -1.705   0.752  0.00  0.00    -0.233 N 
ATOM     27  H   UNL     1      -6.685  -0.610   0.749  0.00  0.00    +0.173 HD
BRANCH  26  28
ATOM     28  N   UNL     1      -8.050  -2.294   0.869  0.00  0.00    -0.230 N 
ATOM     29  C   UNL     1      -9.146  -1.519   0.977  0.00  0.00    +0.263 C 
ATOM     30  O   UNL     1      -9.037  -0.308   0.974  0.00  0.00    -0.269 OA
ATOM     31  H   UNL     1      -8.148  -3.390   0.871  0.00  0.00    +0.173 HD
BRANCH  29  32
ATOM     32  C   UNL     1     -10.481  -2.140   1.100  0.00  0.00    +0.073 A 
ATOM     33  C   UNL     1     -10.610  -3.530   1.099  0.00  0.00    +0.016 A 
ATOM     34  C   UNL     1     -11.858  -4.104   1.219  0.00  0.00    +0.001 A 
ATOM     35  C   UNL     1     -12.984  -3.306   1.331  0.00  0.00    +0.003 A 
ATOM     36  C   UNL     1     -12.867  -1.929   1.328  0.00  0.00    +0.039 A 
ATOM     37  C   UNL     1     -11.621  -1.339   1.213  0.00  0.00    +0.136 A 
ATOM     38  F   UNL     1     -11.507   0.007   1.210  0.00  0.00    -0.205 F 
ENDBRANCH  29  32
ENDBRANCH  26  28
ENDBRANCH  23  24
ENDBRANCH  22  23
ENDBRANCH  11  22
TORSDOF 10
