REMARK  Name = ZINC15954791
REMARK  6 active torsions:
REMARK  status: ('A' for Active; 'I' for Inactive)
REMARK    1  A    between atoms: C_1  and  C_2
REMARK    2  A    between atoms: C_2  and  C_3
REMARK    3  A    between atoms: C_3  and  C_4
REMARK    4  A    between atoms: C_4  and  C_5
REMARK    5  A    between atoms: C_5  and  N_6
REMARK    6  A    between atoms: C_26  and  C_28
REMARK                            x       y       z     vdW  Elec       q    Type
REMARK                         _______ _______ _______ _____ _____    ______ ____
ROOT
ATOM      1  N   UNL     1      -0.743   1.631   3.633  0.00  0.00    -0.291 N 
ATOM      2  C   UNL     1      -0.337   2.902   4.208  0.00  0.00    +0.203 C 
ATOM      3  C   UNL     1      -1.120   3.241   5.434  0.00  0.00    +0.234 C 
ATOM      4  O   UNL     1      -0.873   4.288   5.992  0.00  0.00    -0.274 OA
ATOM      5  N   UNL     1      -2.092   2.479   5.942  0.00  0.00    -0.276 N 
ATOM      6  C   UNL     1      -2.433   1.160   5.412  0.00  0.00    +0.167 C 
ATOM      7  C   UNL     1      -1.677   0.843   4.162  0.00  0.00    +0.237 C 
ATOM      8  O   UNL     1      -1.931  -0.198   3.594  0.00  0.00    -0.274 OA
ATOM      9  C   UNL     1      -2.120   0.108   6.486  0.00  0.00    +0.069 C 
ATOM     10  C   UNL     1      -2.678   0.573   7.803  0.00  0.00    -0.015 A 
ATOM     11  C   UNL     1      -2.946  -0.204   8.995  0.00  0.00    +0.003 A 
ATOM     12  C   UNL     1      -2.803  -1.563   9.293  0.00  0.00    +0.010 A 
ATOM     13  C   UNL     1      -3.165  -1.963  10.556  0.00  0.00    +0.001 A 
ATOM     14  C   UNL     1      -3.650  -1.072  11.499  0.00  0.00    +0.002 A 
ATOM     15  C   UNL     1      -3.800   0.278  11.232  0.00  0.00    +0.026 A 
ATOM     16  C   UNL     1      -3.441   0.713   9.958  0.00  0.00    +0.047 A 
ATOM     17  N   UNL     1      -3.460   1.946   9.372  0.00  0.00    -0.356 N 
ATOM     18  H   UNL     1      -3.753   2.764   9.803  0.00  0.00    +0.166 HD
ATOM     19  C   UNL     1      -3.005   1.853   8.083  0.00  0.00    +0.046 A 
ATOM     20  C   UNL     1      -2.873   2.985   7.090  0.00  0.00    +0.154 C 
ENDROOT
BRANCH  20  21
ATOM     21  C   UNL     1      -2.153   4.145   7.729  0.00  0.00    -0.021 A 
ATOM     22  C   UNL     1      -0.951   3.938   8.379  0.00  0.00    +0.007 A 
ATOM     23  C   UNL     1      -0.287   5.002   8.961  0.00  0.00    +0.015 A 
ATOM     24  C   UNL     1      -0.832   6.272   8.901  0.00  0.00    +0.018 A 
ATOM     25  C   UNL     1      -2.038   6.478   8.255  0.00  0.00    +0.015 A 
ATOM     26  C   UNL     1      -2.698   5.414   7.670  0.00  0.00    +0.007 A 
ATOM     27 BR   UNL     1       0.071   7.727   9.704  0.00  0.00    -0.050 Br
ENDBRANCH  20  21
BRANCH   1  28
ATOM     28  C   UNL     1      -0.083   1.188   2.403  0.00  0.00    +0.108 C 
BRANCH  28  29
ATOM     29  C   UNL     1      -0.862   1.703   1.191  0.00  0.00    +0.019 C 
BRANCH  29  30
ATOM     30  C   UNL     1      -0.172   1.240  -0.093  0.00  0.00    +0.001 C 
BRANCH  30  32
ATOM     31  C   UNL     1      -0.261   1.293  -2.590  0.00  0.00    +0.004 C 
ATOM     32  C   UNL     1      -0.951   1.756  -1.305  0.00  0.00    -0.003 C 
ENDBRANCH  30  32
ENDBRANCH  29  30
ENDBRANCH  28  29
ENDBRANCH   1  28
TORSDOF 5
