REMARK  Name = ZINC08598128
REMARK  10 active torsions:
REMARK  status: ('A' for Active; 'I' for Inactive)
REMARK    1  A    between atoms: C_1  and  C_2
REMARK    2  A    between atoms: C_5  and  N_9
REMARK    3  A    between atoms: C_10  and  C_12
REMARK    4  A    between atoms: C_12  and  N_13
REMARK    5  A    between atoms: N_13  and  C_14
REMARK    6  A    between atoms: N_13  and  S_22
REMARK    7  A    between atoms: C_16  and  C_21
REMARK    8  A    between atoms: C_18  and  C_20
REMARK    9  A    between atoms: S_22  and  C_25
REMARK   10  A    between atoms: C_26  and  C_35
REMARK                            x       y       z     vdW  Elec       q    Type
REMARK                         _______ _______ _______ _____ _____    ______ ____
ROOT
ATOM      1  N   UNL     1      -0.489  -7.283  -2.526  0.00  0.00    -0.194 N 
ENDROOT
BRANCH   1   2
ATOM      2  C   UNL     1       0.420  -7.385  -3.581  0.00  0.00    +0.052 A 
ATOM      3  C   UNL     1       0.117  -6.827  -4.817  0.00  0.00    +0.028 A 
ATOM      4  C   UNL     1       1.018  -6.929  -5.859  0.00  0.00    -0.048 A 
ATOM      5  C   UNL     1       2.220  -7.585  -5.673  0.00  0.00    +0.006 A 
ATOM      6  C   UNL     1       2.526  -8.142  -4.444  0.00  0.00    -0.048 A 
ATOM      7  C   UNL     1       1.631  -8.039  -3.396  0.00  0.00    +0.028 A 
ATOM      8  C   UNL     1       3.837  -8.856  -4.246  0.00  0.00    +0.044 C 
ATOM      9  C   UNL     1       0.690  -6.324  -7.199  0.00  0.00    +0.044 C 
ENDBRANCH   1   2
BRANCH   1  10
ATOM     10  S   UNL     1      -2.094  -7.603  -2.781  0.00  0.00    +0.082 S 
ATOM     11  O   UNL     1      -2.152  -8.783  -3.569  0.00  0.00    -0.150 OA
ATOM     12  O   UNL     1      -2.734  -7.498  -1.517  0.00  0.00    -0.150 OA
BRANCH  10  13
ATOM     13  C   UNL     1      -2.732  -6.299  -3.779  0.00  0.00    +0.192 A 
ATOM     14  C   UNL     1      -2.978  -6.499  -5.091  0.00  0.00    +0.049 A 
ATOM     15  N   UNL     1      -3.474  -5.475  -5.852  0.00  0.00    -0.310 N 
ATOM     16  H   UNL     1      -3.651  -5.619  -6.794  0.00  0.00    +0.170 HD
ATOM     17  C   UNL     1      -3.720  -4.271  -5.304  0.00  0.00    +0.327 A 
ATOM     18  O   UNL     1      -4.161  -3.376  -5.998  0.00  0.00    -0.247 OA
ATOM     19  N   UNL     1      -3.484  -4.044  -3.998  0.00  0.00    -0.273 N 
ATOM     20  H   UNL     1      -3.667  -3.170  -3.619  0.00  0.00    +0.173 HD
ATOM     21  C   UNL     1      -3.000  -5.028  -3.214  0.00  0.00    +0.281 A 
ATOM     22  O   UNL     1      -2.792  -4.825  -2.031  0.00  0.00    -0.266 OA
ATOM     23  C   UNL     1      -2.707  -7.844  -5.715  0.00  0.00    +0.065 C 
ENDBRANCH  10  13
ENDBRANCH   1  10
BRANCH   1  24
ATOM     24  C   UNL     1      -0.022  -6.893  -1.192  0.00  0.00    +0.227 C 
BRANCH  24  26
ATOM     25  N   UNL     1       0.437  -4.801   0.044  0.00  0.00    -0.283 N 
ATOM     26  C   UNL     1       0.033  -5.390  -1.099  0.00  0.00    +0.236 C 
ATOM     27  O   UNL     1      -0.286  -4.711  -2.052  0.00  0.00    -0.274 OA
ATOM     28  H   UNL     1       0.769  -5.341   0.777  0.00  0.00    +0.155 HD
BRANCH  25  33
ATOM     29  C   UNL     1       0.192   0.845   0.561  0.00  0.00    +0.044 C 
ATOM     30  C   UNL     1       0.257  -0.654   0.424  0.00  0.00    -0.049 A 
ATOM     31  C   UNL     1       0.382  -1.228  -0.828  0.00  0.00    +0.005 A 
ATOM     32  C   UNL     1       0.441  -2.602  -0.957  0.00  0.00    +0.025 A 
ATOM     33  C   UNL     1       0.377  -3.408   0.172  0.00  0.00    +0.052 A 
ATOM     34  C   UNL     1       0.253  -2.829   1.429  0.00  0.00    +0.062 A 
ATOM     35  C   UNL     1       0.199  -1.453   1.551  0.00  0.00    +0.025 A 
ATOM     36 CL   UNL     1       0.172  -3.831   2.843  0.00  0.00    -0.082 Cl
ENDBRANCH  25  33
ENDBRANCH  24  26
ENDBRANCH   1  24
TORSDOF 6
