REMARK  Name = ZINC19020429
REMARK  10 active torsions:
REMARK  status: ('A' for Active; 'I' for Inactive)
REMARK    1  A    between atoms: C_1  and  C_2
REMARK    2  A    between atoms: C_2  and  C_3
REMARK    3  A    between atoms: C_3  and  C_33
REMARK    4  A    between atoms: N_6  and  N_10
REMARK    5  A    between atoms: C_11  and  C_13
REMARK    6  A    between atoms: C_13  and  S_14
REMARK    7  A    between atoms: S_14  and  C_15
REMARK    8  A    between atoms: C_18  and  C_27
REMARK    9  A    between atoms: N_19  and  C_20
REMARK   10  A    between atoms: C_27  and  N_62
REMARK                            x       y       z     vdW  Elec       q    Type
REMARK                         _______ _______ _______ _____ _____    ______ ____
ROOT
ATOM      1  C   UNL     1       0.258  -0.160  -1.081  0.00  0.00    +0.197 A 
ATOM      2  N   UNL     1       0.284  -1.453  -0.852  0.00  0.00    -0.122 NA
ATOM      3  N   UNL     1      -0.088  -1.690   0.355  0.00  0.00    -0.135 NA
ATOM      4  C   UNL     1      -0.367  -0.574   0.967  0.00  0.00    +0.122 A 
ATOM      5  N   UNL     1      -0.153   0.444   0.075  0.00  0.00    -0.276 N 
ENDROOT
BRANCH   5   6
ATOM      6  C   UNL     1      -0.326   1.818   0.299  0.00  0.00    +0.050 A 
ATOM      7  C   UNL     1      -1.595   2.330   0.533  0.00  0.00    +0.029 A 
ATOM      8  C   UNL     1      -1.762   3.682   0.758  0.00  0.00    +0.040 A 
ATOM      9  C   UNL     1      -0.667   4.529   0.740  0.00  0.00    +0.124 A 
ATOM     10  C   UNL     1       0.599   4.021   0.502  0.00  0.00    +0.040 A 
ATOM     11  C   UNL     1       0.771   2.668   0.281  0.00  0.00    +0.029 A 
ATOM     12  F   UNL     1      -0.833   5.852   0.955  0.00  0.00    -0.205 F 
ENDBRANCH   5   6
BRANCH   1  13
ATOM     13  S   UNL     1       0.676   0.644  -2.592  0.00  0.00    -0.076 S 
BRANCH  13  14
ATOM     14  C   UNL     1       1.103  -0.793  -3.606  0.00  0.00    +0.174 C 
BRANCH  14  16
ATOM     15  N   UNL     1       1.868  -1.237  -5.916  0.00  0.00    -0.223 N 
ATOM     16  C   UNL     1       1.506  -0.334  -4.984  0.00  0.00    +0.240 C 
ATOM     17  O   UNL     1       1.503   0.849  -5.254  0.00  0.00    -0.273 OA
ATOM     18  H   UNL     1       1.870  -2.183  -5.700  0.00  0.00    +0.174 HD
BRANCH  15  22
ATOM     19  C   UNL     1       2.271  -0.343  -9.433  0.00  0.00    +0.111 C 
ATOM     20  C   UNL     1       1.467  -0.935  -8.293  0.00  0.00    +0.263 C 
ATOM     21  O   UNL     1       0.357  -1.419  -8.353  0.00  0.00    -0.271 OA
ATOM     22  N   UNL     1       2.241  -0.811  -7.197  0.00  0.00    -0.137 N 
ATOM     23  C   UNL     1       3.414  -0.235  -7.485  0.00  0.00    +0.326 C 
ATOM     24  O   UNL     1       4.282  -0.019  -6.661  0.00  0.00    -0.251 OA
ATOM     25  N   UNL     1       3.526   0.080  -8.788  0.00  0.00    -0.284 N 
ATOM     26  C   UNL     1       1.546   0.860 -10.040  0.00  0.00    +0.041 C 
ATOM     27  H   UNL     1       4.285   0.502  -9.220  0.00  0.00    +0.151 HD
BRANCH  19  29
ATOM     28  C   UNL     1       3.546  -0.849 -11.520  0.00  0.00    +0.006 C 
ATOM     29  C   UNL     1       2.545  -1.401 -10.504  0.00  0.00    +0.032 C 
ENDBRANCH  19  29
ENDBRANCH  15  22
ENDBRANCH  14  16
ENDBRANCH  13  14
ENDBRANCH   1  13
BRANCH   4  30
ATOM     30  C   UNL     1      -0.837  -0.429   2.391  0.00  0.00    -0.001 C 
BRANCH  30  36
ATOM     31  C   UNL     1       1.144  -1.365   3.420  0.00  0.00    -0.078 C 
ATOM     32  C   UNL     1       2.407  -1.016   4.210  0.00  0.00    -0.019 C 
ATOM     33  C   UNL     1       2.009  -0.465   5.582  0.00  0.00    -0.004 C 
ATOM     34  C   UNL     1       1.106   0.757   5.391  0.00  0.00    -0.019 C 
ATOM     35  C   UNL     1      -0.119   0.356   4.566  0.00  0.00    -0.078 C 
ATOM     36  N   UNL     1       0.332  -0.142   3.249  0.00  0.00    +0.384 N 
ATOM     37  H   UNL     1       0.906   0.579   2.799  0.00  0.00    -0.081 HD
ENDBRANCH  30  36
ENDBRANCH   4  30
TORSDOF 8
