REMARK  Name = ZINC63429223
REMARK  9 active torsions:
REMARK  status: ('A' for Active; 'I' for Inactive)
REMARK    1  A    between atoms: C_1  and  C_2
REMARK    2  A    between atoms: C_2  and  C_3
REMARK    3  A    between atoms: C_2  and  C_4
REMARK    4  A    between atoms: C_4  and  C_5
REMARK    5  A    between atoms: C_5  and  C_6
REMARK    6  A    between atoms: C_8  and  C_11
REMARK    7  A    between atoms: C_11  and  N_12
REMARK    8  A    between atoms: C_14  and  C_17
REMARK    9  A    between atoms: C_21  and  C_23
REMARK                            x       y       z     vdW  Elec       q    Type
REMARK                         _______ _______ _______ _____ _____    ______ ____
ROOT
ATOM      1  N   UNL     1       2.417  -4.054   5.717  0.00  0.00    -0.154 N 
ATOM      2  N   UNL     1       2.208  -5.008   4.877  0.00  0.00    -0.130 NA
ATOM      3  C   UNL     1       3.359  -5.611   4.655  0.00  0.00    +0.205 A 
ATOM      4  N   UNL     1       4.274  -4.976   5.401  0.00  0.00    -0.108 NA
ATOM      5  N   UNL     1       3.665  -4.029   6.031  0.00  0.00    -0.045 NA
ENDROOT
BRANCH   3   6
ATOM      6  C   UNL     1       3.596  -6.767   3.754  0.00  0.00    +0.023 A 
ATOM      7  C   UNL     1       2.539  -7.321   3.035  0.00  0.00    +0.012 A 
ATOM      8  C   UNL     1       2.765  -8.395   2.199  0.00  0.00    +0.001 A 
ATOM      9  C   UNL     1       4.038  -8.923   2.075  0.00  0.00    +0.012 A 
ATOM     10  C   UNL     1       5.090  -8.377   2.787  0.00  0.00    +0.055 A 
ATOM     11  C   UNL     1       4.876  -7.298   3.622  0.00  0.00    +0.024 A 
BRANCH  10  12
ATOM     12  C   UNL     1       6.474  -8.958   2.648  0.00  0.00    +0.417 C 
ATOM     13  F   UNL     1       6.441 -10.031   1.751  0.00  0.00    -0.166 F 
ATOM     14  F   UNL     1       7.346  -7.975   2.167  0.00  0.00    -0.166 F 
ATOM     15  F   UNL     1       6.919  -9.407   3.896  0.00  0.00    -0.166 F 
ENDBRANCH  10  12
ENDBRANCH   3   6
BRANCH   1  16
ATOM     16  C   UNL     1       1.396  -3.138   6.231  0.00  0.00    +0.266 C 
BRANCH  16  19
ATOM     17  C   UNL     1       0.687  -0.623   3.718  0.00  0.00    +0.172 A 
ATOM     18  N   UNL     1       0.517  -1.820   4.291  0.00  0.00    -0.194 NA
ATOM     19  C   UNL     1       1.299  -1.936   5.327  0.00  0.00    +0.251 A 
ATOM     20  O   UNL     1       2.003  -0.803   5.451  0.00  0.00    -0.336 OA
ATOM     21  N   UNL     1       1.590   0.038   4.384  0.00  0.00    -0.061 NA
BRANCH  17  22
ATOM     22  C   UNL     1      -0.042  -0.124   2.497  0.00  0.00    +0.080 C 
BRANCH  22  23
ATOM     23  C   UNL     1       0.742  -0.511   1.242  0.00  0.00    +0.011 C 
BRANCH  23  25
ATOM     24  C   UNL     1      -0.019   1.526   0.010  0.00  0.00    +0.007 C 
ATOM     25  C   UNL     1       0.002  -0.004   0.002  0.00  0.00    -0.017 C 
ATOM     26  C   UNL     1       0.718  -0.497  -1.257  0.00  0.00    +0.007 C 
ENDBRANCH  23  25
ENDBRANCH  22  23
ENDBRANCH  17  22
ENDBRANCH  16  19
ENDBRANCH   1  16
TORSDOF 7
