REMARK  Name = ZINC08994557
REMARK  6 active torsions:
REMARK  status: ('A' for Active; 'I' for Inactive)
REMARK    1  A    between atoms: C_1  and  O_2
REMARK    2  A    between atoms: O_2  and  C_3
REMARK    3  A    between atoms: C_3  and  C_4
REMARK    4  A    between atoms: C_4  and  N_5
REMARK    5  A    between atoms: C_10  and  C_27
REMARK    6  A    between atoms: C_27  and  C_28
REMARK                            x       y       z     vdW  Elec       q    Type
REMARK                         _______ _______ _______ _____ _____    ______ ____
ROOT
ATOM      1  N   UNL     1       4.486   8.965   1.857  0.00  0.00    -0.240 N 
ATOM      2  C   UNL     1       4.761   7.762   1.245  0.00  0.00    +0.224 C 
ATOM      3  O   UNL     1       5.762   7.447   0.639  0.00  0.00    -0.275 OA
ATOM      4  C   UNL     1       3.589   6.962   1.489  0.00  0.00    +0.073 C 
ATOM      5  C   UNL     1       3.086   5.581   1.439  0.00  0.00    -0.053 C 
ATOM      6  C   UNL     1       1.818   6.820   3.056  0.00  0.00    +0.050 C 
ATOM      7  C   UNL     1       3.196   7.421   2.945  0.00  0.00    +0.088 C 
ATOM      8  C   UNL     1       3.439   8.881   2.734  0.00  0.00    +0.225 C 
ATOM      9  O   UNL     1       2.833   9.802   3.237  0.00  0.00    -0.275 OA
ATOM     10  C   UNL     1       0.720   7.835   2.890  0.00  0.00    -0.026 A 
ATOM     11  C   UNL     1       0.373   8.698   1.873  0.00  0.00    +0.024 A 
ATOM     12  C   UNL     1      -0.720   9.534   2.015  0.00  0.00    +0.041 A 
ATOM     13  C   UNL     1      -1.468   9.499   3.179  0.00  0.00    +0.022 A 
ATOM     14  C   UNL     1      -1.128   8.633   4.197  0.00  0.00    +0.025 A 
ATOM     15  C   UNL     1      -0.029   7.787   4.061  0.00  0.00    +0.036 A 
ATOM     16  N   UNL     1       0.498   6.832   4.933  0.00  0.00    -0.286 N 
ATOM     17  C   UNL     1       1.577   6.215   4.418  0.00  0.00    +0.211 C 
ATOM     18  O   UNL     1       2.231   5.341   4.946  0.00  0.00    -0.277 OA
ATOM     19 CL   UNL     1      -1.154  10.624   0.735  0.00  0.00    -0.084 Cl
ATOM     20  H   UNL     1       0.130   6.636   5.809  0.00  0.00    +0.155 HD
ATOM     21  N   UNL     1       1.719   5.779   2.015  0.00  0.00    +0.394 N 
ATOM     22  H   UNL     1       1.382   4.902   2.429  0.00  0.00    -0.083 HD
ATOM     23  H   UNL     1       1.070   6.082   1.279  0.00  0.00    -0.083 HD
ENDROOT
BRANCH   1  24
ATOM     24  C   UNL     1       5.233  10.198   1.597  0.00  0.00    +0.144 C 
BRANCH  24  25
ATOM     25  C   UNL     1       6.410  10.297   2.570  0.00  0.00    +0.179 C 
BRANCH  25  27
ATOM     26  C   UNL     1       8.474   9.236   3.170  0.00  0.00    +0.194 C 
ATOM     27  O   UNL     1       7.331   9.236   2.311  0.00  0.00    -0.381 OA
ENDBRANCH  25  27
ENDBRANCH  24  25
ENDBRANCH   1  24
BRANCH   5  28
ATOM     28  C   UNL     1       3.027   5.065   0.000  0.00  0.00    +0.022 C 
BRANCH  28  29
ATOM     29  C   UNL     1       2.539   3.639  -0.003  0.00  0.00    -0.024 A 
ATOM     30  C   UNL     1       3.301   2.534  -0.016  0.00  0.00    +0.087 A 
ATOM     31  N   UNL     1       2.507   1.420  -0.014  0.00  0.00    -0.360 N 
ATOM     32  H   UNL     1       2.830   0.505  -0.021  0.00  0.00    +0.165 HD
ATOM     33  C   UNL     1       1.181   1.790   0.000  0.00  0.00    +0.047 A 
ATOM     34  C   UNL     1       1.143   3.196   0.008  0.00  0.00    +0.003 A 
ATOM     35  C   UNL     1      -0.085   3.860   0.023  0.00  0.00    +0.010 A 
ATOM     36  C   UNL     1      -1.246   3.138   0.030  0.00  0.00    +0.001 A 
ATOM     37  C   UNL     1      -1.214   1.751   0.017  0.00  0.00    +0.002 A 
ATOM     38  C   UNL     1      -0.013   1.076   0.008  0.00  0.00    +0.026 A 
ENDBRANCH  28  29
ENDBRANCH   5  28
TORSDOF 5
