REMARK  Name = ZINC34944386
REMARK  8 active torsions:
REMARK  status: ('A' for Active; 'I' for Inactive)
REMARK    1  A    between atoms: C_4  and  C_7
REMARK    2  A    between atoms: C_7  and  N_8
REMARK    3  A    between atoms: N_17  and  C_31
REMARK    4  A    between atoms: C_21  and  C_29
REMARK    5  A    between atoms: C_22  and  N_28
REMARK    6  A    between atoms: C_23  and  C_24
REMARK    7  A    between atoms: C_23  and  C_26
REMARK    8  A    between atoms: C_31  and  C_32
REMARK                            x       y       z     vdW  Elec       q    Type
REMARK                         _______ _______ _______ _____ _____    ______ ____
ROOT
ATOM      1  N   UNL     1       4.153  -0.953   1.342  0.00  0.00    +0.382 N 
ATOM      2  C   UNL     1       3.211  -1.861   2.003  0.00  0.00    -0.078 C 
ATOM      3  C   UNL     1       3.594  -2.036   3.468  0.00  0.00    -0.008 C 
ATOM      4  C   UNL     1       5.044  -2.455   3.680  0.00  0.00    +0.012 C 
ATOM      5  C   UNL     1       6.010  -1.728   2.750  0.00  0.00    -0.008 C 
ATOM      6  C   UNL     1       5.485  -1.560   1.329  0.00  0.00    -0.078 C 
ATOM      7  C   UNL     1       5.197  -3.965   3.506  0.00  0.00    +0.043 C 
ATOM      8  C   UNL     1       4.997  -4.453   2.090  0.00  0.00    +0.094 C 
ATOM      9  N   UNL     1       4.242  -5.698   1.980  0.00  0.00    -0.294 NA
ATOM     10  C   UNL     1       4.597  -6.643   3.049  0.00  0.00    +0.112 C 
ATOM     11  C   UNL     1       4.138  -6.012   4.347  0.00  0.00    -0.006 C 
ATOM     12  C   UNL     1       4.433  -4.731   4.544  0.00  0.00    -0.026 C 
ATOM     13  C   UNL     1       4.032  -4.071   5.804  0.00  0.00    +0.074 C 
ATOM     14  C   UNL     1       4.524  -2.836   6.087  0.00  0.00    +0.054 C 
ATOM     15  C   UNL     1       5.426  -2.108   5.133  0.00  0.00    +0.187 C 
ATOM     16  H   UNL     1       4.185  -0.077   1.843  0.00  0.00    -0.081 HD
ENDROOT
BRANCH  14  17
ATOM     17  N   UNL     1       4.192  -2.242   7.266  0.00  0.00    -0.358 N 
ATOM     18  H   UNL     1       3.611  -2.700   7.893  0.00  0.00    +0.142 HD
ATOM     19  H   UNL     1       4.537  -1.360   7.479  0.00  0.00    +0.142 HD
ENDBRANCH  14  17
BRANCH  15  20
ATOM     20  C   UNL     1       6.819  -2.489   5.407  0.00  0.00    +0.091 C 
ATOM     21  N   UNL     1       7.896  -2.784   5.618  0.00  0.00    -0.194 NA
ENDBRANCH  15  20
BRANCH  15  22
ATOM     22  C   UNL     1       5.293  -0.665   5.390  0.00  0.00    +0.091 C 
ATOM     23  N   UNL     1       5.189   0.448   5.588  0.00  0.00    -0.194 NA
ENDBRANCH  15  22
BRANCH  13  24
ATOM     24  C   UNL     1       3.137  -4.697   6.731  0.00  0.00    +0.101 C 
ATOM     25  N   UNL     1       2.428  -5.193   7.466  0.00  0.00    -0.191 NA
ENDBRANCH  13  24
BRANCH   1  26
ATOM     26  C   UNL     1       3.711  -0.707  -0.038  0.00  0.00    -0.043 C 
BRANCH  26  30
ATOM     27  C   UNL     1      -0.017   1.378   0.010  0.00  0.00    +0.000 A 
ATOM     28  C   UNL     1       1.171   2.086   0.002  0.00  0.00    +0.000 A 
ATOM     29  C   UNL     1       2.377   1.411  -0.013  0.00  0.00    +0.002 A 
ATOM     30  C   UNL     1       2.396   0.029  -0.020  0.00  0.00    -0.064 A 
ATOM     31  C   UNL     1       1.208  -0.679  -0.012  0.00  0.00    +0.002 A 
ATOM     32  C   UNL     1       0.002  -0.004   0.002  0.00  0.00    +0.000 A 
ENDBRANCH  26  30
ENDBRANCH   1  26
BRANCH   9  33
ATOM     33  C   UNL     1       2.797  -5.490   1.888  0.00  0.00    +0.120 C 
BRANCH  33  34
ATOM     34  C   UNL     1       2.124  -6.791   1.533  0.00  0.00    -0.033 A 
ATOM     35  C   UNL     1       1.932  -7.130   0.207  0.00  0.00    +0.005 A 
ATOM     36  C   UNL     1       1.315  -8.324  -0.119  0.00  0.00    +0.000 A 
ATOM     37  C   UNL     1       0.890  -9.177   0.882  0.00  0.00    +0.000 A 
ATOM     38  C   UNL     1       1.083  -8.838   2.208  0.00  0.00    +0.000 A 
ATOM     39  C   UNL     1       1.704  -7.647   2.534  0.00  0.00    +0.005 A 
ENDBRANCH  33  34
ENDBRANCH   9  33
TORSDOF 8
