REMARK  Name = ZINC16283151
REMARK  8 active torsions:
REMARK  status: ('A' for Active; 'I' for Inactive)
REMARK    1  A    between atoms: C_1  and  C_2
REMARK    2  A    between atoms: C_4  and  C_11
REMARK    3  A    between atoms: C_7  and  N_8
REMARK    4  A    between atoms: N_13  and  C_14
REMARK    5  A    between atoms: C_14  and  N_16
REMARK    6  A    between atoms: N_16  and  C_17
REMARK    7  A    between atoms: C_19  and  C_29
REMARK    8  A    between atoms: C_22  and  N_23
REMARK                            x       y       z     vdW  Elec       q    Type
REMARK                         _______ _______ _______ _____ _____    ______ ____
ROOT
ATOM      1  N   UNL     1      -2.133   1.394   3.698  0.00  0.00    -0.295 N 
ATOM      2  H   UNL     1      -2.143   1.163   2.756  0.00  0.00    +0.154 HD
ENDROOT
BRANCH   1   3
ATOM      3  C   UNL     1      -2.120   2.739   4.089  0.00  0.00    +0.054 A 
ATOM      4  C   UNL     1      -2.906   3.163   5.150  0.00  0.00    +0.037 A 
ATOM      5  C   UNL     1      -2.895   4.492   5.531  0.00  0.00    +0.057 A 
ATOM      6  C   UNL     1      -2.099   5.401   4.860  0.00  0.00    +0.014 A 
ATOM      7  C   UNL     1      -1.307   4.987   3.805  0.00  0.00    +0.025 A 
ATOM      8  C   UNL     1      -1.312   3.655   3.416  0.00  0.00    +0.051 A 
BRANCH   8   9
ATOM      9  N   UNL     1      -0.512   3.234   2.349  0.00  0.00    -0.324 N 
ATOM     10  C   UNL     1       0.066   4.383   1.637  0.00  0.00    +0.133 C 
ATOM     11  C   UNL     1       0.884   3.880   0.445  0.00  0.00    +0.178 C 
ATOM     12  O   UNL     1       1.885   2.970   0.909  0.00  0.00    -0.377 OA
ATOM     13  C   UNL     1       1.356   1.838   1.605  0.00  0.00    +0.178 C 
ATOM     14  C   UNL     1       0.544   2.321   2.810  0.00  0.00    +0.133 C 
ENDBRANCH   8   9
BRANCH   5  15
ATOM     15  C   UNL     1      -3.755   4.950   6.680  0.00  0.00    +0.417 C 
ATOM     16  F   UNL     1      -3.577   6.324   6.877  0.00  0.00    -0.166 F 
ATOM     17  F   UNL     1      -5.099   4.691   6.390  0.00  0.00    -0.166 F 
ATOM     18  F   UNL     1      -3.388   4.262   7.841  0.00  0.00    -0.166 F 
ENDBRANCH   5  15
ENDBRANCH   1   3
BRANCH   1  19
ATOM     19  C   UNL     1      -2.133   0.421   4.630  0.00  0.00    +0.141 C 
ATOM     20  S   UNL     1      -2.251   0.825   6.290  0.00  0.00    -0.018 S 
BRANCH  19  23
ATOM     21  C   UNL     1      -2.040  -1.844   5.189  0.00  0.00    +0.250 C 
ATOM     22  O   UNL     1      -2.123  -1.557   6.367  0.00  0.00    -0.270 OA
ATOM     23  N   UNL     1      -2.040  -0.871   4.256  0.00  0.00    -0.264 N 
ATOM     24  H   UNL     1      -1.973  -1.100   3.316  0.00  0.00    +0.157 HD
BRANCH  21  28
ATOM     25  C   UNL     1      -1.841  -6.683   6.391  0.00  0.00    +0.046 C 
ATOM     26  C   UNL     1      -1.842  -5.590   5.353  0.00  0.00    -0.020 A 
ATOM     27  C   UNL     1      -1.937  -4.270   5.742  0.00  0.00    +0.018 A 
ATOM     28  C   UNL     1      -1.938  -3.260   4.779  0.00  0.00    +0.037 A 
ATOM     29  C   UNL     1      -1.847  -3.594   3.426  0.00  0.00    +0.015 A 
ATOM     30  C   UNL     1      -1.748  -4.917   3.051  0.00  0.00    +0.034 A 
ATOM     31  C   UNL     1      -1.748  -5.914   4.011  0.00  0.00    +0.129 A 
BRANCH  31  32
ATOM     32  N   UNL     1      -1.647  -7.332   3.600  0.00  0.00    +0.057 N 
ATOM     33  O   UNL     1      -0.926  -7.647   2.670  0.00  0.00    -0.126 OA
ATOM     34  O   UNL     1      -2.284  -8.185   4.193  0.00  0.00    -0.126 OA
ENDBRANCH  31  32
ENDBRANCH  21  28
ENDBRANCH  19  23
ENDBRANCH   1  19
TORSDOF 7
