REMARK  Name = ZINC13567652
REMARK  8 active torsions:
REMARK  status: ('A' for Active; 'I' for Inactive)
REMARK    1  A    between atoms: C_1  and  C_2
REMARK    2  A    between atoms: C_5  and  N_8
REMARK    3  A    between atoms: C_14  and  C_16
REMARK    4  A    between atoms: C_14  and  C_17
REMARK    5  A    between atoms: N_25  and  C_28
REMARK    6  A    between atoms: C_28  and  C_29
REMARK    7  A    between atoms: C_31  and  C_34
REMARK    8  A    between atoms: C_32  and  N_33
REMARK                            x       y       z     vdW  Elec       q    Type
REMARK                         _______ _______ _______ _____ _____    ______ ____
ROOT
ATOM      1  N   UNL     1      -4.184   1.869  -0.023  0.00  0.00    -0.260 N 
ATOM      2  C   UNL     1      -2.844   2.134  -0.131  0.00  0.00    +0.026 C 
ATOM      3  C   UNL     1      -2.285   2.370  -1.337  0.00  0.00    +0.037 C 
ATOM      4  C   UNL     1      -0.911   2.642  -1.459  0.00  0.00    +0.163 C 
ATOM      5  O   UNL     1      -0.436   2.832  -2.561  0.00  0.00    -0.292 OA
ATOM      6  C   UNL     1      -0.018   2.701  -0.249  0.00  0.00    +0.086 C 
ATOM      7  C   UNL     1      -0.848   3.135   0.964  0.00  0.00    -0.023 C 
ATOM      8  C   UNL     1      -2.013   2.152   1.128  0.00  0.00    +0.058 C 
ATOM      9  C   UNL     1       0.027   3.115   2.219  0.00  0.00    +0.011 C 
ATOM     10  C   UNL     1      -1.395   4.545   0.735  0.00  0.00    +0.011 C 
ATOM     11  C   UNL     1      -3.121   2.352  -2.590  0.00  0.00    +0.141 C 
ATOM     12  C   UNL     1      -3.341   3.746  -3.094  0.00  0.00    -0.001 A 
ATOM     13  C   UNL     1      -3.979   4.829  -2.530  0.00  0.00    +0.007 A 
ATOM     14  C   UNL     1      -4.008   6.002  -3.275  0.00  0.00    +0.000 A 
ATOM     15  C   UNL     1      -3.422   6.076  -4.523  0.00  0.00    +0.002 A 
ATOM     16  C   UNL     1      -2.778   4.990  -5.096  0.00  0.00    +0.024 A 
ATOM     17  C   UNL     1      -2.743   3.806  -4.358  0.00  0.00    +0.042 A 
ATOM     18  N   UNL     1      -2.177   2.586  -4.682  0.00  0.00    -0.258 N 
ATOM     19  C   UNL     1      -2.350   1.673  -3.704  0.00  0.00    +0.241 C 
ATOM     20  O   UNL     1      -1.962   0.523  -3.715  0.00  0.00    -0.273 OA
ATOM     21  C   UNL     1      -4.428   1.652  -2.371  0.00  0.00    +0.089 C 
ATOM     22  C   UNL     1      -4.905   1.442  -1.116  0.00  0.00    +0.108 C 
ENDROOT
BRANCH   1  27
ATOM     23  C   UNL     1      -6.786   2.535   4.975  0.00  0.00    +0.044 C 
ATOM     24  C   UNL     1      -6.095   2.358   3.647  0.00  0.00    -0.050 A 
ATOM     25  C   UNL     1      -6.019   3.418   2.762  0.00  0.00    +0.005 A 
ATOM     26  C   UNL     1      -5.386   3.259   1.545  0.00  0.00    +0.024 A 
ATOM     27  C   UNL     1      -4.826   2.033   1.210  0.00  0.00    +0.040 A 
ATOM     28  C   UNL     1      -4.910   0.969   2.098  0.00  0.00    +0.024 A 
ATOM     29  C   UNL     1      -5.539   1.136   3.316  0.00  0.00    +0.005 A 
ENDBRANCH   1  27
BRANCH  22  30
ATOM     30  N   UNL     1      -6.109   0.805  -0.937  0.00  0.00    -0.345 N 
ATOM     31  H   UNL     1      -6.491   0.729  -0.048  0.00  0.00    +0.144 HD
ATOM     32  H   UNL     1      -6.578   0.431  -1.699  0.00  0.00    +0.144 HD
ENDBRANCH  22  30
BRANCH  21  33
ATOM     33  C   UNL     1      -5.184   1.198  -3.499  0.00  0.00    +0.100 C 
ATOM     34  N   UNL     1      -5.784   0.838  -4.394  0.00  0.00    -0.191 NA
ENDBRANCH  21  33
BRANCH  18  35
ATOM     35  C   UNL     1      -1.472   2.317  -5.938  0.00  0.00    +0.202 C 
BRANCH  35  36
ATOM     36  C   UNL     1      -0.042   2.626  -5.774  0.00  0.00    -0.086 C 
ATOM     37  C   UNL     1       1.098   2.873  -5.643  0.00  0.00    +0.005 C 
ENDBRANCH  35  36
ENDBRANCH  18  35
TORSDOF 5
