REMARK  Name = ZINC40296974
REMARK  4 active torsions:
REMARK  status: ('A' for Active; 'I' for Inactive)
REMARK    1  A    between atoms: C_1  and  C_2
REMARK    2  A    between atoms: C_3  and  N_19
REMARK    3  A    between atoms: C_5  and  C_7
REMARK    4  A    between atoms: N_9  and  C_10
REMARK                            x       y       z     vdW  Elec       q    Type
REMARK                         _______ _______ _______ _____ _____    ______ ____
ROOT
ATOM      1  C   UNL     1       1.047  -4.020  -0.033  0.00  0.00    +0.255 C 
ATOM      2  O   UNL     1       0.284  -4.968  -0.031  0.00  0.00    -0.269 OA
ATOM      3  N   UNL     1       2.379  -4.228  -0.034  0.00  0.00    -0.279 N 
ATOM      4  H   UNL     1       2.987  -3.475  -0.101  0.00  0.00    +0.155 HD
ENDROOT
BRANCH   3   5
ATOM      5  C   UNL     1       2.885  -5.530   0.063  0.00  0.00    +0.072 A 
ATOM      6  C   UNL     1       2.206  -6.585  -0.531  0.00  0.00    +0.029 A 
ATOM      7  C   UNL     1       2.705  -7.870  -0.435  0.00  0.00    +0.043 A 
ATOM      8  C   UNL     1       3.883  -8.108   0.252  0.00  0.00    +0.161 A 
ATOM      9  C   UNL     1       4.565  -7.057   0.847  0.00  0.00    +0.195 A 
ATOM     10  C   UNL     1       4.071  -5.767   0.748  0.00  0.00    +0.182 A 
ATOM     11  F   UNL     1       4.737  -4.742   1.322  0.00  0.00    -0.200 F 
ATOM     12  F   UNL     1       5.714  -7.291   1.518  0.00  0.00    -0.199 F 
ATOM     13  F   UNL     1       4.369  -9.365   0.344  0.00  0.00    -0.202 F 
ENDBRANCH   3   5
BRANCH   1  18
ATOM     14  C   UNL     1      -0.021   1.502  -0.040  0.00  0.00    +0.053 C 
ATOM     15  C   UNL     1       0.000  -0.005  -0.037  0.00  0.00    +0.008 A 
ATOM     16  C   UNL     1      -1.051  -0.876  -0.036  0.00  0.00    +0.035 A 
ATOM     17  C   UNL     1      -0.801  -2.228  -0.034  0.00  0.00    +0.043 A 
ATOM     18  C   UNL     1       0.518  -2.654  -0.035  0.00  0.00    +0.076 A 
ATOM     19  S   UNL     1       1.406  -1.105  -0.044  0.00  0.00    -0.087 S 
BRANCH  16  20
ATOM     20  N   UNL     1      -2.374  -0.396  -0.035  0.00  0.00    -0.357 N 
ATOM     21  H   UNL     1      -2.544   0.559  -0.035  0.00  0.00    +0.142 HD
ATOM     22  H   UNL     1      -3.117  -1.021  -0.034  0.00  0.00    +0.142 HD
ENDBRANCH  16  20
ENDBRANCH   1  18
TORSDOF 3
