REMARK  Name = ZINC12765131
REMARK  5 active torsions:
REMARK  status: ('A' for Active; 'I' for Inactive)
REMARK    1  A    between atoms: C_1  and  C_2
REMARK    2  A    between atoms: N_5  and  C_11
REMARK    3  A    between atoms: C_7  and  C_10
REMARK    4  A    between atoms: C_11  and  C_12
REMARK    5  A    between atoms: C_18  and  C_20
REMARK                            x       y       z     vdW  Elec       q    Type
REMARK                         _______ _______ _______ _____ _____    ______ ____
ROOT
ATOM      1  C   UNL     1      -2.696  -4.052  -0.132  0.00  0.00    +0.064 A 
ATOM      2  C   UNL     1      -2.750  -4.892   0.931  0.00  0.00    +0.073 A 
ATOM      3  S   UNL     1      -2.623  -6.473   0.112  0.00  0.00    -0.060 S 
ATOM      4  C   UNL     1      -2.516  -5.909  -1.470  0.00  0.00    +0.165 A 
ATOM      5  N   UNL     1      -2.583  -4.602  -1.327  0.00  0.00    -0.228 NA
ATOM      6  N   UNL     1      -2.392  -6.643  -2.642  0.00  0.00    -0.260 N 
ATOM      7  C   UNL     1      -2.344  -7.989  -2.591  0.00  0.00    +0.256 C 
ATOM      8  O   UNL     1      -2.410  -8.561  -1.519  0.00  0.00    -0.269 OA
ATOM      9  H   UNL     1      -2.340  -6.188  -3.496  0.00  0.00    +0.157 HD
ENDROOT
BRANCH   7  10
ATOM     10  C   UNL     1      -2.213  -8.763  -3.826  0.00  0.00    +0.075 A 
ATOM     11  C   UNL     1      -2.152 -10.141  -3.990  0.00  0.00    +0.028 A 
ATOM     12  C   UNL     1      -2.030 -10.668  -5.248  0.00  0.00    +0.005 A 
ATOM     13  C   UNL     1      -1.976  -9.746  -6.304  0.00  0.00    +0.030 A 
ATOM     14  S   UNL     1      -2.099  -8.177  -5.513  0.00  0.00    -0.083 S 
ATOM     15  C   UNL     1      -1.857 -10.159  -7.696  0.00  0.00    +0.031 A 
ATOM     16  C   UNL     1      -1.538  -9.301  -8.738  0.00  0.00    +0.012 A 
ATOM     17  C   UNL     1      -1.433  -9.796 -10.023  0.00  0.00    +0.001 A 
ATOM     18  C   UNL     1      -1.643 -11.143 -10.269  0.00  0.00    +0.004 A 
ATOM     19  C   UNL     1      -1.968 -12.006  -9.239  0.00  0.00    +0.046 A 
ATOM     20  C   UNL     1      -2.086 -11.531  -7.946  0.00  0.00    +0.129 A 
ATOM     21  O   UNL     1      -2.445 -12.345  -6.926  0.00  0.00    -0.487 OA
ATOM     22  C   UNL     1      -1.943 -12.148  -5.606  0.00  0.00    +0.265 C 
ENDBRANCH   7  10
BRANCH   1  23
ATOM     23  C   UNL     1      -2.768  -2.557   0.042  0.00  0.00    +0.140 C 
BRANCH  23  27
ATOM     24  C   UNL     1      -0.019   1.526   0.010  0.00  0.00    +0.039 C 
ATOM     25  C   UNL     1       0.002  -0.004   0.002  0.00  0.00    +0.130 C 
ATOM     26  C   UNL     1      -1.434  -0.535   0.015  0.00  0.00    +0.116 C 
ATOM     27  N   UNL     1      -1.407  -2.003   0.085  0.00  0.00    -0.292 NA
ATOM     28  C   UNL     1      -0.692  -2.455   1.287  0.00  0.00    +0.116 C 
ATOM     29  C   UNL     1       0.736  -1.905   1.261  0.00  0.00    +0.130 C 
ATOM     30  O   UNL     1       0.692  -0.479   1.161  0.00  0.00    -0.371 OA
ATOM     31  C   UNL     1       1.461  -2.305   2.548  0.00  0.00    +0.039 C 
ENDBRANCH  23  27
ENDBRANCH   1  23
TORSDOF 3
