REMARK  Name = ZINC39726014
REMARK  12 active torsions:
REMARK  status: ('A' for Active; 'I' for Inactive)
REMARK    1  A    between atoms: C_1  and  C_2
REMARK    2  A    between atoms: C_2  and  C_3
REMARK    3  A    between atoms: C_3  and  C_4
REMARK    4  A    between atoms: C_4  and  C_5
REMARK    5  A    between atoms: C_8  and  N_11
REMARK    6  A    between atoms: C_12  and  C_14
REMARK    7  A    between atoms: C_14  and  S_15
REMARK    8  A    between atoms: S_15  and  C_16
REMARK    9  A    between atoms: N_30  and  C_31
REMARK   10  A    between atoms: C_33  and  C_39
REMARK   11  A    between atoms: C_36  and  O_37
REMARK   12  A    between atoms: O_37  and  C_38
REMARK                            x       y       z     vdW  Elec       q    Type
REMARK                         _______ _______ _______ _____ _____    ______ ____
ROOT
ATOM      1  C   UNL     1     -11.216  -5.176  -2.600  0.00  0.00    +0.259 C 
ATOM      2  N   UNL     1     -11.911  -4.085  -1.911  0.00  0.00    -0.248 NA
ATOM      3  C   UNL     1     -12.529  -4.299  -0.799  0.00  0.00    +0.101 C 
ATOM      4  C   UNL     1     -13.310  -3.461   0.140  0.00  0.00    +0.028 A 
ATOM      5  C   UNL     1     -13.671  -2.127   0.173  0.00  0.00    +0.012 A 
ATOM      6  C   UNL     1     -14.432  -1.643   1.226  0.00  0.00    +0.001 A 
ATOM      7  C   UNL     1     -14.830  -2.491   2.244  0.00  0.00    +0.002 A 
ATOM      8  C   UNL     1     -14.479  -3.827   2.227  0.00  0.00    +0.028 A 
ATOM      9  C   UNL     1     -13.711  -4.336   1.173  0.00  0.00    +0.074 A 
ATOM     10  N   UNL     1     -13.240  -5.582   0.920  0.00  0.00    -0.240 NA
ATOM     11  C   UNL     1     -12.553  -5.655  -0.186  0.00  0.00    +0.152 C 
ATOM     12  C   UNL     1     -11.856  -6.765  -0.868  0.00  0.00    +0.274 C 
ATOM     13  O   UNL     1     -11.862  -7.882  -0.387  0.00  0.00    -0.268 OA
ATOM     14  N   UNL     1     -11.215  -6.526  -2.030  0.00  0.00    -0.231 N 
ENDROOT
BRANCH  14  15
ATOM     15  C   UNL     1     -10.550  -7.565  -2.691  0.00  0.00    +0.081 A 
ATOM     16  C   UNL     1      -9.217  -7.829  -2.408  0.00  0.00    +0.030 A 
ATOM     17  C   UNL     1      -8.563  -8.856  -3.062  0.00  0.00    -0.048 A 
ATOM     18  C   UNL     1      -9.233  -9.623  -3.997  0.00  0.00    +0.007 A 
ATOM     19  C   UNL     1     -10.561  -9.366  -4.284  0.00  0.00    +0.048 A 
ATOM     20  C   UNL     1     -11.226  -8.342  -3.629  0.00  0.00    +0.141 A 
ATOM     21  C   UNL     1      -7.115  -9.141  -2.754  0.00  0.00    +0.044 C 
BRANCH  20  22
ATOM     22  O   UNL     1     -12.534  -8.092  -3.906  0.00  0.00    -0.493 OA
ATOM     23  C   UNL     1     -13.162  -8.929  -4.879  0.00  0.00    +0.277 C 
ENDBRANCH  20  22
ENDBRANCH  14  15
BRANCH   1  24
ATOM     24  S   UNL     1      -9.484  -4.672  -2.795  0.00  0.00    -0.106 S 
BRANCH  24  25
ATOM     25  C   UNL     1      -8.861  -4.578  -1.094  0.00  0.00    +0.168 C 
BRANCH  25  27
ATOM     26  N   UNL     1      -6.735  -4.027   0.045  0.00  0.00    -0.285 N 
ATOM     27  C   UNL     1      -7.412  -4.163  -1.113  0.00  0.00    +0.227 C 
ATOM     28  O   UNL     1      -6.855  -3.953  -2.169  0.00  0.00    -0.275 OA
ATOM     29  H   UNL     1      -7.156  -4.269   0.884  0.00  0.00    +0.155 HD
BRANCH  26  33
ATOM     30  C   UNL     1      -2.833  -2.567   0.018  0.00  0.00    -0.047 A 
ATOM     31  C   UNL     1      -3.747  -2.110  -0.914  0.00  0.00    +0.005 A 
ATOM     32  C   UNL     1      -5.042  -2.592  -0.908  0.00  0.00    +0.023 A 
ATOM     33  C   UNL     1      -5.424  -3.537   0.035  0.00  0.00    +0.033 A 
ATOM     34  C   UNL     1      -4.504  -3.994   0.969  0.00  0.00    +0.023 A 
ATOM     35  C   UNL     1      -3.210  -3.511   0.955  0.00  0.00    +0.005 A 
BRANCH  30  36
ATOM     36  C   UNL     1      -1.422  -2.038   0.008  0.00  0.00    +0.035 C 
BRANCH  36  37
ATOM     37  C   UNL     1      -0.556  -2.913  -0.901  0.00  0.00    +0.004 C 
BRANCH  37  39
ATOM     38  C   UNL     1       1.742  -3.251  -1.821  0.00  0.00    +0.004 C 
ATOM     39  C   UNL     1       0.877  -2.377  -0.911  0.00  0.00    -0.003 C 
ENDBRANCH  37  39
ENDBRANCH  36  37
ENDBRANCH  30  36
ENDBRANCH  26  33
ENDBRANCH  25  27
ENDBRANCH  24  25
ENDBRANCH   1  24
TORSDOF 9
