REMARK  Name = ZINC36027324
REMARK  9 active torsions:
REMARK  status: ('A' for Active; 'I' for Inactive)
REMARK    1  A    between atoms: C_1  and  O_2
REMARK    2  A    between atoms: O_2  and  C_3
REMARK    3  A    between atoms: C_3  and  C_4
REMARK    4  A    between atoms: C_4  and  C_5
REMARK    5  A    between atoms: C_5  and  N_6
REMARK    6  A    between atoms: C_9  and  C_29
REMARK    7  A    between atoms: N_15  and  S_18
REMARK    8  A    between atoms: S_18  and  C_21
REMARK    9  A    between atoms: C_29  and  C_30
REMARK                            x       y       z     vdW  Elec       q    Type
REMARK                         _______ _______ _______ _____ _____    ______ ____
ROOT
ATOM      1  N   UNL     1       1.545  -4.089  -2.010  0.00  0.00    -0.314 N 
ATOM      2  C   UNL     1       2.428  -4.858  -1.338  0.00  0.00    +0.201 C 
ATOM      3  O   UNL     1       3.375  -4.455  -0.698  0.00  0.00    -0.277 OA
ATOM      4  C   UNL     1       2.035  -6.309  -1.519  0.00  0.00    +0.023 C 
ATOM      5  N   UNL     1       0.634  -6.264  -2.003  0.00  0.00    +0.401 N 
ATOM      6  C   UNL     1       0.546  -4.944  -2.657  0.00  0.00    +0.006 C 
ATOM      7  C   UNL     1       0.858  -5.088  -4.146  0.00  0.00    +0.023 C 
ATOM      8  C   UNL     1       0.802  -3.710  -4.813  0.00  0.00    +0.109 C 
ATOM      9  N   UNL     1      -0.499  -3.095  -4.518  0.00  0.00    -0.177 NA
ATOM     10  C   UNL     1      -0.924  -2.978  -3.116  0.00  0.00    +0.109 C 
ATOM     11  C   UNL     1      -0.853  -4.362  -2.462  0.00  0.00    +0.023 C 
ATOM     12  H   UNL     1       0.463  -7.005  -2.666  0.00  0.00    -0.082 HD
ATOM     13  H   UNL     1      -0.012  -6.319  -1.230  0.00  0.00    -0.082 HD
ENDROOT
BRANCH   9  14
ATOM     14  S   UNL     1      -1.469  -2.543  -5.742  0.00  0.00    +0.061 S 
ATOM     15  O   UNL     1      -2.316  -1.553  -5.174  0.00  0.00    -0.153 OA
ATOM     16  O   UNL     1      -0.616  -2.274  -6.846  0.00  0.00    -0.153 OA
BRANCH  14  17
ATOM     17  C   UNL     1      -2.510  -3.880  -6.224  0.00  0.00    +0.107 A 
ATOM     18  C   UNL     1      -2.099  -4.754  -7.213  0.00  0.00    +0.030 A 
ATOM     19  C   UNL     1      -2.914  -5.803  -7.593  0.00  0.00    +0.023 A 
ATOM     20  C   UNL     1      -4.144  -5.979  -6.983  0.00  0.00    +0.059 A 
ATOM     21  C   UNL     1      -4.556  -5.104  -5.992  0.00  0.00    +0.061 A 
ATOM     22  C   UNL     1      -3.735  -4.058  -5.610  0.00  0.00    +0.050 A 
ATOM     23 CL   UNL     1      -6.098  -5.323  -5.226  0.00  0.00    -0.082 Cl
ATOM     24 CL   UNL     1      -5.169  -7.296  -7.460  0.00  0.00    -0.082 Cl
ENDBRANCH  14  17
ENDBRANCH   9  14
BRANCH   1  25
ATOM     25  C   UNL     1       1.578  -2.626  -2.077  0.00  0.00    +0.108 C 
BRANCH  25  26
ATOM     26  C   UNL     1       0.801  -2.045  -0.894  0.00  0.00    +0.047 C 
BRANCH  26  27
ATOM     27  C   UNL     1       0.716  -0.524  -1.038  0.00  0.00    +0.161 C 
BRANCH  27  29
ATOM     28  C   UNL     1      -0.147   1.442   0.029  0.00  0.00    +0.193 C 
ATOM     29  O   UNL     1      -0.010   0.020   0.067  0.00  0.00    -0.383 OA
ENDBRANCH  27  29
ENDBRANCH  26  27
ENDBRANCH  25  26
ENDBRANCH   1  25
BRANCH   4  30
ATOM     30  C   UNL     1       2.939  -6.980  -2.555  0.00  0.00    +0.028 C 
BRANCH  30  31
ATOM     31  C   UNL     1       2.622  -8.452  -2.619  0.00  0.00    -0.048 A 
ATOM     32  C   UNL     1       3.290  -9.339  -1.795  0.00  0.00    +0.003 A 
ATOM     33  C   UNL     1       3.000 -10.689  -1.854  0.00  0.00    +0.000 A 
ATOM     34  C   UNL     1       2.042 -11.152  -2.736  0.00  0.00    +0.000 A 
ATOM     35  C   UNL     1       1.374 -10.265  -3.560  0.00  0.00    +0.000 A 
ATOM     36  C   UNL     1       1.661  -8.915  -3.498  0.00  0.00    +0.003 A 
ENDBRANCH  30  31
ENDBRANCH   4  30
TORSDOF 8
