REMARK  Name = ZINC27343896
REMARK  9 active torsions:
REMARK  status: ('A' for Active; 'I' for Inactive)
REMARK    1  A    between atoms: C_1  and  C_2
REMARK    2  A    between atoms: C_5  and  C_8
REMARK    3  A    between atoms: C_8  and  C_34
REMARK    4  A    between atoms: N_11  and  C_15
REMARK    5  A    between atoms: C_15  and  C_16
REMARK    6  A    between atoms: N_18  and  C_19
REMARK    7  A    between atoms: C_19  and  C_20
REMARK    8  A    between atoms: C_20  and  C_22
REMARK    9  A    between atoms: C_20  and  N_29
REMARK                            x       y       z     vdW  Elec       q    Type
REMARK                         _______ _______ _______ _____ _____    ______ ____
ROOT
ATOM      1  C   UNL     1       3.984   5.855  -2.794  0.00  0.00    +0.231 C 
ATOM      2  O   UNL     1       3.217   5.705  -3.722  0.00  0.00    -0.274 OA
ATOM      3  N   UNL     1       3.743   5.246  -1.616  0.00  0.00    -0.315 N 
ATOM      4  H   UNL     1       4.439   5.382  -0.774  0.00  0.00    +0.149 HD
ENDROOT
BRANCH   1   5
ATOM      5  C   UNL     1       5.205   6.722  -2.958  0.00  0.00    +0.213 C 
BRANCH   5   9
ATOM      6  C   UNL     1       4.959   8.582  -6.164  0.00  0.00    +0.135 C 
ATOM      7  C   UNL     1       4.673   8.432  -4.683  0.00  0.00    +0.251 C 
ATOM      8  O   UNL     1       4.061   9.202  -3.973  0.00  0.00    -0.272 OA
ATOM      9  N   UNL     1       5.239   7.265  -4.319  0.00  0.00    -0.215 N 
ATOM     10  C   UNL     1       5.842   6.665  -5.352  0.00  0.00    +0.310 C 
ATOM     11  O   UNL     1       6.426   5.603  -5.270  0.00  0.00    -0.252 OA
ATOM     12  N   UNL     1       5.726   7.368  -6.493  0.00  0.00    -0.281 N 
ATOM     13  C   UNL     1       3.655   8.629  -6.962  0.00  0.00    +0.047 C 
ATOM     14  H   UNL     1       6.074   7.200  -7.523  0.00  0.00    +0.152 HD
BRANCH   6  19
ATOM     15  C   UNL     1       8.123  13.316  -7.153  0.00  0.00    +0.044 C 
ATOM     16  C   UNL     1       7.298  12.081  -6.895  0.00  0.00    -0.050 A 
ATOM     17  C   UNL     1       7.416  10.984  -7.728  0.00  0.00    +0.004 A 
ATOM     18  C   UNL     1       6.659   9.852  -7.491  0.00  0.00    +0.006 A 
ATOM     19  C   UNL     1       5.784   9.817  -6.422  0.00  0.00    -0.015 A 
ATOM     20  C   UNL     1       5.662  10.916  -5.592  0.00  0.00    +0.006 A 
ATOM     21  C   UNL     1       6.422  12.046  -5.826  0.00  0.00    +0.004 A 
ENDBRANCH   6  19
ENDBRANCH   5   9
ENDBRANCH   1   5
BRANCH   3  22
ATOM     22  C   UNL     1       2.556   4.403  -1.456  0.00  0.00    +0.093 C 
BRANCH  22  23
ATOM     23  C   UNL     1       2.587   3.734  -0.080  0.00  0.00    -0.019 C 
BRANCH  23  24
ATOM     24  C   UNL     1       3.758   2.788  -0.008  0.00  0.00    -0.041 A 
ATOM     25  C   UNL     1       4.922   3.176   0.629  0.00  0.00    +0.003 A 
ATOM     26  C   UNL     1       5.996   2.308   0.696  0.00  0.00    +0.000 A 
ATOM     27  C   UNL     1       5.908   1.054   0.121  0.00  0.00    +0.001 A 
ATOM     28  C   UNL     1       4.743   0.663  -0.511  0.00  0.00    +0.020 A 
ATOM     29  C   UNL     1       3.668   1.531  -0.578  0.00  0.00    +0.043 A 
ATOM     30 CL   UNL     1       2.207   1.043  -1.379  0.00  0.00    -0.083 Cl
ENDBRANCH  23  24
BRANCH  23  31
ATOM     31  N   UNL     1       2.723   4.761   0.961  0.00  0.00    +0.385 N 
ATOM     32  C   UNL     1       1.655   5.787   0.839  0.00  0.00    -0.078 C 
ATOM     33  C   UNL     1       1.624   6.436   2.245  0.00  0.00    -0.020 C 
ATOM     34  C   UNL     1       1.873   5.234   3.186  0.00  0.00    -0.020 C 
ATOM     35  C   UNL     1       2.565   4.174   2.309  0.00  0.00    -0.078 C 
ATOM     36  H   UNL     1       3.724   5.195   0.825  0.00  0.00    -0.081 HD
ENDBRANCH  23  31
ENDBRANCH  22  23
ENDBRANCH   3  22
TORSDOF 7
