REMARK  Name = ZINC08855393
REMARK  4 active torsions:
REMARK  status: ('A' for Active; 'I' for Inactive)
REMARK    1  A    between atoms: C_6  and  C_7
REMARK    2  A    between atoms: C_9  and  C_13
REMARK    3  A    between atoms: N_16  and  C_19
REMARK    4  A    between atoms: C_22  and  C_24
REMARK                            x       y       z     vdW  Elec       q    Type
REMARK                         _______ _______ _______ _____ _____    ______ ____
ROOT
ATOM      1  C   UNL     1       6.174   0.833  -0.021  0.00  0.00    +0.040 C 
ATOM      2  C   UNL     1       6.684   0.812  -1.465  0.00  0.00    +0.028 C 
ATOM      3  C   UNL     1       8.210   0.927  -1.463  0.00  0.00    +0.107 C 
ATOM      4  N   UNL     1       8.787  -0.190  -0.704  0.00  0.00    -0.315 N 
ATOM      5  C   UNL     1       8.348  -0.162   0.697  0.00  0.00    +0.107 C 
ATOM      6  C   UNL     1       6.826  -0.311   0.760  0.00  0.00    +0.028 C 
ENDROOT
BRANCH   4   7
ATOM      7  C   UNL     1      10.174  -0.189  -0.792  0.00  0.00    +0.117 A 
ATOM      8  C   UNL     1      10.803  -0.934  -1.786  0.00  0.00    +0.079 A 
ATOM      9  C   UNL     1      12.185  -0.919  -1.865  0.00  0.00    +0.037 A 
ATOM     10  C   UNL     1      12.893  -0.165  -0.938  0.00  0.00    +0.072 A 
ATOM     11  C   UNL     1      12.205   0.545   0.024  0.00  0.00    +0.096 A 
ATOM     12 CL   UNL     1       9.868  -1.864  -2.914  0.00  0.00    -0.080 Cl
ATOM     13  N   UNL     1      10.849   0.558   0.129  0.00  0.00    -0.348 N 
ATOM     14  H   UNL     1      10.363   1.097   0.855  0.00  0.00    +0.167 HD
BRANCH  10  15
ATOM     15  C   UNL     1      14.399  -0.124  -0.983  0.00  0.00    +0.419 C 
ATOM     16  F   UNL     1      14.874   0.697   0.046  0.00  0.00    -0.166 F 
ATOM     17  F   UNL     1      14.906  -1.417  -0.819  0.00  0.00    -0.166 F 
ATOM     18  F   UNL     1      14.815   0.388  -2.217  0.00  0.00    -0.166 F 
ENDBRANCH  10  15
ENDBRANCH   4   7
BRANCH   1  21
ATOM     19  C   UNL     1       2.483   1.060   0.020  0.00  0.00    +0.093 A 
ATOM     20  C   UNL     1       3.762   1.651   0.028  0.00  0.00    +0.053 A 
ATOM     21  C   UNL     1       4.677   0.658  -0.014  0.00  0.00    +0.040 A 
ATOM     22  N   UNL     1       4.015  -0.518  -0.047  0.00  0.00    -0.281 N 
ATOM     23  H   UNL     1       4.432  -1.426  -0.085  0.00  0.00    +0.189 HD
ATOM     24  N   UNL     1       2.641  -0.246  -0.019  0.00  0.00    -0.174 NA
BRANCH  19  30
ATOM     25  C   UNL     1      -0.010   1.071   0.044  0.00  0.00    +0.011 A 
ATOM     26  C   UNL     1      -1.213   1.747   0.073  0.00  0.00    +0.020 A 
ATOM     27  C   UNL     1      -1.230   3.131   0.125  0.00  0.00    +0.041 A 
ATOM     28  C   UNL     1      -0.043   3.842   0.138  0.00  0.00    +0.020 A 
ATOM     29  C   UNL     1       1.165   3.175   0.104  0.00  0.00    +0.011 A 
ATOM     30  C   UNL     1       1.187   1.783   0.057  0.00  0.00    +0.002 A 
ATOM     31 CL   UNL     1      -2.746   3.976   0.168  0.00  0.00    -0.084 Cl
ENDBRANCH  19  30
ENDBRANCH   1  21
TORSDOF 4
