REMARK  Name = ZINC13996992
REMARK  5 active torsions:
REMARK  status: ('A' for Active; 'I' for Inactive)
REMARK    1  A    between atoms: C_1  and  C_2
REMARK    2  A    between atoms: C_3  and  N_9
REMARK    3  A    between atoms: C_15  and  C_21
REMARK    4  A    between atoms: C_18  and  C_20
REMARK    5  A    between atoms: C_21  and  C_23
REMARK                            x       y       z     vdW  Elec       q    Type
REMARK                         _______ _______ _______ _____ _____    ______ ____
ROOT
ATOM      1  N   UNL     1      -0.331  -0.076  -2.660  0.00  0.00    -0.206 N 
ATOM      2  C   UNL     1       0.581  -0.333  -3.638  0.00  0.00    +0.140 C 
ATOM      3  N   UNL     1       1.597  -1.190  -3.683  0.00  0.00    -0.164 NA
ATOM      4  C   UNL     1       2.461  -1.123  -4.687  0.00  0.00    +0.239 C 
ATOM      5  O   UNL     1       3.312  -1.987  -4.773  0.00  0.00    -0.274 OA
ATOM      6  C   UNL     1       2.444  -0.038  -5.723  0.00  0.00    +0.114 C 
ATOM      7  C   UNL     1       1.016   0.412  -6.047  0.00  0.00    +0.104 C 
ATOM      8  C   UNL     1       0.246   0.483  -4.751  0.00  0.00    +0.021 C 
ATOM      9  C   UNL     1      -0.811   1.237  -4.420  0.00  0.00    +0.026 C 
ATOM     10  N   UNL     1      -1.193   0.922  -3.146  0.00  0.00    -0.262 N 
ATOM     11  C   UNL     1      -1.474   2.258  -5.308  0.00  0.00    +0.062 C 
ATOM     12  H   UNL     1      -1.931   1.321  -2.659  0.00  0.00    +0.170 HD
ENDROOT
BRANCH   1  15
ATOM     13  C   UNL     1      -0.312   1.575  -0.343  0.00  0.00    +0.047 C 
ATOM     14  C   UNL     1      -0.395   0.073  -0.252  0.00  0.00    -0.009 A 
ATOM     15  C   UNL     1      -0.401  -0.695  -1.409  0.00  0.00    +0.059 A 
ATOM     16  C   UNL     1      -0.477  -2.079  -1.320  0.00  0.00    +0.025 A 
ATOM     17  C   UNL     1      -0.547  -2.688  -0.082  0.00  0.00    +0.003 A 
ATOM     18  C   UNL     1      -0.540  -1.922   1.068  0.00  0.00    +0.020 A 
ATOM     19  C   UNL     1      -0.459  -0.543   0.984  0.00  0.00    +0.046 A 
ATOM     20 CL   UNL     1      -0.443   0.415   2.432  0.00  0.00    -0.083 Cl
ENDBRANCH   1  15
BRANCH   7  21
ATOM     21  C   UNL     1       1.045   1.770  -6.699  0.00  0.00    +0.178 C 
ATOM     22  O   UNL     1       1.581   2.703  -6.137  0.00  0.00    -0.291 OA
BRANCH  21  23
ATOM     23  C   UNL     1       0.448   1.958  -7.965  0.00  0.00    +0.055 A 
ATOM     24  C   UNL     1       0.369   3.115  -8.736  0.00  0.00    +0.019 A 
ATOM     25  C   UNL     1      -0.281   2.986  -9.937  0.00  0.00    +0.008 A 
ATOM     26  C   UNL     1      -0.790   1.777 -10.286  0.00  0.00    +0.046 A 
ATOM     27  S   UNL     1      -0.395   0.774  -8.998  0.00  0.00    -0.094 S 
ENDBRANCH  21  23
ENDBRANCH   7  21
TORSDOF 3
