REMARK  Name = ZINC02659688
REMARK  4 active torsions:
REMARK  status: ('A' for Active; 'I' for Inactive)
REMARK    1  A    between atoms: C_4  and  C_7
REMARK    2  A    between atoms: C_10  and  C_13
REMARK    3  A    between atoms: C_13  and  P_15
REMARK    4  A    between atoms: C_13  and  N_28
REMARK                            x       y       z     vdW  Elec       q    Type
REMARK                         _______ _______ _______ _____ _____    ______ ____
ROOT
ATOM      1  C   UNL     1       1.220  -0.682  -0.013  0.00  0.00    -0.018 A 
ATOM      2  C   UNL     1       0.002  -0.004   0.002  0.00  0.00    +0.009 A 
ATOM      3  C   UNL     1      -0.017   1.376   0.010  0.00  0.00    +0.003 A 
ATOM      4  C   UNL     1       1.170   2.086   0.002  0.00  0.00    -0.050 A 
ATOM      5  C   UNL     1       2.382   1.419  -0.013  0.00  0.00    +0.003 A 
ATOM      6  C   UNL     1       2.412   0.039  -0.021  0.00  0.00    +0.009 A 
ENDROOT
BRANCH   1  10
ATOM      7  C   UNL     1       1.295  -4.933  -0.034  0.00  0.00    +0.000 A 
ATOM      8  C   UNL     1       2.482  -4.223  -0.043  0.00  0.00    +0.001 A 
ATOM      9  C   UNL     1       2.463  -2.843  -0.036  0.00  0.00    +0.008 A 
ATOM     10  C   UNL     1       1.246  -2.165  -0.021  0.00  0.00    -0.018 A 
ATOM     11  C   UNL     1       0.053  -2.886  -0.007  0.00  0.00    +0.008 A 
ATOM     12  C   UNL     1       0.084  -4.266  -0.018  0.00  0.00    +0.001 A 
ENDBRANCH   1  10
BRANCH   4  13
ATOM     13  C   UNL     1       1.143   3.593   0.010  0.00  0.00    +0.077 C 
BRANCH  13  14
ATOM     14  P   UNL     1       1.266   4.212  -1.700  0.00  0.00    +0.377 P 
ATOM     15  O   UNL     1       2.473   3.647  -2.344  0.00  0.00    -0.255 OA
ATOM     16  O   UNL     1      -0.042   3.767  -2.527  0.00  0.00    -0.140 OA
ATOM     17  O   UNL     1       1.370   5.819  -1.683  0.00  0.00    -0.140 OA
ENDBRANCH  13  14
BRANCH  13  20
ATOM     18  H   UNL     1       3.154   3.793   0.404  0.00  0.00    -0.088 HD
ATOM     19  H   UNL     1       2.244   5.105   0.871  0.00  0.00    -0.088 HD
ATOM     20  N   UNL     1       2.272   4.088   0.819  0.00  0.00    +0.390 N 
ATOM     21  H   UNL     1       2.202   3.701   1.767  0.00  0.00    -0.088 HD
ENDBRANCH  13  20
ENDBRANCH   4  13
TORSDOF 4
