REMARK  Name = ZINC14000808
REMARK  4 active torsions:
REMARK  status: ('A' for Active; 'I' for Inactive)
REMARK    1  A    between atoms: C_1  and  C_2
REMARK    2  A    between atoms: C_2  and  C_3
REMARK    3  A    between atoms: C_8  and  N_9
REMARK    4  A    between atoms: C_14  and  C_20
REMARK                            x       y       z     vdW  Elec       q    Type
REMARK                         _______ _______ _______ _____ _____    ______ ____
ROOT
ATOM      1  N   UNL     1      -1.681  -0.212  -2.443  0.00  0.00    -0.218 N 
ATOM      2  C   UNL     1      -2.362  -0.141  -3.605  0.00  0.00    +0.132 A 
ATOM      3  C   UNL     1      -1.491   0.294  -4.570  0.00  0.00    +0.020 A 
ATOM      4  C   UNL     1      -0.254   0.487  -3.973  0.00  0.00    +0.141 A 
ATOM      5  N   UNL     1      -0.360   0.193  -2.698  0.00  0.00    -0.173 NA
ATOM      6  C   UNL     1      -1.914   0.495  -6.002  0.00  0.00    +0.063 C 
ATOM      7  C   UNL     1      -3.402   0.854  -6.019  0.00  0.00    +0.109 C 
ATOM      8  C   UNL     1      -4.189  -0.018  -5.083  0.00  0.00    +0.219 C 
ATOM      9  O   UNL     1      -5.306  -0.363  -5.405  0.00  0.00    -0.275 OA
ATOM     10  N   UNL     1      -3.694  -0.431  -3.896  0.00  0.00    -0.270 N 
ATOM     11  H   UNL     1      -4.250  -0.915  -3.265  0.00  0.00    +0.156 HD
ENDROOT
BRANCH   1  17
ATOM     12  C   UNL     1      -1.978   0.167  -0.075  0.00  0.00    -0.022 A 
ATOM     13  C   UNL     1      -2.495  -0.227   1.145  0.00  0.00    +0.006 A 
ATOM     14  C   UNL     1      -3.227  -1.395   1.243  0.00  0.00    +0.000 A 
ATOM     15  C   UNL     1      -3.444  -2.174   0.121  0.00  0.00    +0.002 A 
ATOM     16  C   UNL     1      -2.930  -1.787  -1.101  0.00  0.00    +0.028 A 
ATOM     17  C   UNL     1      -2.199  -0.610  -1.204  0.00  0.00    +0.071 A 
BRANCH  12  19
ATOM     18  C   UNL     1      -2.073   2.557  -0.726  0.00  0.00    +0.009 C 
ATOM     19  C   UNL     1      -1.180   1.441  -0.180  0.00  0.00    +0.034 C 
ENDBRANCH  12  19
ENDBRANCH   1  17
BRANCH   6  20
ATOM     20  C   UNL     1      -1.687  -0.774  -6.782  0.00  0.00    -0.039 A 
ATOM     21  C   UNL     1      -2.335  -1.938  -6.412  0.00  0.00    +0.004 A 
ATOM     22  C   UNL     1      -2.128  -3.102  -7.127  0.00  0.00    +0.000 A 
ATOM     23  C   UNL     1      -1.273  -3.103  -8.213  0.00  0.00    +0.000 A 
ATOM     24  C   UNL     1      -0.625  -1.939  -8.584  0.00  0.00    +0.000 A 
ATOM     25  C   UNL     1      -0.836  -0.774  -7.871  0.00  0.00    +0.004 A 
ENDBRANCH   6  20
TORSDOF 3
