REMARK  Name = ZINC64802118
REMARK  6 active torsions:
REMARK  status: ('A' for Active; 'I' for Inactive)
REMARK    1  A    between atoms: C_1  and  C_2
REMARK    2  A    between atoms: C_4  and  N_13
REMARK    3  A    between atoms: N_13  and  C_14
REMARK    4  A    between atoms: C_17  and  N_20
REMARK    5  A    between atoms: N_20  and  S_21
REMARK    6  A    between atoms: S_21  and  C_24
REMARK                            x       y       z     vdW  Elec       q    Type
REMARK                         _______ _______ _______ _____ _____    ______ ____
ROOT
ATOM      1  C   UNL     1       0.322  -1.853  -3.495  0.00  0.00    +0.032 A 
ATOM      2  C   UNL     1       0.245  -0.485  -3.721  0.00  0.00    +0.025 A 
ATOM      3  C   UNL     1       0.010  -0.007  -4.995  0.00  0.00    +0.026 A 
ATOM      4  C   UNL     1      -0.151  -0.895  -6.050  0.00  0.00    +0.048 A 
ATOM      5  C   UNL     1      -0.074  -2.264  -5.824  0.00  0.00    +0.026 A 
ATOM      6  C   UNL     1       0.167  -2.741  -4.551  0.00  0.00    +0.025 A 
ENDROOT
BRANCH   1   7
ATOM      7  N   UNL     1       0.561  -2.337  -2.202  0.00  0.00    -0.299 N 
ATOM      8  H   UNL     1       1.074  -3.151  -2.076  0.00  0.00    +0.154 HD
BRANCH   7  12
ATOM      9  C   UNL     1       0.217  -1.741   2.671  0.00  0.00    +0.063 C 
ATOM     10  C   UNL     1      -0.116  -1.343   1.257  0.00  0.00    +0.019 A 
ATOM     11  C   UNL     1       0.401  -2.055   0.191  0.00  0.00    +0.064 A 
ATOM     12  C   UNL     1       0.066  -1.653  -1.103  0.00  0.00    +0.128 A 
ATOM     13  N   UNL     1      -0.735  -0.604  -1.266  0.00  0.00    -0.201 NA
ATOM     14  C   UNL     1      -1.210   0.051  -0.218  0.00  0.00    +0.197 A 
ATOM     15  N   UNL     1      -0.913  -0.311   1.021  0.00  0.00    -0.331 N 
ATOM     16  N   UNL     1      -2.041   1.139  -0.422  0.00  0.00    -0.301 N 
ATOM     17  C   UNL     1      -2.640   1.969   0.633  0.00  0.00    +0.108 C 
ATOM     18  C   UNL     1      -3.506   3.040  -0.063  0.00  0.00    +0.020 C 
ATOM     19  C   UNL     1      -3.798   2.404  -1.448  0.00  0.00    +0.020 C 
ATOM     20  C   UNL     1      -2.467   1.660  -1.734  0.00  0.00    +0.108 C 
ATOM     21  H   UNL     1      -1.280   0.189   1.767  0.00  0.00    +0.168 HD
ENDBRANCH   7  12
ENDBRANCH   1   7
BRANCH   4  22
ATOM     22  N   UNL     1      -0.390  -0.412  -7.341  0.00  0.00    -0.216 N 
ATOM     23  H   UNL     1      -1.035   0.299  -7.481  0.00  0.00    +0.174 HD
BRANCH  22  24
ATOM     24  S   UNL     1       0.427  -1.054  -8.631  0.00  0.00    +0.072 S 
ATOM     25  O   UNL     1       0.249  -2.462  -8.564  0.00  0.00    -0.150 OA
ATOM     26  O   UNL     1       0.052  -0.291  -9.770  0.00  0.00    -0.150 OA
BRANCH  24  27
ATOM     27  C   UNL     1       2.142  -0.750  -8.364  0.00  0.00    +0.112 A 
ATOM     28  C   UNL     1       2.694   0.462  -8.735  0.00  0.00    +0.032 A 
ATOM     29  C   UNL     1       4.039   0.703  -8.529  0.00  0.00    +0.051 A 
ATOM     30  C   UNL     1       4.839  -0.270  -7.948  0.00  0.00    +0.162 A 
ATOM     31  C   UNL     1       4.283  -1.487  -7.572  0.00  0.00    +0.164 A 
ATOM     32  C   UNL     1       2.932  -1.722  -7.779  0.00  0.00    +0.078 A 
ATOM     33  O   UNL     1       5.048  -2.453  -6.993  0.00  0.00    -0.485 OA
ATOM     34  C   UNL     1       6.466  -2.323  -7.137  0.00  0.00    +0.270 C 
ATOM     35  C   UNL     1       6.849  -0.869  -6.829  0.00  0.00    +0.270 C 
ATOM     36  O   UNL     1       6.162  -0.019  -7.754  0.00  0.00    -0.485 OA
ENDBRANCH  24  27
ENDBRANCH  22  24
ENDBRANCH   4  22
TORSDOF 5
