REMARK  Name = ZINC40322790
REMARK  14 active torsions:
REMARK  status: ('A' for Active; 'I' for Inactive)
REMARK    1  A    between atoms: C_1  and  C_2
REMARK    2  A    between atoms: C_2  and  C_3
REMARK    3  A    between atoms: C_3  and  O_4
REMARK    4  A    between atoms: O_4  and  C_5
REMARK    5  A    between atoms: C_8  and  C_11
REMARK    6  A    between atoms: C_11  and  C_13
REMARK    7  A    between atoms: C_11  and  N_32
REMARK    8  A    between atoms: C_13  and  N_14
REMARK    9  A    between atoms: C_15  and  C_17
REMARK   10  A    between atoms: C_20  and  S_22
REMARK   11  A    between atoms: S_22  and  C_25
REMARK   12  A    between atoms: C_28  and  C_31
REMARK   13  A    between atoms: N_32  and  C_33
REMARK   14  A    between atoms: N_32  and  C_34
REMARK                            x       y       z     vdW  Elec       q    Type
REMARK                         _______ _______ _______ _____ _____    ______ ____
ROOT
ATOM      1  N   UNL     1       5.108  -3.135  -5.315  0.00  0.00    -0.310 N 
ATOM      2  C   UNL     1       6.422  -3.031  -5.034  0.00  0.00    +0.279 C 
ATOM      3  O   UNL     1       7.075  -4.031  -4.802  0.00  0.00    -0.267 OA
ATOM      4  H   UNL     1       4.587  -2.338  -5.500  0.00  0.00    +0.149 HD
ENDROOT
BRANCH   2   5
ATOM      5  C   UNL     1       7.064  -1.713  -5.008  0.00  0.00    +0.192 A 
ATOM      6  C   UNL     1       8.382  -1.467  -4.745  0.00  0.00    +0.056 A 
ATOM      7  C   UNL     1       8.557  -0.077  -4.828  0.00  0.00    +0.070 A 
ATOM      8  C   UNL     1       7.355   0.458  -5.133  0.00  0.00    +0.246 A 
ATOM      9  O   UNL     1       6.459  -0.531  -5.247  0.00  0.00    -0.433 OA
BRANCH   8  10
ATOM     10  S   UNL     1       7.021   2.175  -5.353  0.00  0.00    +0.058 S 
ATOM     11  O   UNL     1       5.634   2.354  -5.103  0.00  0.00    -0.161 OA
ATOM     12  O   UNL     1       8.023   2.878  -4.631  0.00  0.00    -0.161 OA
BRANCH  10  13
ATOM     13  C   UNL     1       7.277   2.541  -7.057  0.00  0.00    +0.097 A 
ATOM     14  C   UNL     1       8.527   2.931  -7.500  0.00  0.00    +0.028 A 
ATOM     15  C   UNL     1       8.728   3.219  -8.837  0.00  0.00    +0.005 A 
ATOM     16  C   UNL     1       7.679   3.116  -9.732  0.00  0.00    -0.050 A 
ATOM     17  C   UNL     1       6.429   2.725  -9.289  0.00  0.00    +0.005 A 
ATOM     18  C   UNL     1       6.229   2.433  -7.952  0.00  0.00    +0.028 A 
ATOM     19  C   UNL     1       7.897   3.430 -11.189  0.00  0.00    +0.044 C 
ENDBRANCH  10  13
ENDBRANCH   8  10
ENDBRANCH   2   5
BRANCH   1  20
ATOM     20  C   UNL     1       4.466  -4.451  -5.340  0.00  0.00    +0.094 C 
BRANCH  20  21
ATOM     21  C   UNL     1       3.007  -4.299  -5.774  0.00  0.00    -0.021 C 
BRANCH  21  25
ATOM     22  C   UNL     1       0.881  -2.021  -2.850  0.00  0.00    +0.121 A 
ATOM     23  C   UNL     1       1.327  -1.413  -4.014  0.00  0.00    +0.046 A 
ATOM     24  C   UNL     1       2.014  -2.151  -4.958  0.00  0.00    +0.005 A 
ATOM     25  C   UNL     1       2.257  -3.495  -4.743  0.00  0.00    -0.059 A 
ATOM     26  C   UNL     1       1.813  -4.104  -3.583  0.00  0.00    +0.005 A 
ATOM     27  C   UNL     1       1.131  -3.368  -2.634  0.00  0.00    +0.046 A 
BRANCH  22  28
ATOM     28  O   UNL     1       0.205  -1.296  -1.920  0.00  0.00    -0.492 OA
BRANCH  28  29
ATOM     29  C   UNL     1      -0.016   0.086  -2.209  0.00  0.00    +0.229 C 
BRANCH  29  31
ATOM     30  C   UNL     1      -1.023   2.211  -1.365  0.00  0.00    +0.007 C 
ATOM     31  C   UNL     1      -0.786   0.732  -1.055  0.00  0.00    +0.038 C 
ENDBRANCH  29  31
ENDBRANCH  28  29
ENDBRANCH  22  28
ENDBRANCH  21  25
BRANCH  21  32
ATOM     32  N   UNL     1       2.392  -5.627  -5.901  0.00  0.00    +0.382 N 
ATOM     33  C   UNL     1       0.979  -5.480  -6.274  0.00  0.00    -0.096 C 
ATOM     34  C   UNL     1       3.095  -6.395  -6.938  0.00  0.00    -0.096 C 
ATOM     35  H   UNL     1       2.459  -6.114  -5.020  0.00  0.00    -0.082 HD
ENDBRANCH  21  32
ENDBRANCH  20  21
ENDBRANCH   1  20
TORSDOF 10
