REMARK  Name = ZINC05582052
REMARK  7 active torsions:
REMARK  status: ('A' for Active; 'I' for Inactive)
REMARK    1  A    between atoms: C_1  and  C_2
REMARK    2  A    between atoms: C_2  and  C_4
REMARK    3  A    between atoms: C_2  and  S_18
REMARK    4  A    between atoms: N_6  and  C_7
REMARK    5  A    between atoms: C_9  and  C_14
REMARK    6  A    between atoms: S_18  and  C_19
REMARK    7  A    between atoms: N_23  and  N_24
REMARK                            x       y       z     vdW  Elec       q    Type
REMARK                         _______ _______ _______ _____ _____    ______ ____
ROOT
ATOM      1  C   UNL     1      -2.005  -1.827   0.132  0.00  0.00    +0.230 C 
ATOM      2  O   UNL     1      -1.116  -2.602  -0.154  0.00  0.00    -0.274 OA
ATOM      3  N   UNL     1      -3.192  -2.295   0.565  0.00  0.00    -0.283 N 
ATOM      4  H   UNL     1      -3.875  -1.677   0.870  0.00  0.00    +0.155 HD
ENDROOT
BRANCH   3   5
ATOM      5  C   UNL     1      -3.440  -3.673   0.576  0.00  0.00    +0.052 A 
ATOM      6  C   UNL     1      -2.748  -4.511  -0.289  0.00  0.00    +0.037 A 
ATOM      7  C   UNL     1      -2.995  -5.870  -0.276  0.00  0.00    +0.057 A 
ATOM      8  C   UNL     1      -3.930  -6.396   0.596  0.00  0.00    +0.014 A 
ATOM      9  C   UNL     1      -4.622  -5.566   1.458  0.00  0.00    +0.022 A 
ATOM     10  C   UNL     1      -4.375  -4.205   1.455  0.00  0.00    +0.062 A 
ATOM     11 CL   UNL     1      -5.238  -3.163   2.543  0.00  0.00    -0.082 Cl
BRANCH   7  12
ATOM     12  C   UNL     1      -2.244  -6.780  -1.214  0.00  0.00    +0.417 C 
ATOM     13  F   UNL     1      -1.072  -7.224  -0.593  0.00  0.00    -0.166 F 
ATOM     14  F   UNL     1      -3.046  -7.880  -1.538  0.00  0.00    -0.166 F 
ATOM     15  F   UNL     1      -1.918  -6.080  -2.381  0.00  0.00    -0.166 F 
ENDBRANCH   7  12
ENDBRANCH   3   5
BRANCH   1  17
ATOM     16  C   UNL     1      -2.410   0.156  -1.300  0.00  0.00    +0.029 C 
ATOM     17  C   UNL     1      -1.782  -0.343   0.003  0.00  0.00    +0.137 C 
BRANCH  17  18
ATOM     18  S   UNL     1      -0.004   0.001  -0.015  0.00  0.00    -0.072 S 
BRANCH  18  19
ATOM     19  C   UNL     1      -0.034   1.763  -0.018  0.00  0.00    +0.209 A 
ATOM     20  N   UNL     1      -1.102   2.526  -0.016  0.00  0.00    -0.121 NA
ATOM     21  N   UNL     1      -0.754   3.763  -0.017  0.00  0.00    -0.135 NA
ATOM     22  C   UNL     1       0.545   3.863  -0.029  0.00  0.00    +0.244 A 
ATOM     23  N   UNL     1       1.051   2.592  -0.030  0.00  0.00    -0.231 N 
BRANCH  23  24
ATOM     24  N   UNL     1       2.367   2.229  -0.042  0.00  0.00    -0.295 N 
ATOM     25  H   UNL     1       2.707   2.131  -0.987  0.00  0.00    +0.163 HD
ATOM     26  H   UNL     1       2.929   2.887   0.477  0.00  0.00    +0.163 HD
ENDBRANCH  23  24
ENDBRANCH  18  19
ENDBRANCH  17  18
ENDBRANCH   1  17
TORSDOF 6
