REMARK  Name = ZINC22742842
REMARK  3 active torsions:
REMARK  status: ('A' for Active; 'I' for Inactive)
REMARK    1  A    between atoms: C_8  and  N_13
REMARK    2  A    between atoms: N_17  and  C_18
REMARK    3  A    between atoms: C_22  and  C_24
REMARK                            x       y       z     vdW  Elec       q    Type
REMARK                         _______ _______ _______ _____ _____    ______ ____
ROOT
ATOM      1  N   UNL     1       2.358  -5.476  -0.052  0.00  0.00    -0.182 NA
ATOM      2  C   UNL     1       1.205  -6.136  -0.044  0.00  0.00    +0.195 C 
ATOM      3  N   UNL     1      -0.120  -5.790  -0.035  0.00  0.00    -0.284 N 
ATOM      4  C   UNL     1      -0.409  -7.057  -0.689  0.00  0.00    +0.214 C 
ATOM      5  N   UNL     1       0.832  -7.454  -0.048  0.00  0.00    -0.239 N 
ATOM      6  C   UNL     1      -0.434  -7.064  -2.189  0.00  0.00    +0.025 A 
ATOM      7  C   UNL     1       0.415  -6.577  -3.156  0.00  0.00    +0.010 A 
ATOM      8  C   UNL     1       0.110  -6.744  -4.495  0.00  0.00    +0.001 A 
ATOM      9  C   UNL     1      -1.051  -7.403  -4.859  0.00  0.00    +0.002 A 
ATOM     10  C   UNL     1      -1.905  -7.893  -3.893  0.00  0.00    +0.024 A 
ATOM     11  C   UNL     1      -1.605  -7.730  -2.543  0.00  0.00    +0.041 A 
ATOM     12  N   UNL     1      -2.298  -8.132  -1.398  0.00  0.00    -0.282 N 
ATOM     13  C   UNL     1      -1.660  -7.774  -0.266  0.00  0.00    +0.265 C 
ATOM     14  O   UNL     1      -2.024  -7.989   0.871  0.00  0.00    -0.271 OA
ATOM     15  H   UNL     1      -3.140  -8.612  -1.417  0.00  0.00    +0.155 HD
ATOM     16  H   UNL     1      -0.640  -5.031   0.274  0.00  0.00    +0.152 HD
ENDROOT
BRANCH   1  24
ATOM     17  C   UNL     1      -0.017   1.391   0.010  0.00  0.00    +0.001 A 
ATOM     18  C   UNL     1       1.165   2.096   0.002  0.00  0.00    +0.002 A 
ATOM     19  C   UNL     1       2.387   1.430  -0.013  0.00  0.00    +0.028 A 
ATOM     20  C   UNL     1       2.424   0.040  -0.021  0.00  0.00    +0.076 A 
ATOM     21  N   UNL     1       3.471  -0.842  -0.036  0.00  0.00    -0.227 NA
ATOM     22  C   UNL     1       3.086  -2.089  -0.039  0.00  0.00    +0.161 C 
ATOM     23  N   UNL     1       3.458  -3.388  -0.050  0.00  0.00    -0.307 N 
ATOM     24  C   UNL     1       2.363  -4.138  -0.044  0.00  0.00    +0.233 C 
ATOM     25  N   UNL     1       1.239  -3.356  -0.028  0.00  0.00    -0.208 NA
ATOM     26  C   UNL     1       1.591  -2.107  -0.025  0.00  0.00    +0.119 C 
ATOM     27  C   UNL     1       1.207  -0.675  -0.013  0.00  0.00    +0.029 A 
ATOM     28  C   UNL     1       0.002  -0.004   0.002  0.00  0.00    +0.012 A 
ATOM     29  H   UNL     1       4.371  -3.716  -0.062  0.00  0.00    +0.170 HD
ENDBRANCH   1  24
BRANCH   5  30
ATOM     30  C   UNL     1       1.399  -8.658   0.377  0.00  0.00    +0.040 A 
ATOM     31  C   UNL     1       0.711  -9.852   0.201  0.00  0.00    +0.023 A 
ATOM     32  C   UNL     1       1.274 -11.040   0.623  0.00  0.00    +0.002 A 
ATOM     33  C   UNL     1       2.522 -11.043   1.220  0.00  0.00    +0.012 A 
ATOM     34  C   UNL     1       3.209  -9.856   1.397  0.00  0.00    +0.057 A 
ATOM     35  C   UNL     1       2.655  -8.665   0.972  0.00  0.00    +0.036 A 
BRANCH  34  36
ATOM     36  C   UNL     1       4.568  -9.864   2.048  0.00  0.00    +0.417 C 
ATOM     37  F   UNL     1       4.917 -11.176   2.384  0.00  0.00    -0.166 F 
ATOM     38  F   UNL     1       5.514  -9.342   1.159  0.00  0.00    -0.166 F 
ATOM     39  F   UNL     1       4.534  -9.079   3.206  0.00  0.00    -0.166 F 
ENDBRANCH  34  36
ENDBRANCH   5  30
TORSDOF 3
