REMARK  Name = ZINC08981711
REMARK  11 active torsions:
REMARK  status: ('A' for Active; 'I' for Inactive)
REMARK    1  A    between atoms: C_1  and  C_2
REMARK    2  A    between atoms: N_7  and  S_9
REMARK    3  A    between atoms: S_9  and  C_12
REMARK    4  A    between atoms: C_14  and  C_19
REMARK    5  A    between atoms: C_19  and  O_21
REMARK    6  A    between atoms: O_21  and  C_22
REMARK    7  A    between atoms: C_22  and  C_23
REMARK    8  A    between atoms: N_28  and  C_29
REMARK    9  A    between atoms: C_29  and  C_30
REMARK   10  A    between atoms: C_30  and  C_31
REMARK   11  A    between atoms: C_30  and  C_32
REMARK                            x       y       z     vdW  Elec       q    Type
REMARK                         _______ _______ _______ _____ _____    ______ ____
ROOT
ATOM      1  C   UNL     1      -2.528  -4.139   0.004  0.00  0.00    +0.124 A 
ATOM      2  C   UNL     1      -2.481  -2.761   0.017  0.00  0.00    +0.045 A 
ATOM      3  C   UNL     1      -1.247  -2.107   0.003  0.00  0.00    +0.061 A 
ATOM      4  C   UNL     1      -0.067  -2.855  -0.013  0.00  0.00    +0.016 A 
ATOM      5  C   UNL     1      -0.127  -4.232  -0.019  0.00  0.00    +0.023 A 
ATOM      6  C   UNL     1      -1.355  -4.875  -0.011  0.00  0.00    +0.067 A 
ATOM      7 CL   UNL     1      -1.422  -6.610  -0.018  0.00  0.00    -0.082 Cl
ENDROOT
BRANCH   1   8
ATOM      8  S   UNL     1      -4.084  -4.966   0.015  0.00  0.00    +0.062 S 
ATOM      9  O   UNL     1      -4.012  -5.953   1.035  0.00  0.00    -0.153 OA
ATOM     10  O   UNL     1      -5.082  -3.954   0.003  0.00  0.00    -0.153 OA
BRANCH   8  16
ATOM     11  C   UNL     1      -4.347  -9.446  -2.356  0.00  0.00    +0.009 C 
ATOM     12  C   UNL     1      -4.870  -8.033  -2.091  0.00  0.00    +0.002 C 
ATOM     13  C   UNL     1      -5.390  -7.428  -3.397  0.00  0.00    +0.006 C 
ATOM     14  C   UNL     1      -5.944  -6.027  -3.127  0.00  0.00    +0.017 C 
ATOM     15  C   UNL     1      -4.825  -5.134  -2.593  0.00  0.00    +0.109 C 
ATOM     16  N   UNL     1      -4.216  -5.779  -1.421  0.00  0.00    -0.176 NA
ATOM     17  C   UNL     1      -3.734  -7.161  -1.547  0.00  0.00    +0.112 C 
ENDBRANCH   8  16
ENDBRANCH   1   8
BRANCH   3  18
ATOM     18  C   UNL     1      -1.190  -0.632   0.010  0.00  0.00    +0.340 C 
ATOM     19  O   UNL     1      -2.217   0.016   0.023  0.00  0.00    -0.245 OA
BRANCH  18  20
ATOM     20  O   UNL     1       0.002  -0.004   0.002  0.00  0.00    -0.452 OA
BRANCH  20  21
ATOM     21  C   UNL     1      -0.018   1.448   0.010  0.00  0.00    +0.328 C 
BRANCH  21  22
ATOM     22  C   UNL     1       1.396   1.969  -0.001  0.00  0.00    +0.258 C 
ATOM     23  O   UNL     1       2.328   1.194  -0.014  0.00  0.00    -0.272 OA
ATOM     24  N   UNL     1       1.625   3.298   0.004  0.00  0.00    -0.237 N 
ATOM     25  C   UNL     1       2.889   3.764  -0.005  0.00  0.00    +0.306 C 
ATOM     26  O   UNL     1       3.823   2.987  -0.018  0.00  0.00    -0.252 OA
ATOM     27  N   UNL     1       3.117   5.093  -0.000  0.00  0.00    -0.299 N 
ATOM     28  H   UNL     1       0.879   3.918   0.015  0.00  0.00    +0.159 HD
ATOM     29  H   UNL     1       2.371   5.713   0.010  0.00  0.00    +0.150 HD
BRANCH  27  30
ATOM     30  C   UNL     1       4.492   5.599  -0.011  0.00  0.00    +0.108 C 
BRANCH  30  31
ATOM     31  C   UNL     1       4.471   7.129  -0.002  0.00  0.00    -0.000 C 
ATOM     32  C   UNL     1       5.902   7.658   0.113  0.00  0.00    +0.009 C 
ATOM     33  C   UNL     1       3.842   7.638  -1.301  0.00  0.00    +0.009 C 
ENDBRANCH  30  31
ENDBRANCH  27  30
ENDBRANCH  21  22
ENDBRANCH  20  21
ENDBRANCH  18  20
ENDBRANCH   3  18
TORSDOF 8
