REMARK  Name = ZINC04587371
REMARK  5 active torsions:
REMARK  status: ('A' for Active; 'I' for Inactive)
REMARK    1  A    between atoms: C_3  and  O_23
REMARK    2  A    between atoms: C_6  and  C_7
REMARK    3  A    between atoms: N_8  and  N_9
REMARK    4  A    between atoms: N_12  and  C_13
REMARK    5  A    between atoms: O_23  and  C_24
REMARK                            x       y       z     vdW  Elec       q    Type
REMARK                         _______ _______ _______ _____ _____    ______ ____
ROOT
ATOM      1  N   UNL     1       3.130  -0.757   7.387  0.00  0.00    -0.191 N 
ATOM      2  C   UNL     1       4.241  -1.520   7.426  0.00  0.00    +0.320 C 
ATOM      3  O   UNL     1       4.718  -1.846   8.495  0.00  0.00    -0.251 OA
ATOM      4  N   UNL     1       4.822  -1.921   6.278  0.00  0.00    -0.293 N 
ATOM      5  H   UNL     1       2.711  -0.468   8.213  0.00  0.00    +0.179 HD
ATOM      6  H   UNL     1       4.442  -1.661   5.424  0.00  0.00    +0.151 HD
ENDROOT
BRANCH   4   7
ATOM      7  C   UNL     1       6.030  -2.751   6.320  0.00  0.00    +0.037 C 
ATOM      8  C   UNL     1       7.141  -1.997   7.054  0.00  0.00    +0.029 C 
ATOM      9  C   UNL     1       8.401  -2.863   7.098  0.00  0.00    -0.008 C 
ATOM     10  C   UNL     1       8.854  -3.176   5.670  0.00  0.00    +0.007 C 
ATOM     11  C   UNL     1       7.743  -3.930   4.936  0.00  0.00    -0.008 C 
ATOM     12  C   UNL     1       6.483  -3.064   4.893  0.00  0.00    +0.029 C 
ATOM     13  C   UNL     1       7.440  -5.236   5.674  0.00  0.00    +0.007 C 
ATOM     14  C   UNL     1       6.987  -4.922   7.101  0.00  0.00    -0.008 C 
ATOM     15  C   UNL     1       8.098  -4.169   7.835  0.00  0.00    +0.007 C 
ATOM     16  C   UNL     1       5.726  -4.056   7.057  0.00  0.00    +0.029 C 
ENDBRANCH   4   7
BRANCH   1  18
ATOM     17  C   UNL     1       1.512   0.353   6.117  0.00  0.00    +0.138 C 
ATOM     18  N   UNL     1       2.581  -0.382   6.154  0.00  0.00    -0.186 NA
BRANCH  17  24
ATOM     19  C   UNL     1      -0.218   1.539   4.777  0.00  0.00    +0.013 A 
ATOM     20  C   UNL     1      -0.755   1.906   3.562  0.00  0.00    +0.046 A 
ATOM     21  C   UNL     1      -0.153   1.491   2.381  0.00  0.00    +0.130 A 
ATOM     22  C   UNL     1       0.988   0.700   2.418  0.00  0.00    +0.046 A 
ATOM     23  C   UNL     1       1.535   0.333   3.629  0.00  0.00    +0.013 A 
ATOM     24  C   UNL     1       0.933   0.748   4.819  0.00  0.00    -0.005 A 
BRANCH  21  25
ATOM     25  O   UNL     1      -0.686   1.856   1.185  0.00  0.00    -0.406 OA
BRANCH  25  26
ATOM     26  C   UNL     1      -0.017   1.395   0.010  0.00  0.00    +0.575 C 
ATOM     27  F   UNL     1       0.002  -0.004   0.002  0.00  0.00    -0.133 F 
ATOM     28  F   UNL     1       1.296   1.879  -0.000  0.00  0.00    -0.133 F 
ATOM     29  F   UNL     1      -0.694   1.858  -1.124  0.00  0.00    -0.133 F 
ENDBRANCH  25  26
ENDBRANCH  21  25
ENDBRANCH  17  24
ENDBRANCH   1  18
TORSDOF 5
