REMARK  Name = ZINC39693453
REMARK  13 active torsions:
REMARK  status: ('A' for Active; 'I' for Inactive)
REMARK    1  A    between atoms: C_1  and  C_2
REMARK    2  A    between atoms: C_2  and  C_4
REMARK    3  A    between atoms: C_2  and  O_30
REMARK    4  A    between atoms: C_8  and  C_17
REMARK    5  A    between atoms: N_19  and  C_20
REMARK    6  A    between atoms: C_20  and  C_21
REMARK    7  A    between atoms: C_21  and  N_22
REMARK    8  A    between atoms: C_23  and  O_25
REMARK    9  A    between atoms: O_25  and  C_26
REMARK   10  A    between atoms: C_26  and  C_27
REMARK   11  A    between atoms: C_26  and  C_28
REMARK   12  A    between atoms: C_26  and  C_29
REMARK   13  A    between atoms: O_30  and  C_31
REMARK                            x       y       z     vdW  Elec       q    Type
REMARK                         _______ _______ _______ _____ _____    ______ ____
ROOT
ATOM      1  C   UNL     1      -1.883  -0.349   0.102  0.00  0.00    +0.256 C 
ATOM      2  O   UNL     1      -2.427  -0.814   1.081  0.00  0.00    -0.272 OA
ATOM      3  N   UNL     1      -2.607  -0.061  -0.998  0.00  0.00    -0.297 N 
ATOM      4  C   UNL     1      -2.124   0.501  -2.281  0.00  0.00    +0.121 C 
ATOM      5  C   UNL     1      -2.926  -0.255  -3.365  0.00  0.00    +0.100 C 
ATOM      6  C   UNL     1      -4.199  -0.733  -2.648  0.00  0.00    -0.004 C 
ATOM      7  C   UNL     1      -4.065  -0.240  -1.199  0.00  0.00    +0.115 C 
ATOM      8  C   UNL     1      -5.435  -0.123  -3.302  0.00  0.00    -0.010 C 
ATOM      9  C   UNL     1      -6.691  -0.658  -2.609  0.00  0.00    -0.082 C 
ATOM     10  N   UNL     1      -6.727  -2.122  -2.720  0.00  0.00    +0.379 N 
ATOM     11  C   UNL     1      -5.584  -2.706  -2.008  0.00  0.00    -0.082 C 
ATOM     12  C   UNL     1      -4.281  -2.256  -2.675  0.00  0.00    -0.010 C 
ATOM     13  H   UNL     1      -7.585  -2.467  -2.316  0.00  0.00    -0.086 HD
ATOM     14  H   UNL     1      -6.686  -2.385  -3.693  0.00  0.00    -0.086 HD
ENDROOT
BRANCH   5  15
ATOM     15  C   UNL     1      -2.136  -1.431  -3.877  0.00  0.00    +0.218 C 
ATOM     16  O   UNL     1      -1.353  -2.001  -3.146  0.00  0.00    -0.275 OA
ATOM     17  N   UNL     1      -2.299  -1.851  -5.147  0.00  0.00    -0.314 N 
ATOM     18  H   UNL     1      -2.925  -1.396  -5.732  0.00  0.00    +0.149 HD
BRANCH  17  19
ATOM     19  C   UNL     1      -1.531  -2.995  -5.645  0.00  0.00    +0.123 C 
BRANCH  19  20
ATOM     20  C   UNL     1      -1.902  -3.261  -7.106  0.00  0.00    +0.126 C 
BRANCH  20  21
ATOM     21  N   UNL     1      -1.134  -4.405  -7.604  0.00  0.00    -0.280 N 
ATOM     22  C   UNL     1      -1.297  -4.825  -8.874  0.00  0.00    +0.401 C 
ATOM     23  O   UNL     1      -2.082  -4.254  -9.606  0.00  0.00    -0.226 OA
ATOM     24  H   UNL     1      -0.508  -4.861  -7.019  0.00  0.00    +0.152 HD
BRANCH  22  25
ATOM     25  O   UNL     1      -0.592  -5.876  -9.332  0.00  0.00    -0.445 OA
BRANCH  25  26
ATOM     26  C   UNL     1      -0.815  -6.266 -10.688  0.00  0.00    +0.107 C 
ATOM     27  C   UNL     1      -0.468  -5.102 -11.618  0.00  0.00    +0.055 C 
ATOM     28  C   UNL     1       0.069  -7.469 -11.025  0.00  0.00    +0.055 C 
ATOM     29  C   UNL     1      -2.285  -6.646 -10.874  0.00  0.00    +0.055 C 
ENDBRANCH  25  26
ENDBRANCH  22  25
ENDBRANCH  20  21
ENDBRANCH  19  20
ENDBRANCH  17  19
ENDBRANCH   5  15
BRANCH   1  31
ATOM     30  C   UNL     1      -0.138   1.410   0.004  0.00  0.00    +0.062 C 
ATOM     31  C   UNL     1      -0.398  -0.093   0.115  0.00  0.00    +0.256 C 
BRANCH  31  32
ATOM     32  O   UNL     1       0.159  -0.584   1.337  0.00  0.00    -0.480 OA
BRANCH  32  33
ATOM     33  C   UNL     1       1.474  -0.924   1.322  0.00  0.00    +0.122 A 
ATOM     34  C   UNL     1       2.052  -1.513   2.438  0.00  0.00    +0.045 A 
ATOM     35  C   UNL     1       3.389  -1.859   2.420  0.00  0.00    +0.004 A 
ATOM     36  C   UNL     1       4.152  -1.618   1.292  0.00  0.00    +0.000 A 
ATOM     37  C   UNL     1       3.579  -1.031   0.179  0.00  0.00    +0.004 A 
ATOM     38  C   UNL     1       2.240  -0.689   0.190  0.00  0.00    +0.045 A 
ENDBRANCH  32  33
ENDBRANCH  31  32
ENDBRANCH   1  31
TORSDOF 9
