REMARK  Name = ZINC06804019
REMARK  3 active torsions:
REMARK  status: ('A' for Active; 'I' for Inactive)
REMARK    1  A    between atoms: C_1  and  C_2
REMARK    2  A    between atoms: C_8  and  N_10
REMARK    3  A    between atoms: C_11  and  C_13
REMARK                            x       y       z     vdW  Elec       q    Type
REMARK                         _______ _______ _______ _____ _____    ______ ____
ROOT
ATOM      1  C   UNL     1      -2.487   1.371  -2.859  0.00  0.00    +0.039 A 
ATOM      2  C   UNL     1      -2.076   2.551  -3.485  0.00  0.00    +0.015 A 
ATOM      3  C   UNL     1      -2.736   3.005  -4.606  0.00  0.00    +0.026 A 
ATOM      4  C   UNL     1      -3.817   2.300  -5.111  0.00  0.00    +0.052 A 
ATOM      5  C   UNL     1      -4.243   1.116  -4.479  0.00  0.00    +0.055 A 
ATOM      6  C   UNL     1      -3.579   0.657  -3.363  0.00  0.00    +0.038 A 
ATOM      7  N   UNL     1      -5.354   0.424  -4.995  0.00  0.00    -0.282 N 
ATOM      8  C   UNL     1      -5.653   0.575  -6.319  0.00  0.00    +0.238 C 
ATOM      9  O   UNL     1      -6.577  -0.014  -6.840  0.00  0.00    -0.273 OA
ATOM     10  C   UNL     1      -4.772   1.511  -7.089  0.00  0.00    +0.160 C 
ATOM     11  N   UNL     1      -4.516   2.695  -6.223  0.00  0.00    -0.317 N 
ATOM     12  C   UNL     1      -3.927   3.675  -7.139  0.00  0.00    +0.106 C 
ATOM     13  C   UNL     1      -4.809   3.547  -8.413  0.00  0.00    +0.021 C 
ATOM     14  C   UNL     1      -5.409   2.118  -8.341  0.00  0.00    +0.033 C 
ATOM     15  H   UNL     1      -5.893  -0.147  -4.426  0.00  0.00    +0.155 HD
ENDROOT
BRANCH   1  17
ATOM     16  N   UNL     1      -0.721   1.571  -1.179  0.00  0.00    -0.308 N 
ATOM     17  C   UNL     1      -1.773   0.883  -1.664  0.00  0.00    +0.244 C 
ATOM     18  O   UNL     1      -2.135  -0.141  -1.117  0.00  0.00    -0.270 OA
ATOM     19  H   UNL     1      -0.433   2.388  -1.615  0.00  0.00    +0.149 HD
BRANCH  16  26
ATOM     20  C   UNL     1       2.139   1.122  -1.262  0.00  0.00    +0.009 C 
ATOM     21  C   UNL     1       1.423   1.615  -0.003  0.00  0.00    +0.006 C 
ATOM     22  C   UNL     1       1.402   3.145   0.006  0.00  0.00    +0.005 C 
ATOM     23  C   UNL     1       0.686   3.639   1.264  0.00  0.00    +0.000 C 
ATOM     24  C   UNL     1      -0.750   3.109   1.275  0.00  0.00    +0.002 C 
ATOM     25  C   UNL     1      -0.729   1.579   1.267  0.00  0.00    +0.022 C 
ATOM     26  C   UNL     1      -0.013   1.086   0.008  0.00  0.00    +0.076 C 
ENDBRANCH  16  26
ENDBRANCH   1  17
TORSDOF 2
