REMARK  Name = ZINC63927586
REMARK  5 active torsions:
REMARK  status: ('A' for Active; 'I' for Inactive)
REMARK    1  A    between atoms: C_4  and  C_7
REMARK    2  A    between atoms: C_9  and  C_12
REMARK    3  A    between atoms: C_12  and  S_13
REMARK    4  A    between atoms: S_13  and  C_16
REMARK    5  A    between atoms: C_19  and  O_22
REMARK                            x       y       z     vdW  Elec       q    Type
REMARK                         _______ _______ _______ _____ _____    ______ ____
ROOT
ATOM      1  C   UNL     1       5.875  -3.667  -0.085  0.00  0.00    +0.230 C 
ENDROOT
BRANCH   1   4
ATOM      2  C   UNL     1       3.695  -0.685  -0.038  0.00  0.00    +0.168 A 
ATOM      3  C   UNL     1       3.863  -2.035  -0.053  0.00  0.00    +0.077 A 
ATOM      4  C   UNL     1       5.240  -2.301  -0.067  0.00  0.00    +0.105 A 
ATOM      5  N   UNL     1       5.876  -1.163  -0.062  0.00  0.00    -0.081 NA
ATOM      6  O   UNL     1       4.918  -0.120  -0.049  0.00  0.00    -0.354 OA
BRANCH   2  10
ATOM      7  C   UNL     1      -0.017   1.379   0.010  0.00  0.00    +0.000 A 
ATOM      8  C   UNL     1       1.168   2.093   0.002  0.00  0.00    +0.001 A 
ATOM      9  C   UNL     1       2.377   1.429  -0.013  0.00  0.00    +0.011 A 
ATOM     10  C   UNL     1       2.403   0.034  -0.021  0.00  0.00    +0.020 A 
ATOM     11  C   UNL     1       1.204  -0.681  -0.013  0.00  0.00    +0.011 A 
ATOM     12  C   UNL     1       0.002  -0.004   0.002  0.00  0.00    +0.001 A 
ENDBRANCH   2  10
ENDBRANCH   1   4
BRANCH   1  13
ATOM     13  S   UNL     1       6.115  -4.200  -1.802  0.00  0.00    +0.003 S 
ATOM     14  O   UNL     1       4.858  -4.431  -2.424  0.00  0.00    -0.169 OA
ATOM     15  O   UNL     1       7.097  -3.390  -2.433  0.00  0.00    -0.169 OA
BRANCH  13  16
ATOM     16  C   UNL     1       6.857  -5.794  -1.683  0.00  0.00    +0.089 A 
ATOM     17  C   UNL     1       8.234  -5.913  -1.635  0.00  0.00    +0.030 A 
ATOM     18  C   UNL     1       8.818  -7.161  -1.541  0.00  0.00    +0.047 A 
ATOM     19  C   UNL     1       8.021  -8.296  -1.495  0.00  0.00    +0.117 A 
ATOM     20  C   UNL     1       6.640  -8.174  -1.542  0.00  0.00    +0.047 A 
ATOM     21  C   UNL     1       6.061  -6.923  -1.631  0.00  0.00    +0.030 A 
BRANCH  19  22
ATOM     22  O   UNL     1       8.593  -9.526  -1.403  0.00  0.00    -0.507 OA
ATOM     23  H   UNL     1       8.733  -9.828  -0.495  0.00  0.00    +0.292 HD
ENDBRANCH  19  22
ENDBRANCH  13  16
ENDBRANCH   1  13
TORSDOF 5
