REMARK  Name = ZINC34835995
REMARK  13 active torsions:
REMARK  status: ('A' for Active; 'I' for Inactive)
REMARK    1  A    between atoms: C_1  and  C_2
REMARK    2  A    between atoms: C_5  and  N_9
REMARK    3  A    between atoms: C_7  and  C_8
REMARK    4  A    between atoms: C_10  and  C_12
REMARK    5  A    between atoms: N_23  and  C_40
REMARK    6  A    between atoms: C_24  and  C_26
REMARK    7  A    between atoms: N_28  and  C_29
REMARK    8  A    between atoms: C_34  and  C_39
REMARK    9  A    between atoms: C_36  and  C_38
REMARK   10  A    between atoms: C_40  and  C_41
REMARK   11  A    between atoms: C_41  and  C_42
REMARK   12  A    between atoms: C_42  and  O_43
REMARK   13  A    between atoms: O_43  and  C_44
REMARK                            x       y       z     vdW  Elec       q    Type
REMARK                         _______ _______ _______ _____ _____    ______ ____
ROOT
ATOM      1  C   UNL     1      -0.134  -6.343  -1.187  0.00  0.00    +0.123 C 
ATOM      2  C   UNL     1      -1.451  -6.821  -0.494  0.00  0.00    +0.155 C 
ATOM      3  C   UNL     1      -2.606  -6.073  -1.169  0.00  0.00    +0.004 C 
ATOM      4  C   UNL     1      -2.764  -6.602  -2.389  0.00  0.00    +0.009 C 
ATOM      5  C   UNL     1      -1.692  -7.629  -2.469  0.00  0.00    +0.127 C 
ATOM      6  C   UNL     1      -0.315  -6.883  -2.617  0.00  0.00    +0.128 C 
ATOM      7  C   UNL     1       0.608  -8.009  -2.990  0.00  0.00    +0.223 C 
ATOM      8  O   UNL     1       1.805  -8.028  -2.798  0.00  0.00    -0.275 OA
ATOM      9  N   UNL     1      -0.110  -9.002  -3.573  0.00  0.00    -0.286 N 
ATOM     10  C   UNL     1      -1.587  -8.668  -3.542  0.00  0.00    +0.198 C 
ATOM     11  O   UNL     1      -1.586  -8.157  -1.102  0.00  0.00    -0.358 OA
ENDROOT
BRANCH   1  13
ATOM     12  N   UNL     1       0.059  -4.170  -0.021  0.00  0.00    -0.285 N 
ATOM     13  C   UNL     1      -0.040  -4.839  -1.187  0.00  0.00    +0.224 C 
ATOM     14  O   UNL     1      -0.054  -4.230  -2.236  0.00  0.00    -0.275 OA
ATOM     15  H   UNL     1       0.137  -4.658   0.813  0.00  0.00    +0.155 HD
BRANCH  12  20
ATOM     16  C   UNL     1       0.014   1.503   0.006  0.00  0.00    +0.044 C 
ATOM     17  C   UNL     1       0.026  -0.004  -0.001  0.00  0.00    -0.047 A 
ATOM     18  C   UNL     1       0.630  -0.684  -1.042  0.00  0.00    +0.005 A 
ATOM     19  C   UNL     1       0.643  -2.065  -1.052  0.00  0.00    +0.023 A 
ATOM     20  C   UNL     1       0.048  -2.771  -0.014  0.00  0.00    +0.034 A 
ATOM     21  C   UNL     1      -0.558  -2.085   1.030  0.00  0.00    +0.027 A 
ATOM     22  C   UNL     1      -0.563  -0.703   1.036  0.00  0.00    -0.046 A 
ATOM     23  C   UNL     1      -1.215   0.042   2.172  0.00  0.00    +0.044 C 
ENDBRANCH  12  20
ENDBRANCH   1  13
BRANCH  10  24
ATOM     24  C   UNL     1      -2.066  -8.117  -4.860  0.00  0.00    +0.237 C 
ATOM     25  O   UNL     1      -1.264  -7.736  -5.686  0.00  0.00    -0.274 OA
ATOM     26  N   UNL     1      -3.387  -8.048  -5.121  0.00  0.00    -0.311 N 
ATOM     27  H   UNL     1      -4.028  -8.353  -4.460  0.00  0.00    +0.149 HD
BRANCH  26  28
ATOM     28  C   UNL     1      -3.853  -7.513  -6.402  0.00  0.00    +0.076 C 
ATOM     29  C   UNL     1      -3.939  -5.988  -6.317  0.00  0.00    +0.022 C 
ATOM     30  C   UNL     1      -4.426  -5.429  -7.655  0.00  0.00    +0.002 C 
ATOM     31  C   UNL     1      -5.809  -6.001  -7.974  0.00  0.00    +0.003 C 
ATOM     32  C   UNL     1      -5.723  -7.526  -8.060  0.00  0.00    -0.009 C 
ATOM     33  C   UNL     1      -5.236  -8.085  -6.721  0.00  0.00    +0.009 C 
ATOM     34  C   UNL     1      -6.218  -7.691  -5.617  0.00  0.00    +0.009 C 
ATOM     35  C   UNL     1      -7.105  -8.098  -8.379  0.00  0.00    +0.008 C 
ENDBRANCH  26  28
ENDBRANCH  10  24
BRANCH   9  36
ATOM     36  C   UNL     1       0.470 -10.206  -4.172  0.00  0.00    +0.111 C 
BRANCH  36  37
ATOM     37  C   UNL     1       0.577 -11.303  -3.111  0.00  0.00    +0.047 C 
BRANCH  37  38
ATOM     38  C   UNL     1       1.183 -12.561  -3.737  0.00  0.00    +0.161 C 
BRANCH  38  39
ATOM     39  O   UNL     1       1.283 -13.585  -2.746  0.00  0.00    -0.383 OA
ATOM     40  C   UNL     1       1.840 -14.809  -3.229  0.00  0.00    +0.193 C 
ENDBRANCH  38  39
ENDBRANCH  37  38
ENDBRANCH  36  37
ENDBRANCH   9  36
TORSDOF 8
