REMARK  Name = ZINC35246189
REMARK  13 active torsions:
REMARK  status: ('A' for Active; 'I' for Inactive)
REMARK    1  A    between atoms: C_1  and  C_2
REMARK    2  A    between atoms: C_2  and  C_3
REMARK    3  A    between atoms: C_3  and  C_4
REMARK    4  A    between atoms: C_4  and  N_5
REMARK    5  A    between atoms: C_6  and  C_33
REMARK    6  A    between atoms: C_7  and  C_27
REMARK    7  A    between atoms: C_8  and  C_13
REMARK    8  A    between atoms: C_16  and  N_19
REMARK    9  A    between atoms: C_20  and  C_22
REMARK   10  A    between atoms: C_27  and  O_29
REMARK   11  A    between atoms: O_29  and  C_30
REMARK   12  A    between atoms: C_30  and  C_31
REMARK   13  A    between atoms: C_30  and  C_32
REMARK                            x       y       z     vdW  Elec       q    Type
REMARK                         _______ _______ _______ _____ _____    ______ ____
ROOT
ATOM      1  N   UNL     1      -2.805  -2.828   0.031  0.00  0.00    -0.259 N 
ATOM      2  C   UNL     1      -3.281  -3.151   1.269  0.00  0.00    +0.024 C 
ATOM      3  C   UNL     1      -4.527  -3.647   1.430  0.00  0.00    +0.078 C 
ATOM      4  C   UNL     1      -5.377  -3.833   0.189  0.00  0.00    +0.143 C 
ATOM      5  N   UNL     1      -4.771  -3.454  -1.098  0.00  0.00    -0.288 N 
ATOM      6  C   UNL     1      -3.514  -2.966  -1.097  0.00  0.00    +0.307 C 
ATOM      7  O   UNL     1      -3.006  -2.647  -2.154  0.00  0.00    -0.252 OA
ATOM      8  C   UNL     1      -2.402  -2.950   2.477  0.00  0.00    +0.061 C 
ATOM      9  H   UNL     1      -5.265  -3.549  -1.927  0.00  0.00    +0.151 HD
ENDROOT
BRANCH   4  10
ATOM     10  C   UNL     1      -5.769  -5.286   0.107  0.00  0.00    -0.022 A 
ATOM     11  C   UNL     1      -4.869  -6.216  -0.381  0.00  0.00    +0.007 A 
ATOM     12  C   UNL     1      -5.225  -7.548  -0.457  0.00  0.00    +0.023 A 
ATOM     13  C   UNL     1      -6.487  -7.954  -0.042  0.00  0.00    +0.034 A 
ATOM     14  C   UNL     1      -7.388  -7.017   0.448  0.00  0.00    +0.023 A 
ATOM     15  C   UNL     1      -7.024  -5.687   0.526  0.00  0.00    +0.007 A 
BRANCH  13  16
ATOM     16  N   UNL     1      -6.850  -9.302  -0.118  0.00  0.00    -0.281 N 
ATOM     17  C   UNL     1      -8.120  -9.642  -0.417  0.00  0.00    +0.255 C 
ATOM     18  O   UNL     1      -8.967  -8.778  -0.543  0.00  0.00    -0.269 OA
ATOM     19  H   UNL     1      -6.189  -9.992   0.045  0.00  0.00    +0.155 HD
BRANCH  17  20
ATOM     20  C   UNL     1      -8.479 -11.052  -0.590  0.00  0.00    +0.074 A 
ATOM     21  C   UNL     1      -9.711 -11.608  -0.901  0.00  0.00    +0.021 A 
ATOM     22  C   UNL     1      -9.739 -12.979  -0.998  0.00  0.00    +0.008 A 
ATOM     23  C   UNL     1      -8.596 -13.678  -0.790  0.00  0.00    +0.046 A 
ATOM     24  S   UNL     1      -7.445 -12.499  -0.463  0.00  0.00    -0.092 S 
ENDBRANCH  17  20
ENDBRANCH  13  16
ENDBRANCH   4  10
BRANCH   3  25
ATOM     25  C   UNL     1      -5.021  -3.983   2.712  0.00  0.00    +0.339 C 
ATOM     26  O   UNL     1      -4.320  -3.826   3.694  0.00  0.00    -0.245 OA
BRANCH  25  27
ATOM     27  O   UNL     1      -6.269  -4.478   2.845  0.00  0.00    -0.459 OA
BRANCH  27  28
ATOM     28  C   UNL     1      -6.703  -4.795   4.170  0.00  0.00    +0.171 C 
ATOM     29  C   UNL     1      -7.372  -3.570   4.795  0.00  0.00    +0.052 C 
ATOM     30  C   UNL     1      -7.704  -5.951   4.115  0.00  0.00    +0.052 C 
ENDBRANCH  27  28
ENDBRANCH  25  27
ENDBRANCH   3  25
BRANCH   1  31
ATOM     31  C   UNL     1      -1.445  -2.294  -0.069  0.00  0.00    +0.115 C 
BRANCH  31  32
ATOM     32  C   UNL     1      -0.445  -3.451  -0.112  0.00  0.00    +0.019 C 
BRANCH  32  34
ATOM     33  C   UNL     1       1.976  -4.050  -0.260  0.00  0.00    +0.004 C 
ATOM     34  C   UNL     1       0.976  -2.893  -0.217  0.00  0.00    -0.002 C 
ENDBRANCH  32  34
ENDBRANCH  31  32
ENDBRANCH   1  31
TORSDOF 9
