REMARK  Name = ZINC12607545
REMARK  11 active torsions:
REMARK  status: ('A' for Active; 'I' for Inactive)
REMARK    1  A    between atoms: C_1  and  C_2
REMARK    2  A    between atoms: C_5  and  S_8
REMARK    3  A    between atoms: S_8  and  N_11
REMARK    4  A    between atoms: C_13  and  C_20
REMARK    5  A    between atoms: C_14  and  C_16
REMARK    6  A    between atoms: C_20  and  C_21
REMARK    7  A    between atoms: C_21  and  C_22
REMARK    8  A    between atoms: C_22  and  S_23
REMARK    9  A    between atoms: S_23  and  C_24
REMARK   10  A    between atoms: C_26  and  C_31
REMARK   11  A    between atoms: C_28  and  N_30
REMARK                            x       y       z     vdW  Elec       q    Type
REMARK                         _______ _______ _______ _____ _____    ______ ____
ROOT
ATOM      1  N   UNL     1      -8.494   1.143   0.716  0.00  0.00    -0.136 N 
ATOM      2  C   UNL     1      -7.292   0.690   1.130  0.00  0.00    +0.140 A 
ATOM      3  C   UNL     1      -6.513   0.527   0.035  0.00  0.00    +0.004 A 
ATOM      4  C   UNL     1      -7.263   0.899  -1.085  0.00  0.00    +0.170 A 
ATOM      5  N   UNL     1      -8.453   1.262  -0.679  0.00  0.00    -0.145 NA
ENDROOT
BRANCH   4   6
ATOM      6  C   UNL     1      -6.785   0.880  -2.514  0.00  0.00    +0.436 C 
ATOM      7  F   UNL     1      -7.064  -0.368  -3.083  0.00  0.00    -0.164 F 
ATOM      8  F   UNL     1      -7.442   1.880  -3.239  0.00  0.00    -0.164 F 
ATOM      9  F   UNL     1      -5.405   1.110  -2.547  0.00  0.00    -0.164 F 
ENDBRANCH   4   6
BRANCH   1  10
ATOM     10  S   UNL     1      -9.789   1.495   1.686  0.00  0.00    +0.099 S 
ATOM     11  O   UNL     1     -10.948   1.387   0.872  0.00  0.00    -0.146 OA
ATOM     12  O   UNL     1      -9.622   0.739   2.878  0.00  0.00    -0.146 OA
BRANCH  10  17
ATOM     13  C   UNL     1      -9.318   7.304   3.250  0.00  0.00    +0.044 C 
ATOM     14  C   UNL     1      -9.436   5.853   2.860  0.00  0.00    -0.050 A 
ATOM     15  C   UNL     1     -10.127   5.499   1.716  0.00  0.00    +0.005 A 
ATOM     16  C   UNL     1     -10.235   4.168   1.358  0.00  0.00    +0.029 A 
ATOM     17  C   UNL     1      -9.651   3.191   2.143  0.00  0.00    +0.112 A 
ATOM     18  C   UNL     1      -8.965   3.545   3.289  0.00  0.00    +0.029 A 
ATOM     19  C   UNL     1      -8.853   4.876   3.646  0.00  0.00    +0.005 A 
ENDBRANCH  10  17
ENDBRANCH   1  10
BRANCH   3  20
ATOM     20  C   UNL     1      -5.088   0.038   0.026  0.00  0.00    +0.040 C 
BRANCH  20  21
ATOM     21  C   UNL     1      -4.137   1.237   0.028  0.00  0.00    +0.016 C 
BRANCH  21  22
ATOM     22  C   UNL     1      -2.690   0.741   0.019  0.00  0.00    +0.078 C 
BRANCH  22  23
ATOM     23  S   UNL     1      -1.566   2.159   0.021  0.00  0.00    -0.086 S 
BRANCH  23  24
ATOM     24  C   UNL     1      -0.016   1.321   0.009  0.00  0.00    +0.190 A 
ATOM     25  N   UNL     1       1.103   2.031   0.002  0.00  0.00    -0.227 NA
ATOM     26  C   UNL     1       2.287   1.437  -0.012  0.00  0.00    +0.044 A 
ATOM     27  C   UNL     1       2.350   0.057  -0.020  0.00  0.00    +0.066 A 
ATOM     28  C   UNL     1       1.155  -0.665  -0.013  0.00  0.00    +0.121 A 
ATOM     29  N   UNL     1       0.002  -0.004   0.002  0.00  0.00    -0.207 NA
ATOM     30  C   UNL     1       3.551   2.257  -0.019  0.00  0.00    +0.066 C 
BRANCH  28  31
ATOM     31  N   UNL     1       1.171  -2.050  -0.021  0.00  0.00    -0.343 N 
ATOM     32  H   UNL     1       0.336  -2.545  -0.016  0.00  0.00    +0.144 HD
ATOM     33  H   UNL     1       2.016  -2.526  -0.031  0.00  0.00    +0.144 HD
ENDBRANCH  28  31
ENDBRANCH  23  24
ENDBRANCH  22  23
ENDBRANCH  21  22
ENDBRANCH  20  21
ENDBRANCH   3  20
TORSDOF 9
