REMARK  Name = ZINC12889636
REMARK  2 active torsions:
REMARK  status: ('A' for Active; 'I' for Inactive)
REMARK    1  A    between atoms: C_4  and  C_7
REMARK    2  A    between atoms: C_7  and  C_9
REMARK                            x       y       z     vdW  Elec       q    Type
REMARK                         _______ _______ _______ _____ _____    ______ ____
ROOT
ATOM      1  C   UNL     1       4.927   0.181  -0.093  0.00  0.00    +0.066 C 
ATOM      2  C   UNL     1       5.314   0.491  -1.562  0.00  0.00    -0.055 C 
ATOM      3  C   UNL     1       4.673   1.829  -1.972  0.00  0.00    -0.016 C 
ATOM      4  C   UNL     1       5.692   2.914  -1.574  0.00  0.00    -0.020 C 
ATOM      5  C   UNL     1       6.863   2.149  -0.927  0.00  0.00    -0.076 C 
ATOM      6  C   UNL     1       7.309  -0.186  -0.488  0.00  0.00    +0.060 C 
ATOM      7  C   UNL     1       6.155  -0.591   0.423  0.00  0.00    +0.085 C 
ATOM      8  C   UNL     1       5.912  -2.074   0.399  0.00  0.00    -0.011 A 
ATOM      9  C   UNL     1       5.610  -2.968  -0.603  0.00  0.00    +0.006 A 
ATOM     10  C   UNL     1       5.443  -4.309  -0.307  0.00  0.00    +0.000 A 
ATOM     11  C   UNL     1       5.579  -4.748   0.998  0.00  0.00    +0.002 A 
ATOM     12  C   UNL     1       5.880  -3.855   2.005  0.00  0.00    +0.023 A 
ATOM     13  C   UNL     1       6.050  -2.503   1.715  0.00  0.00    +0.038 A 
ATOM     14  N   UNL     1       6.354  -1.423   2.546  0.00  0.00    -0.285 N 
ATOM     15  C   UNL     1       6.434  -0.264   1.864  0.00  0.00    +0.228 C 
ATOM     16  O   UNL     1       6.683   0.831   2.323  0.00  0.00    -0.275 OA
ATOM     17  C   UNL     1       8.442   0.420   0.296  0.00  0.00    -0.025 A 
ATOM     18  C   UNL     1       8.537   1.518   1.121  0.00  0.00    +0.024 A 
ATOM     19  C   UNL     1       9.747   1.834   1.716  0.00  0.00    +0.041 A 
ATOM     20  C   UNL     1      10.858   1.042   1.479  0.00  0.00    +0.022 A 
ATOM     21  C   UNL     1      10.765  -0.058   0.653  0.00  0.00    +0.025 A 
ATOM     22  C   UNL     1       9.551  -0.382   0.050  0.00  0.00    +0.036 A 
ATOM     23  N   UNL     1       9.210  -1.426  -0.812  0.00  0.00    -0.286 N 
ATOM     24  C   UNL     1       7.914  -1.383  -1.174  0.00  0.00    +0.212 C 
ATOM     25  O   UNL     1       7.343  -2.160  -1.910  0.00  0.00    -0.277 OA
ATOM     26 CL   UNL     1       9.871   3.218   2.757  0.00  0.00    -0.084 Cl
ATOM     27  H   UNL     1       6.491  -1.498   3.504  0.00  0.00    +0.155 HD
ATOM     28  H   UNL     1       9.834  -2.104  -1.115  0.00  0.00    +0.155 HD
ATOM     29  N   UNL     1       6.731   0.780  -1.444  0.00  0.00    +0.395 N 
ATOM     30  H   UNL     1       7.197   0.698  -2.356  0.00  0.00    -0.079 HD
ENDROOT
BRANCH   1  31
ATOM     31  C   UNL     1       3.691  -0.680  -0.035  0.00  0.00    +0.166 C 
ATOM     32  O   UNL     1       3.353  -1.320  -1.008  0.00  0.00    -0.292 OA
BRANCH  31  36
ATOM     33  C   UNL     1       1.398  -0.862   3.529  0.00  0.00    +0.000 A 
ATOM     34  C   UNL     1       2.463   0.018   3.439  0.00  0.00    +0.001 A 
ATOM     35  C   UNL     1       3.213   0.083   2.284  0.00  0.00    +0.011 A 
ATOM     36  C   UNL     1       2.895  -0.743   1.201  0.00  0.00    +0.018 A 
ATOM     37  C   UNL     1       1.818  -1.629   1.299  0.00  0.00    +0.011 A 
ATOM     38  C   UNL     1       1.077  -1.682   2.461  0.00  0.00    +0.001 A 
ENDBRANCH  31  36
ENDBRANCH   1  31
TORSDOF 2
