REMARK  Name = ZINC35894863
REMARK  6 active torsions:
REMARK  status: ('A' for Active; 'I' for Inactive)
REMARK    1  A    between atoms: C_3  and  C_6
REMARK    2  A    between atoms: C_6  and  C_7
REMARK    3  A    between atoms: C_7  and  N_8
REMARK    4  A    between atoms: C_9  and  C_11
REMARK    5  A    between atoms: C_16  and  N_32
REMARK    6  A    between atoms: N_24  and  C_27
REMARK                            x       y       z     vdW  Elec       q    Type
REMARK                         _______ _______ _______ _____ _____    ______ ____
ROOT
ATOM      1  C   UNL     1       7.697   3.238   2.554  0.00  0.00    +0.098 C 
ATOM      2  C   UNL     1       8.591   2.239   1.820  0.00  0.00    +0.051 C 
ATOM      3  C   UNL     1       8.649   0.951   2.599  0.00  0.00    -0.023 A 
ATOM      4  C   UNL     1       8.923  -0.231   1.933  0.00  0.00    +0.038 A 
ATOM      5  C   UNL     1       8.975  -1.423   2.628  0.00  0.00    +0.127 A 
ATOM      6  C   UNL     1       8.754  -1.441   3.994  0.00  0.00    +0.034 A 
ATOM      7  C   UNL     1       8.485  -0.265   4.664  0.00  0.00    +0.025 A 
ATOM      8  C   UNL     1       8.433   0.938   3.966  0.00  0.00    +0.033 A 
ATOM      9  N   UNL     1       8.168   2.119   4.678  0.00  0.00    -0.329 N 
ATOM     10  C   UNL     1       8.192   3.403   3.995  0.00  0.00    +0.069 C 
ATOM     11  C   UNL     1       7.357   4.471   4.684  0.00  0.00    -0.055 C 
ATOM     12  N   UNL     1       7.455   4.386   6.141  0.00  0.00    +0.384 N 
ATOM     13  C   UNL     1       6.936   3.081   6.577  0.00  0.00    -0.059 C 
ATOM     14  C   UNL     1       7.906   1.996   6.114  0.00  0.00    +0.087 C 
ATOM     15  H   UNL     1       8.420   4.477   6.420  0.00  0.00    -0.081 HD
ENDROOT
BRANCH  12  16
ATOM     16  C   UNL     1       6.660   5.460   6.750  0.00  0.00    -0.068 C 
ATOM     17  C   UNL     1       7.229   6.835   6.344  0.00  0.00    -0.015 C 
ATOM     18  C   UNL     1       7.061   7.706   7.613  0.00  0.00    -0.002 C 
ATOM     19  C   UNL     1       7.380   6.710   8.756  0.00  0.00    -0.002 C 
ATOM     20  C   UNL     1       6.755   5.381   8.284  0.00  0.00    -0.015 C 
ENDBRANCH  12  16
BRANCH   1  22
ATOM     21  N   UNL     1       5.633   2.506   1.403  0.00  0.00    -0.315 N 
ATOM     22  C   UNL     1       6.279   2.728   2.565  0.00  0.00    +0.218 C 
ATOM     23  O   UNL     1       5.718   2.518   3.620  0.00  0.00    -0.275 OA
ATOM     24  H   UNL     1       6.082   2.674   0.560  0.00  0.00    +0.149 HD
BRANCH  21  25
ATOM     25  C   UNL     1       4.255   2.011   1.414  0.00  0.00    +0.109 C 
BRANCH  25  26
ATOM     26  C   UNL     1       3.761   1.845  -0.024  0.00  0.00    +0.061 C 
BRANCH  26  29
ATOM     27  C   UNL     1      -0.016   1.351   0.009  0.00  0.00    +0.008 A 
ATOM     28  C   UNL     1       1.183   2.038   0.002  0.00  0.00    +0.011 A 
ATOM     29  C   UNL     1       2.343   1.336  -0.013  0.00  0.00    -0.009 A 
ATOM     30  S   UNL     1       1.754  -0.349  -0.017  0.00  0.00    -0.102 S 
ATOM     31  C   UNL     1       0.002  -0.004   0.002  0.00  0.00    +0.045 A 
ENDBRANCH  26  29
ENDBRANCH  25  26
ENDBRANCH  21  25
ENDBRANCH   1  22
BRANCH   5  32
ATOM     32  N   UNL     1       9.268  -2.685   1.911  0.00  0.00    +0.056 N 
ATOM     33  O   UNL     1       9.461  -2.671   0.718  0.00  0.00    -0.126 OA
ATOM     34  O   UNL     1       9.314  -3.729   2.519  0.00  0.00    -0.126 OA
ENDBRANCH   5  32
TORSDOF 6
