REMARK  Name = ZINC01875744
REMARK  14 active torsions:
REMARK  status: ('A' for Active; 'I' for Inactive)
REMARK    1  A    between atoms: C_1  and  C_2
REMARK    2  A    between atoms: C_2  and  C_3
REMARK    3  A    between atoms: C_3  and  C_4
REMARK    4  A    between atoms: C_4  and  O_5
REMARK    5  A    between atoms: O_5  and  P_6
REMARK    6  A    between atoms: P_6  and  C_8
REMARK    7  A    between atoms: P_6  and  O_31
REMARK    8  A    between atoms: C_8  and  N_20
REMARK    9  A    between atoms: N_20  and  S_21
REMARK   10  A    between atoms: S_21  and  C_24
REMARK   11  A    between atoms: O_31  and  C_32
REMARK   12  A    between atoms: C_32  and  C_33
REMARK   13  A    between atoms: C_33  and  C_34
REMARK   14  A    between atoms: C_34  and  C_35
REMARK                            x       y       z     vdW  Elec       q    Type
REMARK                         _______ _______ _______ _____ _____    ______ ____
ROOT
ATOM      1  C   UNL     1       1.692   2.107  -0.003  0.00  0.00    +0.186 C 
ATOM      2  C   UNL     1       2.467   1.370  -1.046  0.00  0.00    +0.037 C 
ATOM      3  C   UNL     1       3.343   0.411  -0.784  0.00  0.00    +0.087 C 
ATOM      4  C   UNL     1       3.613   0.024   0.613  0.00  0.00    +0.204 C 
ATOM      5  O   UNL     1       4.165  -1.026   0.880  0.00  0.00    -0.286 OA
ATOM      6  C   UNL     1       3.188   0.960   1.679  0.00  0.00    +0.029 A 
ATOM      7  C   UNL     1       2.269   1.962   1.375  0.00  0.00    +0.000 A 
ATOM      8  C   UNL     1       1.881   2.845   2.369  0.00  0.00    +0.007 A 
ATOM      9  C   UNL     1       2.395   2.726   3.647  0.00  0.00    +0.000 A 
ATOM     10  C   UNL     1       3.301   1.725   3.950  0.00  0.00    +0.001 A 
ATOM     11  C   UNL     1       3.701   0.839   2.969  0.00  0.00    +0.012 A 
ATOM     12 CL   UNL     1       4.172  -0.387  -2.083  0.00  0.00    -0.080 Cl
ENDROOT
BRANCH   1  13
ATOM     13  P   UNL     1      -0.018   1.476   0.010  0.00  0.00    +0.362 P 
ATOM     14  O   UNL     1       0.002  -0.004   0.002  0.00  0.00    -0.256 OA
BRANCH  13  15
ATOM     15  O   UNL     1      -0.797   2.009  -1.294  0.00  0.00    -0.306 OA
BRANCH  15  16
ATOM     16  C   UNL     1      -2.126   1.604  -1.627  0.00  0.00    +0.170 C 
BRANCH  16  17
ATOM     17  C   UNL     1      -2.561   2.295  -2.921  0.00  0.00    +0.028 C 
BRANCH  17  19
ATOM     18  C   UNL     1      -4.419   2.552  -4.571  0.00  0.00    +0.004 C 
ATOM     19  C   UNL     1      -3.984   1.861  -3.277  0.00  0.00    -0.001 C 
ENDBRANCH  17  19
ENDBRANCH  16  17
ENDBRANCH  15  16
ENDBRANCH  13  15
BRANCH  13  20
ATOM     20  O   UNL     1      -0.772   1.995   1.335  0.00  0.00    -0.306 OA
BRANCH  20  21
ATOM     21  C   UNL     1      -2.095   1.586   1.688  0.00  0.00    +0.170 C 
BRANCH  21  22
ATOM     22  C   UNL     1      -2.505   2.263   2.998  0.00  0.00    +0.028 C 
BRANCH  22  23
ATOM     23  C   UNL     1      -3.921   1.826   3.376  0.00  0.00    -0.001 C 
ATOM     24  C   UNL     1      -4.331   2.502   4.686  0.00  0.00    +0.004 C 
ENDBRANCH  22  23
ENDBRANCH  21  22
ENDBRANCH  20  21
ENDBRANCH  13  20
ENDBRANCH   1  13
BRANCH   1  25
ATOM     25  N   UNL     1       1.665   3.529  -0.354  0.00  0.00    -0.164 NA
ATOM     26  H   UNL     1       0.819   3.968  -0.532  0.00  0.00    +0.150 HD
BRANCH  25  27
ATOM     27  S   UNL     1       3.079   4.386  -0.447  0.00  0.00    +0.060 S 
ATOM     28  O   UNL     1       2.728   5.709  -0.829  0.00  0.00    -0.153 OA
ATOM     29  O   UNL     1       3.804   4.103   0.742  0.00  0.00    -0.153 OA
BRANCH  27  30
ATOM     30  C   UNL     1       4.012   3.708  -1.779  0.00  0.00    +0.105 A 
ATOM     31  C   UNL     1       4.900   2.675  -1.545  0.00  0.00    +0.030 A 
ATOM     32  C   UNL     1       5.628   2.139  -2.591  0.00  0.00    +0.022 A 
ATOM     33  C   UNL     1       5.477   2.645  -3.870  0.00  0.00    +0.041 A 
ATOM     34  C   UNL     1       4.593   3.683  -4.102  0.00  0.00    +0.022 A 
ATOM     35  C   UNL     1       3.861   4.214  -3.057  0.00  0.00    +0.030 A 
ATOM     36 CL   UNL     1       6.397   1.978  -5.182  0.00  0.00    -0.084 Cl
ENDBRANCH  27  30
ENDBRANCH  25  27
ENDBRANCH   1  25
TORSDOF 12
