REMARK  Name = ZINC19475810
REMARK  7 active torsions:
REMARK  status: ('A' for Active; 'I' for Inactive)
REMARK    1  A    between atoms: C_3  and  N_12
REMARK    2  A    between atoms: C_4  and  C_8
REMARK    3  A    between atoms: C_13  and  C_15
REMARK    4  A    between atoms: C_15  and  O_16
REMARK    5  A    between atoms: O_16  and  C_17
REMARK    6  A    between atoms: C_17  and  C_19
REMARK    7  A    between atoms: C_19  and  C_20
REMARK                            x       y       z     vdW  Elec       q    Type
REMARK                         _______ _______ _______ _____ _____    ______ ____
ROOT
ATOM      1  C   UNL     1      -7.678   7.388  -1.182  0.00  0.00    +0.328 C 
ENDROOT
BRANCH   1   3
ATOM      2  N   UNL     1      -9.814   8.540  -0.705  0.00  0.00    -0.282 N 
ATOM      3  C   UNL     1      -8.470   8.603  -0.775  0.00  0.00    +0.255 C 
ATOM      4  O   UNL     1      -7.897   9.639  -0.510  0.00  0.00    -0.272 OA
ATOM      5  H   UNL     1     -10.339   7.630  -1.032  0.00  0.00    +0.155 HD
BRANCH   2   8
ATOM      6  C   UNL     1     -10.662  11.613   1.128  0.00  0.00    +0.022 A 
ATOM      7  C   UNL     1      -9.941  10.537   0.648  0.00  0.00    +0.025 A 
ATOM      8  C   UNL     1     -10.542   9.631  -0.217  0.00  0.00    +0.045 A 
ATOM      9  C   UNL     1     -11.864   9.814  -0.601  0.00  0.00    +0.077 A 
ATOM     10  C   UNL     1     -12.581  10.889  -0.114  0.00  0.00    +0.034 A 
ATOM     11  C   UNL     1     -11.980  11.790   0.748  0.00  0.00    +0.042 A 
ATOM     12 CL   UNL     1     -12.883  13.143   1.353  0.00  0.00    -0.084 Cl
BRANCH   9  13
ATOM     13  C   UNL     1     -12.517   8.837  -1.545  0.00  0.00    +0.419 C 
ATOM     14  F   UNL     1     -13.839   9.229  -1.781  0.00  0.00    -0.166 F 
ATOM     15  F   UNL     1     -11.814   8.815  -2.754  0.00  0.00    -0.166 F 
ATOM     16  F   UNL     1     -12.504   7.559  -0.975  0.00  0.00    -0.166 F 
ENDBRANCH   9  13
ENDBRANCH   2   8
ENDBRANCH   1   3
BRANCH   1  17
ATOM     17  O   UNL     1      -6.262   7.709  -1.181  0.00  0.00    -0.455 OA
BRANCH  17  18
ATOM     18  C   UNL     1      -5.414   6.727  -1.524  0.00  0.00    +0.313 C 
ATOM     19  O   UNL     1      -5.840   5.634  -1.815  0.00  0.00    -0.250 OA
BRANCH  18  20
ATOM     20  C   UNL     1      -3.929   6.986  -1.545  0.00  0.00    +0.176 C 
BRANCH  20  21
ATOM     21  C   UNL     1      -3.206   5.731  -1.959  0.00  0.00    +0.061 A 
ATOM     22  C   UNL     1      -3.035   5.429  -3.269  0.00  0.00    +0.072 A 
ATOM     23  S   UNL     1      -2.138   3.890  -3.141  0.00  0.00    -0.060 S 
ATOM     24  C   UNL     1      -2.090   3.799  -1.408  0.00  0.00    +0.167 A 
ATOM     25  N   UNL     1      -2.725   4.900  -1.055  0.00  0.00    -0.229 NA
ATOM     26  N   UNL     1      -1.524   2.821  -0.599  0.00  0.00    -0.250 N 
ATOM     27  C   UNL     1      -0.836   1.626  -1.103  0.00  0.00    +0.116 C 
ATOM     28  C   UNL     1      -0.019   1.087   0.091  0.00  0.00    +0.029 C 
ATOM     29  C   UNL     1      -0.821   1.632   1.295  0.00  0.00    +0.098 C 
ATOM     30  C   UNL     1      -1.535   2.847   0.745  0.00  0.00    +0.221 C 
ATOM     31  O   UNL     1      -2.044   3.718   1.418  0.00  0.00    -0.275 OA
ENDBRANCH  20  21
ENDBRANCH  18  20
ENDBRANCH  17  18
ENDBRANCH   1  17
TORSDOF 7
