REMARK  Name = ZINC08451116
REMARK  8 active torsions:
REMARK  status: ('A' for Active; 'I' for Inactive)
REMARK    1  A    between atoms: C_1  and  N_57
REMARK    2  A    between atoms: C_6  and  C_28
REMARK    3  A    between atoms: C_7  and  C_26
REMARK    4  A    between atoms: C_8  and  S_10
REMARK    5  A    between atoms: S_10  and  C_11
REMARK    6  A    between atoms: C_11  and  C_12
REMARK    7  A    between atoms: N_14  and  C_15
REMARK    8  A    between atoms: C_16  and  C_24
REMARK                            x       y       z     vdW  Elec       q    Type
REMARK                         _______ _______ _______ _____ _____    ______ ____
ROOT
ATOM      1  C   UNL     1       0.473   4.607  -4.292  0.00  0.00    -0.096 C 
ATOM      2  C   UNL     1       2.470   5.694  -3.452  0.00  0.00    -0.073 C 
ATOM      3  C   UNL     1       3.020   6.381  -2.203  0.00  0.00    +0.037 C 
ATOM      4  C   UNL     1       3.092   5.397  -1.061  0.00  0.00    +0.043 A 
ATOM      5  C   UNL     1       2.392   4.214  -1.092  0.00  0.00    -0.033 A 
ATOM      6  C   UNL     1       2.482   3.331  -0.004  0.00  0.00    +0.012 A 
ATOM      7  C   UNL     1       3.295   3.696   1.092  0.00  0.00    +0.092 A 
ATOM      8  C   UNL     1       3.983   4.920   1.033  0.00  0.00    +0.116 A 
ATOM      9  N   UNL     1       3.854   5.708  -0.020  0.00  0.00    -0.244 NA
ATOM     10  C   UNL     1       1.528   3.823  -2.261  0.00  0.00    -0.041 C 
ATOM     11  N   UNL     1       1.217   5.009  -3.076  0.00  0.00    +0.381 N 
ATOM     12  H   UNL     1       0.635   5.652  -2.526  0.00  0.00    -0.082 HD
ENDROOT
BRANCH   6  13
ATOM     13  C   UNL     1       1.742   2.057  -0.004  0.00  0.00    +0.021 A 
ATOM     14  C   UNL     1       2.228   0.774  -0.015  0.00  0.00    +0.016 A 
ATOM     15  C   UNL     1       1.335  -0.271  -0.012  0.00  0.00    +0.008 A 
ATOM     16  C   UNL     1       0.002  -0.004   0.002  0.00  0.00    +0.046 A 
ATOM     17  S   UNL     1      -0.022   1.781   0.012  0.00  0.00    -0.097 S 
ENDBRANCH   6  13
BRANCH   7  18
ATOM     18  C   UNL     1       3.418   2.838   2.232  0.00  0.00    +0.102 C 
ATOM     19  N   UNL     1       3.516   2.157   3.136  0.00  0.00    -0.191 NA
ENDBRANCH   7  18
BRANCH   8  20
ATOM     20  S   UNL     1       5.017   5.409   2.373  0.00  0.00    -0.095 S 
BRANCH  20  21
ATOM     21  C   UNL     1       5.601   7.006   1.753  0.00  0.00    +0.172 C 
BRANCH  21  22
ATOM     22  C   UNL     1       6.528   7.629   2.764  0.00  0.00    +0.228 C 
ATOM     23  O   UNL     1       6.771   7.050   3.802  0.00  0.00    -0.275 OA
ATOM     24  N   UNL     1       7.088   8.829   2.514  0.00  0.00    -0.278 N 
ATOM     25  H   UNL     1       6.894   9.292   1.684  0.00  0.00    +0.155 HD
BRANCH  24  26
ATOM     26  C   UNL     1       7.943   9.403   3.446  0.00  0.00    +0.090 A 
ATOM     27  C   UNL     1       8.613  10.615   3.369  0.00  0.00    +0.084 A 
ATOM     28  C   UNL     1       9.453  10.991   4.492  0.00  0.00    -0.018 A 
ATOM     29  C   UNL     1       9.497  10.095   5.503  0.00  0.00    -0.004 A 
ATOM     30  S   UNL     1       8.437   8.776   4.983  0.00  0.00    -0.077 S 
ATOM     31  C   UNL     1      10.276  10.209   6.777  0.00  0.00    +0.043 C 
ATOM     32  C   UNL     1      11.318  11.324   6.609  0.00  0.00    +0.005 C 
ATOM     33  C   UNL     1      10.630  12.557   6.016  0.00  0.00    +0.005 C 
ATOM     34  C   UNL     1      10.247  12.290   4.560  0.00  0.00    +0.037 C 
BRANCH  27  35
ATOM     35  C   UNL     1       8.478  11.466   2.225  0.00  0.00    +0.102 C 
ATOM     36  N   UNL     1       8.372  12.141   1.317  0.00  0.00    -0.191 NA
ENDBRANCH  27  35
ENDBRANCH  24  26
ENDBRANCH  21  22
ENDBRANCH  20  21
ENDBRANCH   8  20
TORSDOF 7
