REMARK  Name = ZINC21449519
REMARK  12 active torsions:
REMARK  status: ('A' for Active; 'I' for Inactive)
REMARK    1  A    between atoms: C_1  and  C_2
REMARK    2  A    between atoms: C_5  and  N_8
REMARK    3  A    between atoms: C_10  and  C_15
REMARK    4  A    between atoms: C_20  and  C_23
REMARK    5  A    between atoms: N_25  and  C_26
REMARK    6  A    between atoms: C_26  and  C_28
REMARK    7  A    between atoms: C_26  and  C_29
REMARK    8  A    between atoms: C_29  and  C_30
REMARK    9  A    between atoms: C_30  and  C_31
REMARK   10  A    between atoms: C_31  and  C_32
REMARK   11  A    between atoms: C_32  and  C_33
REMARK   12  A    between atoms: C_32  and  C_34
REMARK                            x       y       z     vdW  Elec       q    Type
REMARK                         _______ _______ _______ _____ _____    ______ ____
ROOT
ATOM      1  C   UNL     1       1.356   4.489  -0.284  0.00  0.00    +0.221 C 
ATOM      2  O   UNL     1       0.633   5.147  -1.002  0.00  0.00    -0.275 OA
ATOM      3  N   UNL     1       2.670   4.776  -0.206  0.00  0.00    -0.301 N 
ATOM      4  C   UNL     1       3.578   3.921   0.570  0.00  0.00    +0.108 C 
ATOM      5  C   UNL     1       4.742   3.495  -0.337  0.00  0.00    +0.032 C 
ATOM      6  C   UNL     1       5.405   4.742  -0.926  0.00  0.00    +0.078 C 
ATOM      7  C   UNL     1       4.389   5.508  -1.776  0.00  0.00    +0.032 C 
ATOM      8  C   UNL     1       3.221   5.954  -0.890  0.00  0.00    +0.108 C 
ENDROOT
BRANCH   1  11
ATOM      9  N   UNL     1      -1.343   2.266   0.758  0.00  0.00    -0.271 N 
ATOM     10  C   UNL     1      -0.711   3.588   0.832  0.00  0.00    +0.127 C 
ATOM     11  C   UNL     1       0.784   3.351   0.521  0.00  0.00    +0.102 C 
ATOM     12  C   UNL     1       0.729   2.053  -0.318  0.00  0.00    +0.110 C 
ATOM     13  C   UNL     1      -0.556   1.384   0.117  0.00  0.00    +0.221 C 
ATOM     14  O   UNL     1      -0.838   0.222  -0.086  0.00  0.00    -0.275 OA
BRANCH   9  19
ATOM     15  C   UNL     1      -6.442   1.031   2.916  0.00  0.00    +0.044 C 
ATOM     16  C   UNL     1      -5.088   1.359   2.342  0.00  0.00    -0.050 A 
ATOM     17  C   UNL     1      -4.306   0.355   1.801  0.00  0.00    +0.005 A 
ATOM     18  C   UNL     1      -3.064   0.652   1.276  0.00  0.00    +0.024 A 
ATOM     19  C   UNL     1      -2.600   1.961   1.290  0.00  0.00    +0.036 A 
ATOM     20  C   UNL     1      -3.386   2.967   1.839  0.00  0.00    +0.024 A 
ATOM     21  C   UNL     1      -4.629   2.664   2.358  0.00  0.00    +0.005 A 
ENDBRANCH   9  19
ENDBRANCH   1  11
BRANCH   6  22
ATOM     22  C   UNL     1       6.571   4.331  -1.788  0.00  0.00    +0.216 C 
ATOM     23  O   UNL     1       6.588   4.622  -2.965  0.00  0.00    -0.276 OA
ATOM     24  N   UNL     1       7.596   3.640  -1.250  0.00  0.00    -0.312 N 
ATOM     25  H   UNL     1       7.581   3.376  -0.182  0.00  0.00    +0.149 HD
BRANCH  24  26
ATOM     26  C   UNL     1       8.729   3.240  -2.087  0.00  0.00    +0.070 C 
ATOM     27  C   UNL     1       9.737   4.389  -2.164  0.00  0.00    +0.028 C 
BRANCH  26  28
ATOM     28  C   UNL     1       9.404   2.009  -1.478  0.00  0.00    +0.022 C 
BRANCH  28  29
ATOM     29  C   UNL     1       8.436   0.825  -1.516  0.00  0.00    +0.002 C 
BRANCH  29  30
ATOM     30  C   UNL     1       9.111  -0.405  -0.907  0.00  0.00    +0.003 C 
BRANCH  30  31
ATOM     31  C   UNL     1       8.143  -1.589  -0.945  0.00  0.00    -0.017 C 
ATOM     32  C   UNL     1       7.853  -1.965  -2.399  0.00  0.00    +0.007 C 
ATOM     33  C   UNL     1       8.770  -2.784  -0.225  0.00  0.00    +0.007 C 
ENDBRANCH  30  31
ENDBRANCH  29  30
ENDBRANCH  28  29
ENDBRANCH  26  28
ENDBRANCH  24  26
ENDBRANCH   6  22
TORSDOF 8
