REMARK  Name = ZINC12348012
REMARK  3 active torsions:
REMARK  status: ('A' for Active; 'I' for Inactive)
REMARK    1  A    between atoms: C_4  and  N_7
REMARK    2  A    between atoms: C_8  and  O_27
REMARK    3  A    between atoms: C_15  and  C_17
REMARK                            x       y       z     vdW  Elec       q    Type
REMARK                         _______ _______ _______ _____ _____    ______ ____
ROOT
ATOM      1  N   UNL     1       3.623  -0.651  -0.037  0.00  0.00    -0.199 N 
ATOM      2  C   UNL     1       3.888  -1.838   0.582  0.00  0.00    +0.222 A 
ATOM      3  C   UNL     1       5.172  -2.152   0.322  0.00  0.00    +0.068 A 
ATOM      4  C   UNL     1       5.717  -1.124  -0.482  0.00  0.00    +0.153 A 
ATOM      5  N   UNL     1       4.790  -0.238  -0.699  0.00  0.00    -0.148 NA
ATOM      6  N   UNL     1       7.049  -1.179  -0.902  0.00  0.00    -0.301 N 
ATOM      7  C   UNL     1       7.893  -2.066  -0.281  0.00  0.00    +0.017 C 
ATOM      8  C   UNL     1       7.451  -3.083   0.489  0.00  0.00    +0.024 C 
ATOM      9  C   UNL     1       5.982  -3.343   0.747  0.00  0.00    +0.099 C 
ATOM     10  C   UNL     1       8.357  -3.974   1.095  0.00  0.00    +0.162 C 
ATOM     11  O   UNL     1       7.928  -4.872   1.792  0.00  0.00    -0.292 OA
ATOM     12  C   UNL     1       9.841  -3.842   0.902  0.00  0.00    +0.080 C 
ATOM     13  C   UNL     1      10.107  -3.188  -0.459  0.00  0.00    +0.014 C 
ATOM     14  C   UNL     1       9.374  -1.846  -0.495  0.00  0.00    +0.051 C 
ATOM     15  H   UNL     1       7.369  -0.605  -1.615  0.00  0.00    +0.153 HD
ENDROOT
BRANCH   1  19
ATOM     16  C   UNL     1      -0.017   1.379   0.010  0.00  0.00    +0.000 A 
ATOM     17  C   UNL     1       1.170   2.089   0.002  0.00  0.00    +0.002 A 
ATOM     18  C   UNL     1       2.377   1.419  -0.013  0.00  0.00    +0.028 A 
ATOM     19  C   UNL     1       2.400   0.031  -0.021  0.00  0.00    +0.069 A 
ATOM     20  C   UNL     1       1.206  -0.680  -0.013  0.00  0.00    +0.028 A 
ATOM     21  C   UNL     1       0.002  -0.004   0.002  0.00  0.00    +0.002 A 
ENDBRANCH   1  19
BRANCH   9  22
ATOM     22  C   UNL     1       5.542  -4.554  -0.035  0.00  0.00    +0.002 A 
ATOM     23  C   UNL     1       5.026  -5.722   0.419  0.00  0.00    +0.012 A 
ATOM     24  C   UNL     1       4.688  -6.705  -0.492  0.00  0.00    +0.008 A 
ATOM     25  C   UNL     1       4.884  -6.472  -1.813  0.00  0.00    +0.045 A 
ATOM     26  S   UNL     1       5.559  -4.819  -1.800  0.00  0.00    -0.101 S 
ENDBRANCH   9  22
BRANCH   2  27
ATOM     27  O   UNL     1       3.017  -2.567   1.325  0.00  0.00    -0.492 OA
ATOM     28  H   UNL     1       2.511  -3.215   0.815  0.00  0.00    +0.294 HD
ENDBRANCH   2  27
TORSDOF 3
