REMARK  Name = ZINC53577956
REMARK  6 active torsions:
REMARK  status: ('A' for Active; 'I' for Inactive)
REMARK    1  A    between atoms: C_1  and  C_2
REMARK    2  A    between atoms: C_2  and  C_4
REMARK    3  A    between atoms: C_2  and  N_12
REMARK    4  A    between atoms: C_4  and  C_5
REMARK    5  A    between atoms: N_12  and  C_13
REMARK    6  A    between atoms: C_14  and  N_24
REMARK                            x       y       z     vdW  Elec       q    Type
REMARK                         _______ _______ _______ _____ _____    ______ ____
ROOT
ATOM      1  C   UNL     1      -2.048  -0.650   1.211  0.00  0.00    +0.157 A 
ATOM      2  C   UNL     1      -3.383  -1.047   1.217  0.00  0.00    +0.230 A 
ATOM      3  C   UNL     1      -4.034  -1.196   2.440  0.00  0.00    +0.291 A 
ATOM      4  O   UNL     1      -5.205  -1.543   2.479  0.00  0.00    -0.265 OA
ATOM      5  N   UNL     1      -3.354  -0.954   3.581  0.00  0.00    -0.266 N 
ATOM      6  C   UNL     1      -3.983  -1.098   4.781  0.00  0.00    +0.096 A 
ATOM      7  C   UNL     1      -3.327  -0.862   5.938  0.00  0.00    +0.018 A 
ATOM      8  C   UNL     1      -1.982  -0.463   5.917  0.00  0.00    +0.005 A 
ATOM      9  C   UNL     1      -1.344  -0.315   4.723  0.00  0.00    +0.047 A 
ATOM     10  C   UNL     1      -2.044  -0.567   3.528  0.00  0.00    +0.142 A 
ATOM     11  N   UNL     1      -1.418  -0.428   2.362  0.00  0.00    -0.212 NA
ENDROOT
BRANCH   2  12
ATOM     12  N   UNL     1      -4.099  -1.304  -0.053  0.00  0.00    +0.065 N 
ATOM     13  O   UNL     1      -3.500  -1.266  -1.102  0.00  0.00    -0.126 OA
ATOM     14  O   UNL     1      -5.282  -1.552  -0.041  0.00  0.00    -0.126 OA
ENDBRANCH   2  12
BRANCH   1  15
ATOM     15  N   UNL     1      -1.377  -0.493   0.012  0.00  0.00    -0.324 N 
ATOM     16  H   UNL     1      -1.810  -0.738  -0.821  0.00  0.00    +0.148 HD
BRANCH  15  18
ATOM     17  C   UNL     1      -0.067   1.571   0.002  0.00  0.00    +0.028 C 
ATOM     18  C   UNL     1      -0.014   0.042  -0.000  0.00  0.00    +0.073 C 
BRANCH  18  19
ATOM     19  C   UNL     1       0.713  -0.442  -1.257  0.00  0.00    +0.060 C 
BRANCH  19  20
ATOM     20  C   UNL     1       0.873  -1.939  -1.199  0.00  0.00    -0.010 A 
ATOM     21  C   UNL     1       2.040  -2.491  -0.705  0.00  0.00    +0.006 A 
ATOM     22  C   UNL     1       2.188  -3.864  -0.652  0.00  0.00    +0.000 A 
ATOM     23  C   UNL     1       1.168  -4.688  -1.093  0.00  0.00    +0.003 A 
ATOM     24  C   UNL     1       0.000  -4.138  -1.587  0.00  0.00    +0.038 A 
ATOM     25  C   UNL     1      -0.150  -2.763  -1.635  0.00  0.00    +0.127 A 
ATOM     26  F   UNL     1      -1.294  -2.224  -2.114  0.00  0.00    -0.205 F 
ENDBRANCH  19  20
ENDBRANCH  18  19
ENDBRANCH  15  18
ENDBRANCH   1  15
TORSDOF 5
