REMARK  Name = ZINC26147090
REMARK  9 active torsions:
REMARK  status: ('A' for Active; 'I' for Inactive)
REMARK    1  A    between atoms: C_3  and  C_6
REMARK    2  A    between atoms: C_6  and  N_7
REMARK    3  A    between atoms: N_7  and  C_8
REMARK    4  A    between atoms: C_8  and  C_10
REMARK    5  A    between atoms: C_8  and  C_17
REMARK    6  A    between atoms: N_19  and  C_20
REMARK    7  A    between atoms: C_26  and  C_28
REMARK    8  A    between atoms: C_29  and  N_36
REMARK    9  A    between atoms: C_30  and  C_33
REMARK                            x       y       z     vdW  Elec       q    Type
REMARK                         _______ _______ _______ _____ _____    ______ ____
ROOT
ATOM      1  N   UNL     1       3.496   0.802   0.623  0.00  0.00    -0.274 N 
ATOM      2  C   UNL     1       3.695   1.520   1.746  0.00  0.00    +0.258 C 
ATOM      3  O   UNL     1       2.744   1.977   2.353  0.00  0.00    -0.269 OA
ENDROOT
BRANCH   2   4
ATOM      4  C   UNL     1       5.056   1.751   2.236  0.00  0.00    +0.115 A 
ATOM      5  C   UNL     1       5.585   1.544   3.511  0.00  0.00    +0.076 A 
ATOM      6  C   UNL     1       6.935   1.884   3.591  0.00  0.00    +0.155 A 
ATOM      7  N   UNL     1       7.548   2.341   2.522  0.00  0.00    -0.203 NA
ATOM      8  S   UNL     1       6.481   2.365   1.362  0.00  0.00    +0.019 S 
BRANCH   6   9
ATOM      9  C   UNL     1       7.667   1.733   4.862  0.00  0.00    +0.262 C 
ATOM     10  O   UNL     1       7.094   1.310   5.848  0.00  0.00    -0.269 OA
ATOM     11  N   UNL     1       8.972   2.063   4.931  0.00  0.00    -0.324 N 
ATOM     12  H   UNL     1       9.518   1.951   5.880  0.00  0.00    +0.145 HD
ATOM     13  H   UNL     1       9.491   2.446   4.040  0.00  0.00    +0.145 HD
ENDBRANCH   6   9
BRANCH   5  14
ATOM     14  N   UNL     1       4.848   1.054   4.581  0.00  0.00    -0.355 N 
ATOM     15  H   UNL     1       5.327   0.914   5.561  0.00  0.00    +0.142 HD
ATOM     16  H   UNL     1       3.784   0.805   4.449  0.00  0.00    +0.142 HD
ENDBRANCH   5  14
ENDBRANCH   2   4
BRANCH   1  17
ATOM     17  C   UNL     1       4.618   0.100  -0.006  0.00  0.00    +0.183 C 
BRANCH  17  20
ATOM     18  C   UNL     1       5.715  -2.689   2.140  0.00  0.00    +0.041 A 
ATOM     19  C   UNL     1       4.915  -2.170   1.096  0.00  0.00    +0.046 A 
ATOM     20  C   UNL     1       5.223  -0.865   0.981  0.00  0.00    +0.122 A 
ATOM     21  O   UNL     1       6.165  -0.570   1.891  0.00  0.00    -0.466 OA
ATOM     22  C   UNL     1       6.463  -1.671   2.600  0.00  0.00    +0.195 A 
ENDBRANCH  17  20
ENDBRANCH   1  17
BRANCH   1  23
ATOM     23  C   UNL     1       2.158   0.724   0.031  0.00  0.00    +0.193 C 
BRANCH  23  24
ATOM     24  C   UNL     1       2.095   1.608  -1.187  0.00  0.00    -0.018 A 
ATOM     25  C   UNL     1       1.012   2.445  -1.378  0.00  0.00    +0.009 A 
ATOM     26  C   UNL     1       0.951   3.253  -2.498  0.00  0.00    +0.038 A 
ATOM     27  C   UNL     1       1.979   3.231  -3.424  0.00  0.00    +0.123 A 
ATOM     28  C   UNL     1       3.064   2.392  -3.232  0.00  0.00    +0.038 A 
ATOM     29  C   UNL     1       3.121   1.581  -2.114  0.00  0.00    +0.009 A 
ATOM     30  F   UNL     1       1.922   4.023  -4.517  0.00  0.00    -0.205 F 
ENDBRANCH  23  24
BRANCH  23  31
ATOM     31  C   UNL     1       1.868  -0.701  -0.366  0.00  0.00    +0.238 C 
ATOM     32  O   UNL     1       2.671  -1.575  -0.121  0.00  0.00    -0.273 OA
ATOM     33  N   UNL     1       0.714  -1.003  -0.995  0.00  0.00    -0.311 N 
ATOM     34  H   UNL     1      -0.015  -0.210  -1.218  0.00  0.00    +0.149 HD
BRANCH  33  35
ATOM     35  C   UNL     1       0.432  -2.387  -1.382  0.00  0.00    +0.073 C 
ATOM     36  C   UNL     1       1.077  -2.680  -2.738  0.00  0.00    +0.022 C 
ATOM     37  C   UNL     1       0.782  -4.126  -3.142  0.00  0.00    +0.002 C 
ATOM     38  C   UNL     1      -0.731  -4.328  -3.243  0.00  0.00    +0.000 C 
ATOM     39  C   UNL     1      -1.377  -4.036  -1.887  0.00  0.00    +0.002 C 
ATOM     40  C   UNL     1      -1.081  -2.590  -1.483  0.00  0.00    +0.022 C 
ENDBRANCH  33  35
ENDBRANCH  23  31
ENDBRANCH   1  23
TORSDOF 9
