REMARK  Name = ZINC24090380
REMARK  6 active torsions:
REMARK  status: ('A' for Active; 'I' for Inactive)
REMARK    1  A    between atoms: C_1  and  N_2
REMARK    2  A    between atoms: N_2  and  C_3
REMARK    3  A    between atoms: C_14  and  C_16
REMARK    4  A    between atoms: C_16  and  S_17
REMARK    5  A    between atoms: S_17  and  C_18
REMARK    6  A    between atoms: C_21  and  C_24
REMARK                            x       y       z     vdW  Elec       q    Type
REMARK                         _______ _______ _______ _____ _____    ______ ____
ROOT
ATOM      1  C   UNL     1      -1.330   1.944   0.019  0.00  0.00    +0.173 C 
ENDROOT
BRANCH   1   4
ATOM      2  C   UNL     1       1.124   3.363   0.009  0.00  0.00    +0.132 C 
ATOM      3  N   UNL     1       1.143   1.898   0.001  0.00  0.00    -0.297 N 
ATOM      4  C   UNL     1      -0.014   1.209   0.009  0.00  0.00    +0.226 C 
ATOM      5  O   UNL     1       0.002  -0.004   0.002  0.00  0.00    -0.275 OA
BRANCH   3   6
ATOM      6  C   UNL     1       2.422   1.183  -0.015  0.00  0.00    +0.106 C 
ATOM      7  C   UNL     1       3.189   1.552  -1.283  0.00  0.00    +0.027 C 
ATOM      8  C   UNL     1       4.604   0.971  -1.178  0.00  0.00    +0.007 C 
ATOM      9  C   UNL     1       5.366   1.746  -0.105  0.00  0.00    +0.035 C 
ATOM     10  C   UNL     1       4.568   1.806   1.171  0.00  0.00    -0.042 A 
ATOM     11  C   UNL     1       3.214   1.555   1.211  0.00  0.00    -0.024 A 
ATOM     12  C   UNL     1       2.535   1.640   2.419  0.00  0.00    +0.006 A 
ATOM     13  C   UNL     1       3.205   1.971   3.579  0.00  0.00    +0.000 A 
ATOM     14  C   UNL     1       4.564   2.219   3.539  0.00  0.00    +0.000 A 
ATOM     15  C   UNL     1       5.241   2.136   2.340  0.00  0.00    +0.004 A 
ENDBRANCH   3   6
ENDBRANCH   1   4
BRANCH   1  16
ATOM     16  S   UNL     1      -2.689   0.750   0.019  0.00  0.00    -0.077 S 
BRANCH  16  17
ATOM     17  C   UNL     1      -4.064   1.851   0.031  0.00  0.00    +0.185 A 
ATOM     18  N   UNL     1      -5.384   1.499   0.030  0.00  0.00    -0.201 NA
ATOM     19  H   UNL     1      -3.140   3.836   0.045  0.00  0.00    +0.191 HD
ATOM     20  C   UNL     1      -6.084   2.684   0.046  0.00  0.00    +0.183 A 
ATOM     21  N   UNL     1      -5.200   3.654   0.056  0.00  0.00    -0.152 NA
ATOM     22  N   UNL     1      -4.011   3.164   0.044  0.00  0.00    -0.253 N 
BRANCH  20  23
ATOM     23  C   UNL     1      -7.554   2.835   0.051  0.00  0.00    +0.035 A 
ATOM     24  C   UNL     1      -8.376   1.707   0.043  0.00  0.00    +0.013 A 
ATOM     25  C   UNL     1      -9.747   1.855   0.052  0.00  0.00    +0.001 A 
ATOM     26  C   UNL     1     -10.310   3.119   0.059  0.00  0.00    +0.001 A 
ATOM     27  C   UNL     1      -9.502   4.243   0.061  0.00  0.00    +0.016 A 
ATOM     28  C   UNL     1      -8.128   4.109   0.057  0.00  0.00    +0.029 A 
ATOM     29 BR   UNL     1      -7.026   5.645   0.058  0.00  0.00    -0.050 Br
ENDBRANCH  20  23
ENDBRANCH  16  17
ENDBRANCH   1  16
TORSDOF 5
