REMARK  Name = ZINC20726625
REMARK  8 active torsions:
REMARK  status: ('A' for Active; 'I' for Inactive)
REMARK    1  A    between atoms: C_1  and  C_2
REMARK    2  A    between atoms: C_2  and  C_28
REMARK    3  A    between atoms: C_6  and  C_18
REMARK    4  A    between atoms: C_9  and  C_14
REMARK    5  A    between atoms: C_14  and  C_15
REMARK    6  A    between atoms: C_14  and  C_16
REMARK    7  A    between atoms: C_14  and  C_17
REMARK    8  A    between atoms: C_21  and  O_24
REMARK                            x       y       z     vdW  Elec       q    Type
REMARK                         _______ _______ _______ _____ _____    ______ ____
ROOT
ATOM      1  C   UNL     1      -3.508  -0.980   2.943  0.00  0.00    +0.011 C 
ATOM      2  C   UNL     1      -2.659  -2.238   3.135  0.00  0.00    -0.023 C 
ATOM      3  C   UNL     1      -2.686  -3.079   1.858  0.00  0.00    +0.058 C 
ATOM      4  C   UNL     1      -2.109  -2.282   0.711  0.00  0.00    +0.019 C 
ATOM      5  C   UNL     1      -1.144  -1.363   0.926  0.00  0.00    +0.024 C 
ATOM      6  C   UNL     1      -0.533  -0.551  -0.198  0.00  0.00    +0.091 C 
ATOM      7  C   UNL     1      -0.927  -1.145  -1.512  0.00  0.00    +0.049 A 
ATOM      8  C   UNL     1      -0.468  -0.941  -2.810  0.00  0.00    +0.095 A 
ATOM      9  N   UNL     1      -1.179  -1.731  -3.576  0.00  0.00    -0.080 NA
ATOM     10  O   UNL     1      -1.990  -2.372  -2.937  0.00  0.00    -0.339 OA
ATOM     11  C   UNL     1      -1.916  -2.086  -1.641  0.00  0.00    +0.226 A 
ATOM     12  N   UNL     1      -2.610  -2.548  -0.542  0.00  0.00    -0.286 N 
ATOM     13  C   UNL     1      -0.657  -1.116   2.223  0.00  0.00    +0.162 C 
ATOM     14  O   UNL     1       0.227  -0.297   2.379  0.00  0.00    -0.292 OA
ATOM     15  C   UNL     1      -1.206  -1.842   3.420  0.00  0.00    +0.086 C 
ATOM     16  C   UNL     1      -3.208  -3.058   4.305  0.00  0.00    +0.011 C 
ATOM     17  H   UNL     1      -3.544  -3.118  -0.651  0.00  0.00    +0.155 HD
ENDROOT
BRANCH   6  18
ATOM     18  C   UNL     1      -1.029   0.870  -0.119  0.00  0.00    -0.035 A 
ATOM     19  C   UNL     1      -2.355   1.153  -0.390  0.00  0.00    +0.008 A 
ATOM     20  C   UNL     1      -2.814   2.454  -0.312  0.00  0.00    +0.046 A 
ATOM     21  C   UNL     1      -1.941   3.478   0.026  0.00  0.00    +0.117 A 
ATOM     22  C   UNL     1      -0.610   3.191   0.292  0.00  0.00    +0.046 A 
ATOM     23  C   UNL     1      -0.157   1.888   0.219  0.00  0.00    +0.008 A 
BRANCH  21  24
ATOM     24  O   UNL     1      -2.388   4.759   0.096  0.00  0.00    -0.507 OA
ATOM     25  H   UNL     1      -1.695   5.569   0.364  0.00  0.00    +0.292 HD
ENDBRANCH  21  24
ENDBRANCH   6  18
BRANCH   8  26
ATOM     26  C   UNL     1       0.627  -0.002  -3.246  0.00  0.00    +0.008 C 
ATOM     27  C   UNL     1       0.159   1.444  -3.072  0.00  0.00    +0.017 C 
ATOM     28  C   UNL     1       1.874  -0.240  -2.392  0.00  0.00    +0.017 C 
ATOM     29  C   UNL     1       0.962  -0.256  -4.717  0.00  0.00    +0.017 C 
ENDBRANCH   8  26
TORSDOF 3
