REMARK  Name = ZINC36346423
REMARK  13 active torsions:
REMARK  status: ('A' for Active; 'I' for Inactive)
REMARK    1  A    between atoms: C_1  and  C_2
REMARK    2  A    between atoms: C_3  and  C_21
REMARK    3  A    between atoms: C_4  and  O_13
REMARK    4  A    between atoms: N_5  and  C_7
REMARK    5  A    between atoms: O_13  and  C_14
REMARK    6  A    between atoms: C_21  and  N_22
REMARK    7  A    between atoms: N_22  and  C_23
REMARK    8  A    between atoms: N_22  and  C_27
REMARK    9  A    between atoms: C_23  and  C_24
REMARK   10  A    between atoms: C_27  and  C_28
REMARK   11  A    between atoms: C_28  and  C_30
REMARK   12  A    between atoms: C_28  and  O_37
REMARK   13  A    between atoms: C_30  and  C_31
REMARK                            x       y       z     vdW  Elec       q    Type
REMARK                         _______ _______ _______ _____ _____    ______ ____
ROOT
ATOM      1  C   UNL     1       1.413   1.074   0.666  0.00  0.00    +0.068 C 
ATOM      2  C   UNL     1       0.826  -0.307   0.528  0.00  0.00    +0.065 A 
ATOM      3  C   UNL     1       0.306  -0.861  -0.646  0.00  0.00    +0.021 A 
ATOM      4  C   UNL     1      -0.123  -2.119  -0.360  0.00  0.00    +0.225 A 
ATOM      5  N   UNL     1       0.123  -2.345   0.959  0.00  0.00    -0.200 N 
ATOM      6  N   UNL     1       0.724  -1.194   1.485  0.00  0.00    -0.168 NA
ENDROOT
BRANCH   5   7
ATOM      7  C   UNL     1      -0.166  -3.522   1.663  0.00  0.00    +0.069 A 
ATOM      8  C   UNL     1      -1.376  -4.173   1.462  0.00  0.00    +0.028 A 
ATOM      9  C   UNL     1      -1.658  -5.332   2.158  0.00  0.00    +0.002 A 
ATOM     10  C   UNL     1      -0.737  -5.844   3.054  0.00  0.00    +0.000 A 
ATOM     11  C   UNL     1       0.468  -5.198   3.256  0.00  0.00    +0.002 A 
ATOM     12  C   UNL     1       0.759  -4.042   2.559  0.00  0.00    +0.028 A 
ENDBRANCH   5   7
BRANCH   4  13
ATOM     13  O   UNL     1      -0.694  -2.990  -1.231  0.00  0.00    -0.438 OA
BRANCH  13  14
ATOM     14  C   UNL     1      -2.037  -2.913  -1.422  0.00  0.00    +0.133 A 
ATOM     15  C   UNL     1      -2.766  -1.892  -0.828  0.00  0.00    +0.046 A 
ATOM     16  C   UNL     1      -4.131  -1.814  -1.024  0.00  0.00    +0.006 A 
ATOM     17  C   UNL     1      -4.773  -2.752  -1.811  0.00  0.00    +0.038 A 
ATOM     18  C   UNL     1      -4.048  -3.772  -2.405  0.00  0.00    +0.127 A 
ATOM     19  C   UNL     1      -2.680  -3.850  -2.217  0.00  0.00    +0.084 A 
ATOM     20  F   UNL     1      -4.678  -4.688  -3.174  0.00  0.00    -0.205 F 
ENDBRANCH  13  14
ENDBRANCH   4  13
BRANCH   3  21
ATOM     21  C   UNL     1       0.233  -0.183  -1.990  0.00  0.00    -0.036 C 
BRANCH  21  22
ATOM     22  N   UNL     1       1.518  -0.332  -2.684  0.00  0.00    +0.384 N 
ATOM     23  H   UNL     1       2.258   0.039  -2.106  0.00  0.00    -0.081 HD
BRANCH  22  24
ATOM     24  C   UNL     1       1.476   0.402  -3.956  0.00  0.00    -0.075 C 
BRANCH  24  25
ATOM     25  C   UNL     1       1.272   1.893  -3.677  0.00  0.00    -0.028 C 
ATOM     26  C   UNL     1       2.429   2.838  -4.008  0.00  0.00    +0.002 C 
ATOM     27  C   UNL     1       1.173   2.830  -4.883  0.00  0.00    +0.002 C 
ENDBRANCH  24  25
ENDBRANCH  22  24
BRANCH  22  28
ATOM     28  C   UNL     1       1.770  -1.755  -2.948  0.00  0.00    -0.046 C 
BRANCH  28  29
ATOM     29  C   UNL     1       3.189  -1.929  -3.494  0.00  0.00    +0.102 C 
BRANCH  29  30
ATOM     30  O   UNL     1       3.270  -1.358  -4.801  0.00  0.00    -0.393 OA
ATOM     31  H   UNL     1       2.667  -1.757  -5.443  0.00  0.00    +0.210 HD
ENDBRANCH  29  30
BRANCH  29  32
ATOM     32  C   UNL     1       3.528  -3.419  -3.567  0.00  0.00    +0.064 C 
BRANCH  32  33
ATOM     33  C   UNL     1       4.965  -3.588  -3.987  0.00  0.00    -0.045 A 
ATOM     34  C   UNL     1       5.287  -3.680  -5.328  0.00  0.00    +0.004 A 
ATOM     35  C   UNL     1       6.606  -3.834  -5.713  0.00  0.00    +0.000 A 
ATOM     36  C   UNL     1       7.602  -3.896  -4.757  0.00  0.00    +0.000 A 
ATOM     37  C   UNL     1       7.280  -3.803  -3.416  0.00  0.00    +0.000 A 
ATOM     38  C   UNL     1       5.962  -3.644  -3.031  0.00  0.00    +0.004 A 
ENDBRANCH  32  33
ENDBRANCH  29  32
ENDBRANCH  28  29
ENDBRANCH  22  28
ENDBRANCH  21  22
ENDBRANCH   3  21
TORSDOF 12
