REMARK  Name = ZINC35553631
REMARK  9 active torsions:
REMARK  status: ('A' for Active; 'I' for Inactive)
REMARK    1  A    between atoms: C_1  and  C_2
REMARK    2  A    between atoms: C_2  and  C_3
REMARK    3  A    between atoms: C_3  and  C_4
REMARK    4  A    between atoms: C_4  and  C_5
REMARK    5  A    between atoms: N_10  and  C_13
REMARK    6  A    between atoms: C_13  and  C_14
REMARK    7  A    between atoms: C_15  and  C_23
REMARK    8  A    between atoms: C_20  and  C_22
REMARK    9  A    between atoms: C_26  and  C_29
REMARK                            x       y       z     vdW  Elec       q    Type
REMARK                         _______ _______ _______ _____ _____    ______ ____
ROOT
ATOM      1  C   UNL     1       3.986  -8.153  -3.671  0.00  0.00    +0.065 A 
ATOM      2  C   UNL     1       3.432  -9.304  -4.122  0.00  0.00    +0.095 A 
ATOM      3  N   UNL     1       4.066  -9.657  -5.259  0.00  0.00    -0.221 NA
ATOM      4  C   UNL     1       4.983  -8.772  -5.521  0.00  0.00    +0.178 A 
ATOM      5  N   UNL     1       4.987  -7.789  -4.565  0.00  0.00    -0.295 N 
ATOM      6  C   UNL     1       5.907  -6.775  -4.717  0.00  0.00    +0.104 A 
ATOM      7  C   UNL     1       6.745  -6.763  -5.753  0.00  0.00    +0.007 A 
ATOM      8  S   UNL     1       6.281  -8.254  -6.620  0.00  0.00    -0.055 S 
ATOM      9  C   UNL     1       7.813  -5.758  -6.099  0.00  0.00    +0.053 C 
ENDROOT
BRANCH   2  10
ATOM     10  C   UNL     1       2.321 -10.047  -3.477  0.00  0.00    +0.002 A 
ATOM     11  C   UNL     1       1.224  -9.358  -2.964  0.00  0.00    +0.010 A 
ATOM     12  C   UNL     1       0.194 -10.054  -2.365  0.00  0.00    +0.004 A 
ATOM     13  C   UNL     1       0.249 -11.433  -2.274  0.00  0.00    -0.050 A 
ATOM     14  C   UNL     1       1.335 -12.122  -2.782  0.00  0.00    +0.004 A 
ATOM     15  C   UNL     1       2.368 -11.437  -3.388  0.00  0.00    +0.010 A 
ATOM     16  C   UNL     1      -0.879 -12.188  -1.619  0.00  0.00    +0.044 C 
ENDBRANCH   2  10
BRANCH   1  17
ATOM     17  C   UNL     1       3.586  -7.399  -2.429  0.00  0.00    +0.140 C 
BRANCH  17  23
ATOM     18  C   UNL     1       0.770  -2.775  -2.786  0.00  0.00    +0.216 C 
ATOM     19  O   UNL     1       1.084  -1.984  -3.650  0.00  0.00    -0.276 OA
ATOM     20  N   UNL     1       1.064  -4.082  -2.930  0.00  0.00    -0.299 N 
ATOM     21  C   UNL     1       0.686  -5.059  -1.897  0.00  0.00    +0.123 C 
ATOM     22  C   UNL     1       1.925  -5.884  -1.531  0.00  0.00    +0.104 C 
ATOM     23  N   UNL     1       2.501  -6.463  -2.752  0.00  0.00    -0.294 NA
ATOM     24  C   UNL     1       2.966  -5.415  -3.670  0.00  0.00    +0.104 C 
ATOM     25  C   UNL     1       1.765  -4.572  -4.127  0.00  0.00    +0.123 C 
BRANCH  18  26
ATOM     26  C   UNL     1       0.051  -2.296  -1.552  0.00  0.00    +0.096 C 
BRANCH  26  27
ATOM     27  C   UNL     1      -0.158  -0.782  -1.639  0.00  0.00    +0.009 C 
BRANCH  27  29
ATOM     28  C   UNL     1      -1.097   1.218  -0.472  0.00  0.00    +0.004 C 
ATOM     29  C   UNL     1      -0.888  -0.295  -0.385  0.00  0.00    -0.003 C 
ENDBRANCH  27  29
ENDBRANCH  26  27
ENDBRANCH  18  26
ENDBRANCH  17  23
ENDBRANCH   1  17
TORSDOF 6
