REMARK  Name = ZINC55084563
REMARK  5 active torsions:
REMARK  status: ('A' for Active; 'I' for Inactive)
REMARK    1  A    between atoms: C_1  and  C_2
REMARK    2  A    between atoms: C_2  and  C_3
REMARK    3  A    between atoms: C_3  and  C_5
REMARK    4  A    between atoms: C_3  and  N_6
REMARK    5  A    between atoms: C_12  and  C_14
REMARK                            x       y       z     vdW  Elec       q    Type
REMARK                         _______ _______ _______ _____ _____    ______ ____
ROOT
ATOM      1  N   UNL     1       2.491  -0.375   0.855  0.00  0.00    -0.297 NA
ATOM      2  C   UNL     1       2.613   1.086   0.949  0.00  0.00    +0.103 C 
ATOM      3  C   UNL     1       4.075   1.488   0.725  0.00  0.00    +0.123 C 
ATOM      4  N   UNL     1       4.917   0.732   1.665  0.00  0.00    -0.291 N 
ATOM      5  C   UNL     1       4.753  -0.729   1.726  0.00  0.00    +0.123 C 
ATOM      6  C   UNL     1       3.264  -1.044   1.910  0.00  0.00    +0.103 C 
ATOM      7  C   UNL     1       5.815   1.360   2.448  0.00  0.00    +0.302 C 
ATOM      8  O   UNL     1       5.999   2.553   2.325  0.00  0.00    -0.265 OA
ENDROOT
BRANCH   7   9
ATOM      9  C   UNL     1       6.586   0.588   3.470  0.00  0.00    +0.302 C 
ATOM     10  O   UNL     1       6.115   0.404   4.573  0.00  0.00    -0.265 OA
ATOM     11  N   UNL     1       7.802   0.094   3.165  0.00  0.00    -0.296 N 
ATOM     12  C   UNL     1       8.399   0.428   1.856  0.00  0.00    +0.106 C 
ATOM     13  C   UNL     1       9.900   0.740   1.995  0.00  0.00    -0.000 C 
ATOM     14  C   UNL     1      10.133   1.544   3.255  0.00  0.00    -0.081 C 
ATOM     15  N   UNL     1      10.465   0.636   4.351  0.00  0.00    +0.380 N 
ATOM     16  C   UNL     1       9.355   0.130   5.062  0.00  0.00    -0.063 C 
ATOM     17  C   UNL     1       8.481  -0.739   4.136  0.00  0.00    +0.089 C 
ATOM     18  H   UNL     1      10.984  -0.143   3.973  0.00  0.00    -0.086 HD
ATOM     19  H   UNL     1      11.062   1.127   5.000  0.00  0.00    -0.086 HD
ENDBRANCH   7   9
BRANCH   1  20
ATOM     20  C   UNL     1       1.082  -0.789   0.892  0.00  0.00    +0.053 C 
ATOM     21  C   UNL     1       0.507  -0.517   2.284  0.00  0.00    +0.024 C 
BRANCH  20  23
ATOM     22  C   UNL     1       1.480  -2.544  -0.841  0.00  0.00    +0.005 C 
ATOM     23  C   UNL     1       0.981  -2.284   0.582  0.00  0.00    +0.015 C 
ENDBRANCH  20  23
ENDBRANCH   1  20
TORSDOF 3
