REMARK  Name = ZINC24830385
REMARK  10 active torsions:
REMARK  status: ('A' for Active; 'I' for Inactive)
REMARK    1  A    between atoms: C_1  and  C_2
REMARK    2  A    between atoms: C_2  and  O_3
REMARK    3  A    between atoms: O_3  and  C_4
REMARK    4  A    between atoms: C_7  and  C_10
REMARK    5  A    between atoms: C_10  and  C_12
REMARK    6  A    between atoms: C_10  and  N_13
REMARK    7  A    between atoms: C_14  and  C_16
REMARK    8  A    between atoms: C_21  and  S_22
REMARK    9  A    between atoms: S_22  and  C_23
REMARK   10  A    between atoms: C_23  and  C_24
REMARK                            x       y       z     vdW  Elec       q    Type
REMARK                         _______ _______ _______ _____ _____    ______ ____
ROOT
ATOM      1  N   UNL     1      -4.222   3.739   5.163  0.00  0.00    -0.305 N 
ATOM      2  C   UNL     1      -3.542   3.353   4.066  0.00  0.00    +0.246 C 
ATOM      3  O   UNL     1      -2.491   2.752   4.182  0.00  0.00    -0.270 OA
ATOM      4  H   UNL     1      -5.172   4.283   5.058  0.00  0.00    +0.150 HD
ENDROOT
BRANCH   2   5
ATOM      5  C   UNL     1      -4.071   3.660   2.725  0.00  0.00    +0.050 A 
ATOM      6  C   UNL     1      -5.278   4.350   2.586  0.00  0.00    +0.014 A 
ATOM      7  C   UNL     1      -5.768   4.633   1.330  0.00  0.00    +0.001 A 
ATOM      8  C   UNL     1      -5.069   4.237   0.200  0.00  0.00    +0.001 A 
ATOM      9  C   UNL     1      -3.874   3.559   0.319  0.00  0.00    +0.015 A 
ATOM     10  C   UNL     1      -3.366   3.260   1.578  0.00  0.00    +0.020 A 
BRANCH  10  11
ATOM     11  S   UNL     1      -1.842   2.389   1.734  0.00  0.00    -0.120 S 
BRANCH  11  12
ATOM     12  C   UNL     1      -1.325   2.098   0.020  0.00  0.00    +0.110 C 
BRANCH  12  13
ATOM     13  C   UNL     1      -0.016   1.351   0.009  0.00  0.00    -0.030 A 
ATOM     14  C   UNL     1       1.183   2.038   0.002  0.00  0.00    +0.012 A 
ATOM     15  C   UNL     1       2.343   1.336  -0.013  0.00  0.00    +0.045 A 
ATOM     16  S   UNL     1       1.754  -0.349  -0.017  0.00  0.00    -0.105 S 
ATOM     17  C   UNL     1       0.002  -0.004   0.002  0.00  0.00    +0.049 A 
ENDBRANCH  12  13
ENDBRANCH  11  12
ENDBRANCH  10  11
ENDBRANCH   2   5
BRANCH   1  18
ATOM     18  C   UNL     1      -3.696   3.435   6.496  0.00  0.00    +0.100 C 
ATOM     19  C   UNL     1      -4.126   2.025   6.904  0.00  0.00    +0.033 C 
BRANCH  18  23
ATOM     20  C   UNL     1      -5.225   6.263   9.311  0.00  0.00    +0.121 A 
ATOM     21  C   UNL     1      -3.904   5.845   9.393  0.00  0.00    +0.046 A 
ATOM     22  C   UNL     1      -3.412   4.931   8.482  0.00  0.00    +0.009 A 
ATOM     23  C   UNL     1      -4.235   4.432   7.489  0.00  0.00    -0.027 A 
ATOM     24  C   UNL     1      -5.550   4.851   7.402  0.00  0.00    +0.009 A 
ATOM     25  C   UNL     1      -6.048   5.760   8.314  0.00  0.00    +0.046 A 
BRANCH  20  26
ATOM     26  O   UNL     1      -5.711   7.163  10.206  0.00  0.00    -0.492 OA
BRANCH  26  28
ATOM     27  C   UNL     1      -7.443   8.559  11.150  0.00  0.00    +0.048 C 
ATOM     28  C   UNL     1      -7.079   7.547  10.062  0.00  0.00    +0.225 C 
ENDBRANCH  26  28
ENDBRANCH  20  26
ENDBRANCH  18  23
ENDBRANCH   1  18
TORSDOF 8
