REMARK  Name = ZINC03149640
REMARK  7 active torsions:
REMARK  status: ('A' for Active; 'I' for Inactive)
REMARK    1  A    between atoms: C_1  and  C_2
REMARK    2  A    between atoms: C_2  and  C_3
REMARK    3  A    between atoms: C_3  and  C_4
REMARK    4  A    between atoms: C_4  and  O_5
REMARK    5  A    between atoms: O_5  and  C_6
REMARK    6  A    between atoms: C_9  and  N_12
REMARK    7  A    between atoms: C_19  and  C_25
REMARK                            x       y       z     vdW  Elec       q    Type
REMARK                         _______ _______ _______ _____ _____    ______ ____
ROOT
ATOM      1  N   UNL     1      -3.404  -8.051  -0.008  0.00  0.00    -0.210 N 
ATOM      2  C   UNL     1      -2.365  -8.917  -0.011  0.00  0.00    +0.230 C 
ATOM      3  O   UNL     1      -1.194  -8.649   0.154  0.00  0.00    -0.274 OA
ATOM      4  C   UNL     1      -2.952 -10.277  -0.262  0.00  0.00    +0.092 C 
ATOM      5  C   UNL     1      -2.187 -11.448   0.260  0.00  0.00    +0.040 C 
ATOM      6  C   UNL     1      -2.490 -11.777   1.688  0.00  0.00    -0.027 C 
ATOM      7  C   UNL     1      -3.474 -11.256   2.341  0.00  0.00    -0.076 C 
ATOM      8  C   UNL     1      -4.409 -10.230   1.800  0.00  0.00    +0.043 C 
ATOM      9  C   UNL     1      -4.382 -10.140   0.286  0.00  0.00    +0.092 C 
ATOM     10  C   UNL     1      -4.611  -8.648  -0.004  0.00  0.00    +0.230 C 
ATOM     11  O   UNL     1      -5.680  -8.110  -0.197  0.00  0.00    -0.274 OA
ATOM     12  C   UNL     1      -3.693 -11.720   3.758  0.00  0.00    +0.039 C 
ENDROOT
BRANCH   1  16
ATOM     13  C   UNL     1      -2.913  -3.908   0.009  0.00  0.00    +0.121 A 
ATOM     14  C   UNL     1      -1.801  -4.738  -0.000  0.00  0.00    +0.047 A 
ATOM     15  C   UNL     1      -1.963  -6.109  -0.006  0.00  0.00    +0.027 A 
ATOM     16  C   UNL     1      -3.239  -6.657  -0.002  0.00  0.00    +0.044 A 
ATOM     17  C   UNL     1      -4.351  -5.827   0.007  0.00  0.00    +0.027 A 
ATOM     18  C   UNL     1      -4.188  -4.456   0.018  0.00  0.00    +0.047 A 
BRANCH  13  19
ATOM     19  O   UNL     1      -2.753  -2.558   0.015  0.00  0.00    -0.492 OA
BRANCH  19  20
ATOM     20  C   UNL     1      -1.413  -2.063   0.004  0.00  0.00    +0.229 C 
BRANCH  20  21
ATOM     21  C   UNL     1      -1.433  -0.534   0.013  0.00  0.00    +0.041 C 
BRANCH  21  23
ATOM     22  C   UNL     1      -0.019   1.526   0.010  0.00  0.00    +0.004 C 
ATOM     23  C   UNL     1       0.002  -0.004   0.002  0.00  0.00    -0.000 C 
ENDBRANCH  21  23
ENDBRANCH  20  21
ENDBRANCH  19  20
ENDBRANCH  13  19
ENDBRANCH   1  16
TORSDOF 5
