REMARK  Name = ZINC36597747
REMARK  17 active torsions:
REMARK  status: ('A' for Active; 'I' for Inactive)
REMARK    1  A    between atoms: C_1  and  C_2
REMARK    2  A    between atoms: C_5  and  C_7
REMARK    3  A    between atoms: C_7  and  N_8
REMARK    4  A    between atoms: N_8  and  C_9
REMARK    5  A    between atoms: C_9  and  C_11
REMARK    6  A    between atoms: C_9  and  C_17
REMARK    7  A    between atoms: N_19  and  C_20
REMARK    8  A    between atoms: C_20  and  C_21
REMARK    9  A    between atoms: C_20  and  C_22
REMARK   10  A    between atoms: C_20  and  C_23
REMARK   11  A    between atoms: C_23  and  C_24
REMARK   12  A    between atoms: C_24  and  C_25
REMARK   13  A    between atoms: C_24  and  C_26
REMARK   14  A    between atoms: C_24  and  C_27
REMARK   15  A    between atoms: C_28  and  C_30
REMARK   16  A    between atoms: C_34  and  O_37
REMARK   17  A    between atoms: C_35  and  O_36
REMARK                            x       y       z     vdW  Elec       q    Type
REMARK                         _______ _______ _______ _____ _____    ______ ____
ROOT
ATOM      1  N   UNL     1       2.150  -4.442  -1.334  0.00  0.00    -0.275 N 
ATOM      2  C   UNL     1       0.941  -4.343  -0.747  0.00  0.00    +0.252 C 
ATOM      3  O   UNL     1       0.155  -5.268  -0.814  0.00  0.00    -0.270 OA
ENDROOT
BRANCH   2   4
ATOM      4  C   UNL     1       0.571  -3.112  -0.021  0.00  0.00    +0.082 A 
ATOM      5  C   UNL     1       1.439  -2.016  -0.010  0.00  0.00    +0.017 A 
ATOM      6  C   UNL     1       1.090  -0.869   0.668  0.00  0.00    +0.005 A 
ATOM      7  C   UNL     1      -0.119  -0.793   1.340  0.00  0.00    +0.049 A 
ATOM      8  C   UNL     1      -0.989  -1.871   1.339  0.00  0.00    +0.159 A 
ATOM      9  C   UNL     1      -0.652  -3.035   0.654  0.00  0.00    +0.171 A 
BRANCH   9  10
ATOM     10  O   UNL     1      -1.505  -4.091   0.645  0.00  0.00    -0.503 OA
ATOM     11  H   UNL     1      -1.369  -4.713   1.373  0.00  0.00    +0.292 HD
ENDBRANCH   9  10
BRANCH   8  12
ATOM     12  O   UNL     1      -2.173  -1.790   2.002  0.00  0.00    -0.503 OA
ATOM     13  H   UNL     1      -2.903  -1.453   1.464  0.00  0.00    +0.292 HD
ENDBRANCH   8  12
ENDBRANCH   2   4
BRANCH   1  14
ATOM     14  C   UNL     1       2.546  -5.689  -1.991  0.00  0.00    +0.183 C 
BRANCH  14  19
ATOM     15  C   UNL     1       6.327  -7.879   0.529  0.00  0.00    +0.086 C 
ATOM     16  C   UNL     1       4.934  -7.512   0.084  0.00  0.00    +0.102 A 
ATOM     17  C   UNL     1       3.791  -8.005   0.591  0.00  0.00    +0.045 A 
ATOM     18  C   UNL     1       2.731  -7.391  -0.115  0.00  0.00    +0.046 A 
ATOM     19  C   UNL     1       3.290  -6.560  -1.012  0.00  0.00    +0.122 A 
ATOM     20  O   UNL     1       4.625  -6.633  -0.883  0.00  0.00    -0.463 OA
ENDBRANCH  14  19
ENDBRANCH   1  14
BRANCH   1  21
ATOM     21  C   UNL     1       3.069  -3.301  -1.314  0.00  0.00    +0.193 C 
BRANCH  21  22
ATOM     22  C   UNL     1       2.497  -2.180  -2.143  0.00  0.00    -0.018 A 
ATOM     23  C   UNL     1       1.563  -2.454  -3.125  0.00  0.00    +0.006 A 
ATOM     24  C   UNL     1       1.038  -1.426  -3.885  0.00  0.00    +0.000 A 
ATOM     25  C   UNL     1       1.446  -0.124  -3.664  0.00  0.00    +0.000 A 
ATOM     26  C   UNL     1       2.380   0.150  -2.682  0.00  0.00    +0.000 A 
ATOM     27  C   UNL     1       2.902  -0.878  -1.919  0.00  0.00    +0.006 A 
ENDBRANCH  21  22
BRANCH  21  28
ATOM     28  C   UNL     1       4.400  -3.718  -1.884  0.00  0.00    +0.239 C 
ATOM     29  O   UNL     1       4.557  -4.849  -2.294  0.00  0.00    -0.273 OA
ATOM     30  N   UNL     1       5.417  -2.835  -1.939  0.00  0.00    -0.308 N 
ATOM     31  H   UNL     1       5.292  -1.931  -1.611  0.00  0.00    +0.149 HD
BRANCH  30  32
ATOM     32  C   UNL     1       6.711  -3.241  -2.493  0.00  0.00    +0.030 C 
ATOM     33  C   UNL     1       7.407  -4.194  -1.519  0.00  0.00    +0.031 C 
ATOM     34  C   UNL     1       6.493  -3.949  -3.831  0.00  0.00    +0.031 C 
BRANCH  32  35
ATOM     35  C   UNL     1       7.584  -2.003  -2.708  0.00  0.00    +0.031 C 
BRANCH  35  36
ATOM     36  C   UNL     1       6.733  -0.873  -3.289  0.00  0.00    -0.036 C 
ATOM     37  C   UNL     1       5.723  -0.404  -2.240  0.00  0.00    +0.010 C 
ATOM     38  C   UNL     1       7.638   0.296  -3.684  0.00  0.00    +0.010 C 
ATOM     39  C   UNL     1       5.987  -1.380  -4.524  0.00  0.00    +0.010 C 
ENDBRANCH  35  36
ENDBRANCH  32  35
ENDBRANCH  30  32
ENDBRANCH  21  28
ENDBRANCH   1  21
TORSDOF 11
