REMARK  Name = ZINC01213588
REMARK  5 active torsions:
REMARK  status: ('A' for Active; 'I' for Inactive)
REMARK    1  A    between atoms: C_1  and  C_2
REMARK    2  A    between atoms: C_2  and  O_3
REMARK    3  A    between atoms: O_3  and  C_4
REMARK    4  A    between atoms: C_9  and  C_10
REMARK    5  A    between atoms: C_15  and  C_20
REMARK                            x       y       z     vdW  Elec       q    Type
REMARK                         _______ _______ _______ _____ _____    ______ ____
ROOT
ATOM      1  C   UNL     1      -0.650   5.890  -1.243  0.00  0.00    +0.139 C 
ATOM      2  C   UNL     1      -2.113   5.568  -1.429  0.00  0.00    +0.037 C 
ATOM      3  C   UNL     1      -2.807   4.634  -0.756  0.00  0.00    +0.017 C 
ATOM      4  C   UNL     1      -4.284   4.416  -1.039  0.00  0.00    +0.059 C 
ATOM      5  C   UNL     1      -4.585   4.716  -2.506  0.00  0.00    +0.032 C 
ATOM      6  C   UNL     1      -4.197   6.175  -2.773  0.00  0.00    +0.088 C 
ATOM      7  C   UNL     1      -2.752   6.356  -2.416  0.00  0.00    +0.163 C 
ATOM      8  O   UNL     1      -2.106   7.208  -2.994  0.00  0.00    -0.292 OA
ATOM      9  N   UNL     1      -2.291   3.835   0.213  0.00  0.00    -0.316 N 
ATOM     10  C   UNL     1      -1.087   3.146   0.119  0.00  0.00    +0.052 A 
ATOM     11  C   UNL     1      -1.022   1.763   0.135  0.00  0.00    +0.025 A 
ATOM     12  C   UNL     1       0.216   1.143   0.122  0.00  0.00    +0.002 A 
ATOM     13  C   UNL     1       1.374   1.898   0.075  0.00  0.00    +0.002 A 
ATOM     14  C   UNL     1       1.308   3.280   0.026  0.00  0.00    +0.025 A 
ATOM     15  C   UNL     1       0.071   3.904   0.040  0.00  0.00    +0.049 A 
ATOM     16  N   UNL     1      -0.046   5.288  -0.074  0.00  0.00    -0.331 N 
ATOM     17  H   UNL     1      -2.801   3.737   1.032  0.00  0.00    +0.152 HD
ATOM     18  H   UNL     1       0.282   5.856   0.641  0.00  0.00    +0.147 HD
ENDROOT
BRANCH   5  19
ATOM     19  C   UNL     1      -6.054   4.519  -2.777  0.00  0.00    -0.040 A 
ATOM     20  C   UNL     1      -6.989   5.270  -2.088  0.00  0.00    +0.008 A 
ATOM     21  C   UNL     1      -8.338   5.093  -2.333  0.00  0.00    +0.050 A 
ATOM     22  C   UNL     1      -8.756   4.163  -3.271  0.00  0.00    +0.166 A 
ATOM     23  C   UNL     1      -7.815   3.406  -3.964  0.00  0.00    +0.166 A 
ATOM     24  C   UNL     1      -6.464   3.592  -3.717  0.00  0.00    +0.053 A 
ATOM     25  O   UNL     1      -8.472   2.571  -4.821  0.00  0.00    -0.453 OA
ATOM     26  C   UNL     1      -9.801   3.111  -4.940  0.00  0.00    +0.466 C 
ATOM     27  O   UNL     1     -10.003   3.801  -3.693  0.00  0.00    -0.453 OA
ENDBRANCH   5  19
BRANCH   1  33
ATOM     28  C   UNL     1       1.337   5.960  -2.771  0.00  0.00    +0.126 A 
ATOM     29  C   UNL     1       2.023   5.522  -3.896  0.00  0.00    +0.046 A 
ATOM     30  C   UNL     1       1.471   4.549  -4.705  0.00  0.00    +0.004 A 
ATOM     31  C   UNL     1       0.235   4.010  -4.396  0.00  0.00    +0.001 A 
ATOM     32  C   UNL     1      -0.448   4.440  -3.273  0.00  0.00    +0.009 A 
ATOM     33  C   UNL     1       0.098   5.418  -2.463  0.00  0.00    +0.019 A 
BRANCH  28  34
ATOM     34  O   UNL     1       1.878   6.917  -1.973  0.00  0.00    -0.492 OA
BRANCH  34  36
ATOM     35  C   UNL     1       3.601   8.490  -1.341  0.00  0.00    +0.048 C 
ATOM     36  C   UNL     1       3.157   7.430  -2.352  0.00  0.00    +0.225 C 
ENDBRANCH  34  36
ENDBRANCH  28  34
ENDBRANCH   1  33
TORSDOF 4
