REMARK  Name = ZINC12311195
REMARK  8 active torsions:
REMARK  status: ('A' for Active; 'I' for Inactive)
REMARK    1  A    between atoms: C_1  and  C_2
REMARK    2  A    between atoms: C_7  and  N_8
REMARK    3  A    between atoms: C_9  and  C_13
REMARK    4  A    between atoms: C_13  and  N_64
REMARK    5  A    between atoms: C_19  and  C_20
REMARK    6  A    between atoms: C_19  and  N_64
REMARK    7  A    between atoms: C_26  and  C_27
REMARK    8  A    between atoms: C_26  and  N_64
REMARK                            x       y       z     vdW  Elec       q    Type
REMARK                         _______ _______ _______ _____ _____    ______ ____
ROOT
ATOM      1  C   UNL     1       1.310   0.402  -0.963  0.00  0.00    -0.001 C 
ATOM      2  C   UNL     1      -0.074   0.866  -0.504  0.00  0.00    -0.004 C 
ATOM      3  C   UNL     1       0.077   2.018   0.490  0.00  0.00    -0.001 C 
ATOM      4  C   UNL     1       0.807   3.182  -0.184  0.00  0.00    -0.000 C 
ATOM      5  C   UNL     1       2.191   2.718  -0.643  0.00  0.00    -0.001 C 
ATOM      6  C   UNL     1       2.039   1.566  -1.638  0.00  0.00    -0.004 C 
ENDROOT
BRANCH   1   8
ATOM      7  N   UNL     1       0.528  -0.683  -3.135  0.00  0.00    -0.198 N 
ATOM      8  C   UNL     1       1.160  -0.733  -1.943  0.00  0.00    +0.146 A 
ATOM      9  N   UNL     1       1.623  -1.947  -1.799  0.00  0.00    -0.114 NA
ATOM     10  N   UNL     1       1.320  -2.671  -2.816  0.00  0.00    -0.023 NA
ATOM     11  N   UNL     1       0.657  -1.975  -3.675  0.00  0.00    -0.039 NA
BRANCH   7  18
ATOM     12  C   UNL     1      -0.655  -1.006  -5.704  0.00  0.00    +0.046 C 
ATOM     13  C   UNL     1      -0.707   0.305  -4.963  0.00  0.00    -0.025 A 
ATOM     14  C   UNL     1      -1.346   1.393  -5.527  0.00  0.00    +0.005 A 
ATOM     15  C   UNL     1      -1.389   2.598  -4.850  0.00  0.00    +0.000 A 
ATOM     16  C   UNL     1      -0.798   2.717  -3.605  0.00  0.00    +0.002 A 
ATOM     17  C   UNL     1      -0.163   1.631  -3.035  0.00  0.00    +0.028 A 
ATOM     18  C   UNL     1      -0.117   0.420  -3.712  0.00  0.00    +0.072 A 
ENDBRANCH   7  18
ENDBRANCH   1   8
BRANCH   1  19
ATOM     19  N   UNL     1       2.080  -0.034   0.221  0.00  0.00    +0.394 N 
ATOM     20  H   UNL     1       1.953   0.653   0.973  0.00  0.00    -0.079 HD
BRANCH  19  21
ATOM     21  C   UNL     1       1.592  -1.349   0.684  0.00  0.00    -0.041 C 
BRANCH  21  22
ATOM     22  C   UNL     1       1.894  -1.483   2.155  0.00  0.00    -0.064 A 
ATOM     23  C   UNL     1       3.140  -1.914   2.569  0.00  0.00    +0.002 A 
ATOM     24  C   UNL     1       3.418  -2.032   3.917  0.00  0.00    +0.000 A 
ATOM     25  C   UNL     1       2.447  -1.728   4.853  0.00  0.00    +0.000 A 
ATOM     26  C   UNL     1       1.198  -1.303   4.439  0.00  0.00    +0.000 A 
ATOM     27  C   UNL     1       0.922  -1.180   3.090  0.00  0.00    +0.002 A 
ENDBRANCH  21  22
ENDBRANCH  19  21
BRANCH  19  28
ATOM     28  C   UNL     1       3.517  -0.118  -0.115  0.00  0.00    -0.041 C 
BRANCH  28  29
ATOM     29  C   UNL     1       3.757  -1.191  -1.145  0.00  0.00    -0.064 A 
ATOM     30  C   UNL     1       3.892  -2.510  -0.751  0.00  0.00    +0.002 A 
ATOM     31  C   UNL     1       4.107  -3.495  -1.697  0.00  0.00    +0.000 A 
ATOM     32  C   UNL     1       4.198  -3.160  -3.035  0.00  0.00    +0.000 A 
ATOM     33  C   UNL     1       4.070  -1.841  -3.428  0.00  0.00    +0.000 A 
ATOM     34  C   UNL     1       3.849  -0.857  -2.483  0.00  0.00    +0.002 A 
ENDBRANCH  28  29
ENDBRANCH  19  28
ENDBRANCH   1  19
TORSDOF 7
