REMARK  Name = ZINC56787646
REMARK  6 active torsions:
REMARK  status: ('A' for Active; 'I' for Inactive)
REMARK    1  A    between atoms: C_3  and  N_12
REMARK    2  A    between atoms: C_6  and  C_7
REMARK    3  A    between atoms: N_15  and  C_16
REMARK    4  A    between atoms: C_16  and  C_17
REMARK    5  A    between atoms: C_17  and  C_19
REMARK    6  A    between atoms: C_17  and  O_27
REMARK                            x       y       z     vdW  Elec       q    Type
REMARK                         _______ _______ _______ _____ _____    ______ ____
ROOT
ATOM      1  N   UNL     1       3.583   2.133  -0.021  0.00  0.00    -0.269 N 
ATOM      2  C   UNL     1       4.758   1.479   0.066  0.00  0.00    +0.304 C 
ATOM      3  O   UNL     1       4.780   0.264   0.060  0.00  0.00    -0.253 OA
ATOM      4  N   UNL     1       5.910   2.173   0.160  0.00  0.00    -0.296 N 
ATOM      5  H   UNL     1       3.570   3.100  -0.094  0.00  0.00    +0.156 HD
ATOM      6  H   UNL     1       5.893   3.143   0.165  0.00  0.00    +0.150 HD
ENDROOT
BRANCH   1   9
ATOM      7  C   UNL     1       1.094  -0.457   0.759  0.00  0.00    +0.012 A 
ATOM      8  C   UNL     1       2.278   0.250   0.742  0.00  0.00    +0.024 A 
ATOM      9  C   UNL     1       2.381   1.416  -0.006  0.00  0.00    +0.035 A 
ATOM     10  C   UNL     1       1.292   1.872  -0.740  0.00  0.00    +0.024 A 
ATOM     11  C   UNL     1       0.107   1.168  -0.726  0.00  0.00    +0.012 A 
ATOM     12  C   UNL     1       0.001  -0.002   0.024  0.00  0.00    +0.003 A 
BRANCH  12  13
ATOM     13  C   UNL     1      -1.274  -0.762   0.039  0.00  0.00    +0.102 A 
ATOM     14  C   UNL     1      -2.378  -0.368  -0.666  0.00  0.00    +0.097 A 
ATOM     15  S   UNL     1      -3.485  -1.571  -0.283  0.00  0.00    +0.029 S 
ATOM     16  N   UNL     1      -2.571  -2.477   0.697  0.00  0.00    -0.110 NA
ATOM     17  N   UNL     1      -1.431  -1.879   0.732  0.00  0.00    -0.141 NA
ENDBRANCH  12  13
ENDBRANCH   1   9
BRANCH   4  18
ATOM     18  C   UNL     1       7.188   1.463   0.254  0.00  0.00    +0.141 C 
BRANCH  18  19
ATOM     19  C   UNL     1       8.329   2.477   0.349  0.00  0.00    +0.162 C 
BRANCH  19  20
ATOM     20  C   UNL     1       9.649   1.751   0.323  0.00  0.00    -0.015 A 
ATOM     21  C   UNL     1      10.129   1.147   1.471  0.00  0.00    +0.009 A 
ATOM     22  C   UNL     1      11.339   0.481   1.449  0.00  0.00    +0.041 A 
ATOM     23  C   UNL     1      12.073   0.417   0.277  0.00  0.00    +0.158 A 
ATOM     24  C   UNL     1      11.592   1.022  -0.874  0.00  0.00    +0.159 A 
ATOM     25  C   UNL     1      10.377   1.685  -0.850  0.00  0.00    +0.047 A 
ATOM     26  F   UNL     1      12.307   0.962  -2.019  0.00  0.00    -0.202 F 
ATOM     27  F   UNL     1      13.257  -0.234   0.255  0.00  0.00    -0.202 F 
ENDBRANCH  19  20
BRANCH  19  28
ATOM     28  O   UNL     1       8.214   3.211   1.570  0.00  0.00    -0.386 OA
ATOM     29  H   UNL     1       8.253   2.662   2.365  0.00  0.00    +0.210 HD
ENDBRANCH  19  28
ENDBRANCH  18  19
ENDBRANCH   4  18
TORSDOF 6
