REMARK  Name = ZINC06202265
REMARK  3 active torsions:
REMARK  status: ('A' for Active; 'I' for Inactive)
REMARK    1  A    between atoms: C_1  and  C_2
REMARK    2  A    between atoms: C_2  and  C_29
REMARK    3  A    between atoms: N_20  and  C_23
REMARK                            x       y       z     vdW  Elec       q    Type
REMARK                         _______ _______ _______ _____ _____    ______ ____
ROOT
ATOM      1  C   UNL     1      -1.782  -1.463  -1.296  0.00  0.00    +0.038 C 
ATOM      2  C   UNL     1      -1.247  -0.856   0.002  0.00  0.00    +0.073 C 
ATOM      3  C   UNL     1       0.110  -0.236  -0.242  0.00  0.00    +0.044 A 
ATOM      4  C   UNL     1       0.325   1.097  -0.276  0.00  0.00    -0.015 A 
ATOM      5  C   UNL     1       1.737   1.292  -0.540  0.00  0.00    +0.003 A 
ATOM      6  C   UNL     1       2.525   2.438  -0.683  0.00  0.00    +0.010 A 
ATOM      7  C   UNL     1       3.861   2.244  -0.934  0.00  0.00    +0.001 A 
ATOM      8  C   UNL     1       4.414   0.979  -1.042  0.00  0.00    +0.002 A 
ATOM      9  C   UNL     1       3.657  -0.172  -0.905  0.00  0.00    +0.026 A 
ATOM     10  C   UNL     1       2.297  -0.007  -0.649  0.00  0.00    +0.047 A 
ATOM     11  N   UNL     1       1.285  -0.903  -0.463  0.00  0.00    -0.356 N 
ATOM     12  H   UNL     1       1.383  -1.868  -0.483  0.00  0.00    +0.166 HD
ATOM     13  C   UNL     1      -0.739   2.144  -0.066  0.00  0.00    +0.069 C 
ATOM     14  C   UNL     1      -2.117   1.494  -0.256  0.00  0.00    +0.167 C 
ATOM     15  N   UNL     1      -2.150   0.221   0.463  0.00  0.00    -0.278 N 
ATOM     16  C   UNL     1      -2.949  -0.007   1.507  0.00  0.00    +0.234 C 
ATOM     17  O   UNL     1      -2.848  -1.074   2.075  0.00  0.00    -0.274 OA
ATOM     18  C   UNL     1      -3.962   0.963   2.022  0.00  0.00    +0.204 C 
ATOM     19  N   UNL     1      -4.000   2.183   1.234  0.00  0.00    -0.288 N 
ATOM     20  C   UNL     1      -3.183   2.431   0.212  0.00  0.00    +0.237 C 
ATOM     21  O   UNL     1      -3.312   3.484  -0.376  0.00  0.00    -0.274 OA
ATOM     22  C   UNL     1      -1.138  -1.938   1.078  0.00  0.00    +0.038 C 
ENDROOT
BRANCH  19  23
ATOM     23  C   UNL     1      -4.997   3.199   1.583  0.00  0.00    +0.077 C 
ATOM     24  C   UNL     1      -4.768   3.665   3.022  0.00  0.00    +0.022 C 
ATOM     25  C   UNL     1      -5.808   4.726   3.386  0.00  0.00    +0.002 C 
ATOM     26  C   UNL     1      -7.211   4.129   3.260  0.00  0.00    +0.000 C 
ATOM     27  C   UNL     1      -7.440   3.663   1.821  0.00  0.00    +0.002 C 
ATOM     28  C   UNL     1      -6.400   2.602   1.457  0.00  0.00    +0.022 C 
ENDBRANCH  19  23
TORSDOF 1
