REMARK  Name = ZINC23946470
REMARK  7 active torsions:
REMARK  status: ('A' for Active; 'I' for Inactive)
REMARK    1  A    between atoms: C_1  and  C_2
REMARK    2  A    between atoms: C_2  and  C_23
REMARK    3  A    between atoms: N_5  and  N_9
REMARK    4  A    between atoms: C_10  and  C_12
REMARK    5  A    between atoms: C_12  and  C_13
REMARK    6  A    between atoms: C_23  and  C_24
REMARK    7  A    between atoms: C_24  and  C_25
REMARK                            x       y       z     vdW  Elec       q    Type
REMARK                         _______ _______ _______ _____ _____    ______ ____
ROOT
ATOM      1  C   UNL     1      -0.013   1.086   0.008  0.00  0.00    +0.041 C 
ATOM      2  C   UNL     1      -0.729   1.579   1.267  0.00  0.00    +0.112 C 
ATOM      3  C   UNL     1      -0.654   3.090   1.365  0.00  0.00    +0.263 C 
ATOM      4  O   UNL     1      -1.103   3.898   0.580  0.00  0.00    -0.271 OA
ATOM      5  N   UNL     1       0.015   3.349   2.506  0.00  0.00    -0.137 N 
ATOM      6  C   UNL     1       0.371   2.223   3.135  0.00  0.00    +0.326 C 
ATOM      7  O   UNL     1       0.984   2.200   4.184  0.00  0.00    -0.251 OA
ATOM      8  N   UNL     1      -0.026   1.119   2.477  0.00  0.00    -0.284 N 
ATOM      9  H   UNL     1       0.078   0.042   2.676  0.00  0.00    +0.151 HD
ENDROOT
BRANCH   5  10
ATOM     10  N   UNL     1       0.304   4.637   2.974  0.00  0.00    -0.223 N 
ATOM     11  C   UNL     1       1.556   5.127   2.870  0.00  0.00    +0.234 C 
ATOM     12  O   UNL     1       2.432   4.452   2.372  0.00  0.00    -0.274 OA
ATOM     13  H   UNL     1      -0.490   5.249   3.426  0.00  0.00    +0.174 HD
BRANCH  11  14
ATOM     14  C   UNL     1       1.867   6.512   3.374  0.00  0.00    +0.134 C 
BRANCH  14  15
ATOM     15  C   UNL     1       3.324   6.816   3.142  0.00  0.00    -0.014 A 
ATOM     16  C   UNL     1       4.323   6.663   4.026  0.00  0.00    +0.087 A 
ATOM     17  N   UNL     1       5.510   7.038   3.459  0.00  0.00    -0.360 N 
ATOM     18  H   UNL     1       6.442   6.973   4.040  0.00  0.00    +0.165 HD
ATOM     19  C   UNL     1       5.298   7.461   2.166  0.00  0.00    +0.047 A 
ATOM     20  C   UNL     1       3.920   7.341   1.911  0.00  0.00    +0.003 A 
ATOM     21  C   UNL     1       3.408   7.701   0.663  0.00  0.00    +0.010 A 
ATOM     22  C   UNL     1       4.250   8.171  -0.306  0.00  0.00    +0.001 A 
ATOM     23  C   UNL     1       5.611   8.292  -0.059  0.00  0.00    +0.002 A 
ATOM     24  C   UNL     1       6.137   7.941   1.166  0.00  0.00    +0.026 A 
ENDBRANCH  14  15
ENDBRANCH  11  14
ENDBRANCH   5  10
BRANCH   2  25
ATOM     25  C   UNL     1      -2.184   1.107   1.276  0.00  0.00    +0.040 C 
BRANCH  25  26
ATOM     26  C   UNL     1      -2.224  -0.420   1.358  0.00  0.00    +0.038 C 
BRANCH  26  27
ATOM     27  C   UNL     1      -3.657  -0.886   1.367  0.00  0.00    -0.047 A 
ATOM     28  C   UNL     1      -4.326  -1.041   2.567  0.00  0.00    +0.003 A 
ATOM     29  C   UNL     1      -5.642  -1.463   2.576  0.00  0.00    +0.000 A 
ATOM     30  C   UNL     1      -6.287  -1.740   1.385  0.00  0.00    +0.000 A 
ATOM     31  C   UNL     1      -5.617  -1.590   0.185  0.00  0.00    +0.000 A 
ATOM     32  C   UNL     1      -4.302  -1.163   0.176  0.00  0.00    +0.003 A 
ENDBRANCH  26  27
ENDBRANCH  25  26
ENDBRANCH   2  25
TORSDOF 6
