REMARK  Name = ZINC43741113
REMARK  5 active torsions:
REMARK  status: ('A' for Active; 'I' for Inactive)
REMARK    1  A    between atoms: N_13  and  C_14
REMARK    2  A    between atoms: C_14  and  C_15
REMARK    3  A    between atoms: C_15  and  C_17
REMARK    4  A    between atoms: C_15  and  O_34
REMARK    5  A    between atoms: C_17  and  N_18
REMARK                            x       y       z     vdW  Elec       q    Type
REMARK                         _______ _______ _______ _____ _____    ______ ____
ROOT
ATOM      1  C   UNL     1       5.399  -0.374   1.387  0.00  0.00    +0.118 C 
ENDROOT
BRANCH   1   2
ATOM      2  O   UNL     1       5.345  -1.655   2.019  0.00  0.00    -0.392 OA
ATOM      3  H   UNL     1       5.880  -2.332   1.582  0.00  0.00    +0.210 HD
ENDBRANCH   1   2
BRANCH   1   4
ATOM      4  C   UNL     1       4.891  -0.493  -0.051  0.00  0.00    +0.151 C 
BRANCH   4  17
ATOM      5  C   UNL     1      -0.017   1.374   0.010  0.00  0.00    +0.001 A 
ATOM      6  C   UNL     1       1.171   2.089   0.002  0.00  0.00    +0.002 A 
ATOM      7  C   UNL     1       2.384   1.433  -0.013  0.00  0.00    +0.026 A 
ATOM      8  C   UNL     1       2.423   0.042  -0.022  0.00  0.00    +0.050 A 
ATOM      9  C   UNL     1       1.220  -0.680  -0.014  0.00  0.00    +0.008 A 
ATOM     10  C   UNL     1       0.002  -0.004   0.002  0.00  0.00    +0.010 A 
ATOM     11  C   UNL     1       1.589  -2.107  -0.026  0.00  0.00    +0.008 A 
ATOM     12  C   UNL     1       0.850  -3.288  -0.027  0.00  0.00    +0.010 A 
ATOM     13  C   UNL     1       1.501  -4.503  -0.041  0.00  0.00    +0.001 A 
ATOM     14  C   UNL     1       2.886  -4.553  -0.056  0.00  0.00    +0.002 A 
ATOM     15  C   UNL     1       3.629  -3.393  -0.056  0.00  0.00    +0.026 A 
ATOM     16  C   UNL     1       2.990  -2.156  -0.041  0.00  0.00    +0.050 A 
ATOM     17  N   UNL     1       3.472  -0.859  -0.038  0.00  0.00    -0.337 N 
ENDBRANCH   4  17
ENDBRANCH   1   4
BRANCH   1  18
ATOM     18  C   UNL     1       6.844   0.129   1.377  0.00  0.00    -0.045 C 
BRANCH  18  19
ATOM     19  N   UNL     1       7.333   0.242   2.758  0.00  0.00    +0.382 N 
ATOM     20  C   UNL     1       8.754   0.600   2.744  0.00  0.00    -0.074 C 
ATOM     21  C   UNL     1       9.302   0.732   4.157  0.00  0.00    -0.007 C 
ATOM     22  C   UNL     1       8.490   1.752   4.960  0.00  0.00    +0.011 C 
ATOM     23  C   UNL     1       7.026   1.298   4.931  0.00  0.00    +0.020 C 
ATOM     24  C   UNL     1       6.565   1.278   3.464  0.00  0.00    -0.069 C 
ATOM     25  C   UNL     1       6.935  -0.114   5.467  0.00  0.00    +0.023 A 
ATOM     26  C   UNL     1       5.776  -0.482   6.074  0.00  0.00    +0.022 A 
ATOM     27  C   UNL     1       5.600  -1.791   6.536  0.00  0.00    +0.007 A 
ATOM     28  C   UNL     1       6.602  -2.697   6.344  0.00  0.00    +0.070 A 
ATOM     29  C   UNL     1       7.783  -2.285   5.712  0.00  0.00    +0.251 A 
ATOM     30  O   UNL     1       8.660  -3.102   5.479  0.00  0.00    -0.268 OA
ATOM     31  N   UNL     1       7.960  -0.990   5.355  0.00  0.00    -0.312 N 
ATOM     32  C   UNL     1       9.289  -0.598   4.893  0.00  0.00    +0.126 C 
ATOM     33  H   UNL     1       7.216  -0.642   3.229  0.00  0.00    -0.082 HD
ENDBRANCH  18  19
ENDBRANCH   1  18
TORSDOF 5
