REMARK  Name = ZINC12603026
REMARK  6 active torsions:
REMARK  status: ('A' for Active; 'I' for Inactive)
REMARK    1  A    between atoms: C_1  and  O_2
REMARK    2  A    between atoms: O_2  and  C_3
REMARK    3  A    between atoms: C_3  and  C_5
REMARK    4  A    between atoms: C_21  and  C_34
REMARK    5  A    between atoms: C_24  and  N_27
REMARK    6  A    between atoms: C_30  and  O_33
REMARK                            x       y       z     vdW  Elec       q    Type
REMARK                         _______ _______ _______ _____ _____    ______ ____
ROOT
ATOM      1  C   UNL     1      -1.103  -2.139  -0.062  0.00  0.00    +0.172 C 
ATOM      2  C   UNL     1      -0.538  -2.679  -1.384  0.00  0.00    +0.068 C 
ATOM      3  C   UNL     1      -0.886  -4.143  -1.481  0.00  0.00    -0.016 A 
ATOM      4  C   UNL     1      -0.338  -5.158  -2.352  0.00  0.00    +0.003 A 
ATOM      5  C   UNL     1       0.647  -5.129  -3.344  0.00  0.00    +0.010 A 
ATOM      6  C   UNL     1       0.918  -6.312  -3.986  0.00  0.00    +0.001 A 
ATOM      7  C   UNL     1       0.254  -7.487  -3.674  0.00  0.00    +0.002 A 
ATOM      8  C   UNL     1      -0.724  -7.545  -2.697  0.00  0.00    +0.026 A 
ATOM      9  C   UNL     1      -1.020  -6.360  -2.028  0.00  0.00    +0.047 A 
ATOM     10  N   UNL     1      -1.909  -6.068  -1.032  0.00  0.00    -0.356 N 
ATOM     11  H   UNL     1      -2.510  -6.705  -0.617  0.00  0.00    +0.166 HD
ATOM     12  C   UNL     1      -1.822  -4.741  -0.708  0.00  0.00    +0.038 A 
ATOM     13  C   UNL     1      -2.616  -3.999   0.338  0.00  0.00    +0.103 C 
ATOM     14  N   UNL     1      -2.502  -2.556   0.079  0.00  0.00    -0.274 NA
ATOM     15  C   UNL     1      -3.200  -1.781   1.111  0.00  0.00    +0.087 C 
ATOM     16  C   UNL     1      -4.691  -2.124   1.078  0.00  0.00    +0.008 C 
ATOM     17  C   UNL     1      -4.877  -3.624   1.318  0.00  0.00    -0.065 C 
ATOM     18  C   UNL     1      -4.086  -4.415   0.271  0.00  0.00    +0.010 C 
ENDROOT
BRANCH  15  19
ATOM     19  C   UNL     1      -2.634  -2.123   2.466  0.00  0.00    -0.027 A 
ATOM     20  C   UNL     1      -3.197  -1.581   3.606  0.00  0.00    +0.007 A 
ATOM     21  C   UNL     1      -2.679  -1.894   4.849  0.00  0.00    +0.023 A 
ATOM     22  C   UNL     1      -1.598  -2.750   4.953  0.00  0.00    +0.076 A 
ATOM     23  C   UNL     1      -1.034  -3.294   3.811  0.00  0.00    +0.142 A 
ATOM     24  C   UNL     1      -1.557  -2.983   2.567  0.00  0.00    +0.045 A 
ATOM     25  F   UNL     1       0.023  -4.129   3.910  0.00  0.00    -0.204 F 
ATOM     26 CL   UNL     1      -0.947  -3.142   6.514  0.00  0.00    -0.081 Cl
ENDBRANCH  15  19
BRANCH  17  27
ATOM     27  N   UNL     1      -4.385  -3.970   2.658  0.00  0.00    +0.383 N 
ATOM     28  C   UNL     1      -4.430  -5.437   2.842  0.00  0.00    -0.076 C 
ATOM     29  C   UNL     1      -4.819  -5.638   4.328  0.00  0.00    +0.011 C 
ATOM     30  C   UNL     1      -5.825  -4.478   4.548  0.00  0.00    +0.096 C 
ATOM     31  C   UNL     1      -5.243  -3.342   3.680  0.00  0.00    -0.047 C 
ATOM     32  H   UNL     1      -3.435  -3.646   2.767  0.00  0.00    -0.081 HD
BRANCH  30  33
ATOM     33  O   UNL     1      -5.863  -4.097   5.925  0.00  0.00    -0.394 OA
ATOM     34  H   UNL     1      -6.152  -4.802   6.520  0.00  0.00    +0.210 HD
ENDBRANCH  30  33
ENDBRANCH  17  27
BRANCH   1  35
ATOM     35  C   UNL     1      -1.025  -0.634  -0.061  0.00  0.00    +0.325 C 
ATOM     36  O   UNL     1      -0.046  -0.079   0.379  0.00  0.00    -0.249 OA
BRANCH  35  38
ATOM     37  C   UNL     1      -1.903   1.513  -0.516  0.00  0.00    +0.280 C 
ATOM     38  O   UNL     1      -2.044   0.091  -0.549  0.00  0.00    -0.467 OA
ENDBRANCH  35  38
ENDBRANCH   1  35
TORSDOF 5
