REMARK  Name = ZINC02245956
REMARK  8 active torsions:
REMARK  status: ('A' for Active; 'I' for Inactive)
REMARK    1  A    between atoms: C_1  and  C_2
REMARK    2  A    between atoms: C_2  and  C_3
REMARK    3  A    between atoms: C_3  and  C_4
REMARK    4  A    between atoms: C_4  and  C_5
REMARK    5  A    between atoms: C_5  and  N_6
REMARK    6  A    between atoms: C_7  and  N_27
REMARK    7  A    between atoms: C_8  and  C_19
REMARK    8  A    between atoms: N_21  and  C_22
REMARK                            x       y       z     vdW  Elec       q    Type
REMARK                         _______ _______ _______ _____ _____    ______ ____
ROOT
ATOM      1  N   UNL     1      -3.161   3.105  -0.698  0.00  0.00    -0.312 N 
ATOM      2  C   UNL     1      -2.023   2.469  -1.089  0.00  0.00    +0.112 A 
ATOM      3  C   UNL     1      -1.292   2.057   0.019  0.00  0.00    +0.103 A 
ATOM      4  C   UNL     1      -2.058   2.475   1.204  0.00  0.00    +0.122 A 
ATOM      5  C   UNL     1      -3.248   3.150   0.678  0.00  0.00    +0.162 A 
ATOM      6  N   UNL     1      -4.135   3.644   1.516  0.00  0.00    -0.226 NA
ATOM      7  C   UNL     1      -3.948   3.517   2.836  0.00  0.00    +0.092 A 
ATOM      8  C   UNL     1      -4.894   4.038   3.739  0.00  0.00    +0.030 A 
ATOM      9  C   UNL     1      -4.692   3.913   5.078  0.00  0.00    +0.002 A 
ATOM     10  C   UNL     1      -3.558   3.274   5.576  0.00  0.00    +0.002 A 
ATOM     11  C   UNL     1      -2.621   2.758   4.735  0.00  0.00    +0.030 A 
ATOM     12  C   UNL     1      -2.795   2.868   3.342  0.00  0.00    +0.090 A 
ATOM     13  N   UNL     1      -1.880   2.364   2.506  0.00  0.00    -0.241 NA
ENDROOT
BRANCH   3  14
ATOM     14  C   UNL     1      -0.016   1.344   0.009  0.00  0.00    +0.250 C 
ATOM     15  O   UNL     1       1.030   1.967   0.003  0.00  0.00    -0.270 OA
ATOM     16  N   UNL     1       0.002  -0.004   0.002  0.00  0.00    -0.308 N 
ATOM     17  H   UNL     1      -0.831  -0.500   0.007  0.00  0.00    +0.149 HD
BRANCH  16  18
ATOM     18  C   UNL     1       1.281  -0.719  -0.014  0.00  0.00    +0.073 C 
ATOM     19  C   UNL     1       1.755  -0.922  -1.468  0.00  0.00    +0.022 C 
ATOM     20  C   UNL     1       2.407  -2.326  -1.463  0.00  0.00    +0.002 C 
ATOM     21  C   UNL     1       1.481  -3.130  -0.516  0.00  0.00    +0.002 C 
ATOM     22  C   UNL     1       1.107  -2.123   0.591  0.00  0.00    +0.022 C 
ENDBRANCH  16  18
ENDBRANCH   3  14
BRANCH   2  23
ATOM     23  N   UNL     1      -1.651   2.264  -2.392  0.00  0.00    -0.344 N 
ATOM     24  H   UNL     1      -0.822   1.801  -2.592  0.00  0.00    +0.144 HD
ATOM     25  H   UNL     1      -2.215   2.583  -3.114  0.00  0.00    +0.144 HD
ENDBRANCH   2  23
BRANCH   1  26
ATOM     26  C   UNL     1      -4.159   3.664  -1.613  0.00  0.00    +0.125 C 
BRANCH  26  27
ATOM     27  C   UNL     1      -5.210   2.600  -1.935  0.00  0.00    +0.022 C 
BRANCH  27  28
ATOM     28  C   UNL     1      -6.251   3.185  -2.891  0.00  0.00    +0.001 C 
BRANCH  28  30
ATOM     29  C   UNL     1      -8.344   2.705  -4.169  0.00  0.00    +0.004 C 
ATOM     30  C   UNL     1      -7.302   2.120  -3.213  0.00  0.00    -0.003 C 
ENDBRANCH  28  30
ENDBRANCH  27  28
ENDBRANCH  26  27
ENDBRANCH   1  26
TORSDOF 7
