REMARK  Name = ZINC39697651
REMARK  6 active torsions:
REMARK  status: ('A' for Active; 'I' for Inactive)
REMARK    1  A    between atoms: C_1  and  C_2
REMARK    2  A    between atoms: C_9  and  C_14
REMARK    3  A    between atoms: C_14  and  C_15
REMARK    4  A    between atoms: C_15  and  C_17
REMARK    5  A    between atoms: C_15  and  C_19
REMARK    6  A    between atoms: N_21  and  C_22
REMARK                            x       y       z     vdW  Elec       q    Type
REMARK                         _______ _______ _______ _____ _____    ______ ____
ROOT
ATOM      1  C   UNL     1       1.318  -4.874   2.937  0.00  0.00    +0.044 C 
ENDROOT
BRANCH   1  10
ATOM      2  C   UNL     1      -0.029   1.500   0.010  0.00  0.00    +0.044 C 
ATOM      3  C   UNL     1      -0.011  -0.007   0.004  0.00  0.00    -0.050 A 
ATOM      4  C   UNL     1      -0.018  -0.686  -1.215  0.00  0.00    +0.005 A 
ATOM      5  C   UNL     1      -0.002  -2.042  -1.299  0.00  0.00    +0.024 A 
ATOM      6  C   UNL     1       0.021  -2.830  -0.133  0.00  0.00    +0.040 A 
ATOM      7  N   UNL     1       0.037  -4.159  -0.228  0.00  0.00    -0.285 N 
ATOM      8  C   UNL     1       0.059  -4.958   0.826  0.00  0.00    +0.224 C 
ATOM      9  O   UNL     1       0.072  -6.165   0.677  0.00  0.00    -0.275 OA
ATOM     10  C   UNL     1       0.068  -4.364   2.217  0.00  0.00    +0.100 C 
ATOM     11  C   UNL     1       0.051  -2.853   2.330  0.00  0.00    -0.005 C 
ATOM     12  C   UNL     1       0.028  -2.139   1.168  0.00  0.00    -0.007 A 
ATOM     13  C   UNL     1       0.016  -0.676   1.186  0.00  0.00    +0.012 A 
ATOM     14  H   UNL     1       0.032  -4.560  -1.111  0.00  0.00    +0.155 HD
ENDBRANCH   1  10
BRANCH   1  15
ATOM     15  C   UNL     1       1.217  -6.389   3.123  0.00  0.00    +0.178 C 
BRANCH  15  16
ATOM     16  C   UNL     1       2.499  -6.909   3.720  0.00  0.00    +0.234 C 
ATOM     17  O   UNL     1       3.405  -6.142   3.972  0.00  0.00    -0.274 OA
ATOM     18  N   UNL     1       2.640  -8.225   3.975  0.00  0.00    -0.284 N 
ATOM     19  H   UNL     1       1.893  -8.828   3.836  0.00  0.00    +0.155 HD
BRANCH  18  20
ATOM     20  C   UNL     1       3.865  -8.721   4.439  0.00  0.00    +0.034 A 
ATOM     21  C   UNL     1       4.302  -9.977   4.039  0.00  0.00    +0.026 A 
ATOM     22  C   UNL     1       5.510 -10.465   4.498  0.00  0.00    +0.040 A 
ATOM     23  C   UNL     1       6.284  -9.702   5.356  0.00  0.00    +0.124 A 
ATOM     24  C   UNL     1       5.850  -8.450   5.756  0.00  0.00    +0.040 A 
ATOM     25  C   UNL     1       4.646  -7.956   5.295  0.00  0.00    +0.026 A 
ATOM     26  F   UNL     1       7.465 -10.182   5.805  0.00  0.00    -0.205 F 
ENDBRANCH  18  20
ENDBRANCH  15  16
BRANCH  15  27
ATOM     27  C   UNL     1       0.095  -6.699   4.024  0.00  0.00    +0.075 C 
ATOM     28  N   UNL     1      -0.771  -6.939   4.720  0.00  0.00    -0.196 NA
ENDBRANCH  15  27
ENDBRANCH   1  15
TORSDOF 5
