REMARK  Name = ZINC20970352
REMARK  7 active torsions:
REMARK  status: ('A' for Active; 'I' for Inactive)
REMARK    1  A    between atoms: C_6  and  C_7
REMARK    2  A    between atoms: C_7  and  O_8
REMARK    3  A    between atoms: O_8  and  C_9
REMARK    4  A    between atoms: C_9  and  C_11
REMARK    5  A    between atoms: C_11  and  C_12
REMARK    6  A    between atoms: C_12  and  C_14
REMARK    7  A    between atoms: C_12  and  N_21
REMARK                            x       y       z     vdW  Elec       q    Type
REMARK                         _______ _______ _______ _____ _____    ______ ____
ROOT
ATOM      1  C   UNL     1       1.453  -0.498  -0.017  0.00  0.00    +0.115 C 
ENDROOT
BRANCH   1   2
ATOM      2  C   UNL     1       1.262  -1.992   0.047  0.00  0.00    -0.027 A 
ATOM      3  C   UNL     1       0.205  -2.524   0.760  0.00  0.00    +0.007 A 
ATOM      4  C   UNL     1       0.027  -3.893   0.814  0.00  0.00    +0.020 A 
ATOM      5  C   UNL     1       0.913  -4.732   0.163  0.00  0.00    +0.041 A 
ATOM      6  C   UNL     1       1.975  -4.199  -0.547  0.00  0.00    +0.020 A 
ATOM      7  C   UNL     1       2.149  -2.829  -0.605  0.00  0.00    +0.007 A 
ATOM      8 CL   UNL     1       0.694  -6.453   0.236  0.00  0.00    -0.084 Cl
ENDBRANCH   1   2
BRANCH   1   9
ATOM      9  N   UNL     1       1.992  -0.130  -1.328  0.00  0.00    -0.292 N 
ATOM     10  C   UNL     1       1.335  -0.484  -2.450  0.00  0.00    +0.298 C 
ATOM     11  O   UNL     1       0.249  -1.026  -2.374  0.00  0.00    -0.253 OA
ATOM     12  N   UNL     1       1.881  -0.237  -3.657  0.00  0.00    -0.313 N 
ATOM     13  H   UNL     1       2.933   0.436  -1.397  0.00  0.00    +0.151 HD
ATOM     14  H   UNL     1       1.345  -0.526  -4.573  0.00  0.00    +0.146 HD
ATOM     15  H   UNL     1       2.864   0.253  -3.727  0.00  0.00    +0.146 HD
ENDBRANCH   1   9
BRANCH   1  16
ATOM     16  C   UNL     1       0.106   0.197   0.195  0.00  0.00    +0.147 C 
BRANCH  16  17
ATOM     17  C   UNL     1       0.315   1.688   0.254  0.00  0.00    +0.310 C 
ATOM     18  O   UNL     1       1.426   2.148   0.139  0.00  0.00    -0.251 OA
BRANCH  17  19
ATOM     19  O   UNL     1      -0.735   2.506   0.430  0.00  0.00    -0.460 OA
BRANCH  19  20
ATOM     20  C   UNL     1      -0.460   3.931   0.477  0.00  0.00    +0.267 C 
BRANCH  20  26
ATOM     21  C   UNL     1      -2.482   5.104  -0.417  0.00  0.00    +0.010 A 
ATOM     22  C   UNL     1      -3.667   5.791  -0.233  0.00  0.00    +0.039 A 
ATOM     23  C   UNL     1      -4.114   6.070   1.047  0.00  0.00    +0.123 A 
ATOM     24  C   UNL     1      -3.376   5.655   2.143  0.00  0.00    +0.039 A 
ATOM     25  C   UNL     1      -2.194   4.963   1.957  0.00  0.00    +0.010 A 
ATOM     26  C   UNL     1      -1.749   4.685   0.678  0.00  0.00    -0.010 A 
ATOM     27  F   UNL     1      -5.270   6.746   1.227  0.00  0.00    -0.205 F 
ENDBRANCH  20  26
ENDBRANCH  19  20
ENDBRANCH  17  19
ENDBRANCH  16  17
ENDBRANCH   1  16
TORSDOF 7
