REMARK  Name = ZINC66598932
REMARK  11 active torsions:
REMARK  status: ('A' for Active; 'I' for Inactive)
REMARK    1  A    between atoms: C_1  and  C_2
REMARK    2  A    between atoms: C_3  and  C_7
REMARK    3  A    between atoms: N_9  and  N_10
REMARK    4  A    between atoms: N_13  and  C_14
REMARK    5  A    between atoms: C_14  and  C_15
REMARK    6  A    between atoms: C_15  and  O_16
REMARK    7  A    between atoms: O_16  and  C_17
REMARK    8  A    between atoms: C_22  and  C_23
REMARK    9  A    between atoms: C_23  and  C_24
REMARK   10  A    between atoms: C_23  and  C_25
REMARK   11  A    between atoms: C_23  and  C_26
REMARK                            x       y       z     vdW  Elec       q    Type
REMARK                         _______ _______ _______ _____ _____    ______ ____
ROOT
ATOM      1  N   UNL     1      -0.013  -0.681  -4.902  0.00  0.00    -0.218 N 
ATOM      2  C   UNL     1      -0.006  -1.568  -5.918  0.00  0.00    +0.316 C 
ATOM      3  O   UNL     1      -0.017  -1.175  -7.068  0.00  0.00    -0.251 OA
ATOM      4  N   UNL     1       0.013  -2.890  -5.657  0.00  0.00    -0.295 N 
ATOM      5  H   UNL     1      -0.027   0.270  -5.090  0.00  0.00    +0.174 HD
ATOM      6  H   UNL     1       0.022  -3.204  -4.739  0.00  0.00    +0.150 HD
ENDROOT
BRANCH   1   9
ATOM      7  C   UNL     1      -0.007  -0.248  -2.562  0.00  0.00    +0.269 C 
ATOM      8  O   UNL     1      -0.025   0.946  -2.797  0.00  0.00    -0.268 OA
ATOM      9  N   UNL     1      -0.000  -1.134  -3.577  0.00  0.00    -0.229 N 
ATOM     10  H   UNL     1       0.013  -2.086  -3.389  0.00  0.00    +0.173 HD
BRANCH   7  13
ATOM     11  C   UNL     1      -0.018   1.503   0.010  0.00  0.00    +0.067 C 
ATOM     12  C   UNL     1       0.002  -0.004   0.002  0.00  0.00    +0.058 A 
ATOM     13  C   UNL     1       0.006  -0.722  -1.174  0.00  0.00    +0.098 A 
ATOM     14  S   UNL     1       0.032  -2.390  -0.537  0.00  0.00    -0.071 S 
ATOM     15  C   UNL     1       0.035  -2.012   1.103  0.00  0.00    +0.156 A 
ATOM     16  N   UNL     1       0.022  -0.699   1.113  0.00  0.00    -0.252 NA
ENDBRANCH   7  13
ENDBRANCH   1   9
BRANCH   4  17
ATOM     17  C   UNL     1       0.021  -3.854  -6.761  0.00  0.00    +0.146 C 
BRANCH  17  18
ATOM     18  C   UNL     1       0.043  -5.276  -6.196  0.00  0.00    +0.248 C 
BRANCH  18  19
ATOM     19  O   UNL     1      -1.171  -5.525  -5.485  0.00  0.00    -0.490 OA
BRANCH  19  20
ATOM     20  C   UNL     1      -1.313  -6.751  -4.917  0.00  0.00    +0.124 A 
ATOM     21  C   UNL     1      -0.302  -7.694  -5.036  0.00  0.00    +0.046 A 
ATOM     22  C   UNL     1      -0.449  -8.939  -4.457  0.00  0.00    +0.004 A 
ATOM     23  C   UNL     1      -1.602  -9.247  -3.760  0.00  0.00    +0.001 A 
ATOM     24  C   UNL     1      -2.611  -8.310  -3.639  0.00  0.00    +0.008 A 
ATOM     25  C   UNL     1      -2.467  -7.061  -4.212  0.00  0.00    -0.000 A 
BRANCH  25  26
ATOM     26  C   UNL     1      -3.565  -6.037  -4.075  0.00  0.00    -0.009 C 
ATOM     27  C   UNL     1      -4.715  -6.629  -3.257  0.00  0.00    +0.015 C 
ATOM     28  C   UNL     1      -3.020  -4.796  -3.365  0.00  0.00    +0.015 C 
ATOM     29  C   UNL     1      -4.075  -5.648  -5.464  0.00  0.00    +0.015 C 
ENDBRANCH  25  26
ENDBRANCH  19  20
ENDBRANCH  18  19
ENDBRANCH  17  18
ENDBRANCH   4  17
TORSDOF 7
