REMARK  Name = ZINC20275558
REMARK  8 active torsions:
REMARK  status: ('A' for Active; 'I' for Inactive)
REMARK    1  A    between atoms: C_1  and  C_2
REMARK    2  A    between atoms: C_17  and  C_29
REMARK    3  A    between atoms: C_22  and  C_23
REMARK    4  A    between atoms: C_22  and  O_28
REMARK    5  A    between atoms: C_23  and  S_24
REMARK    6  A    between atoms: S_24  and  C_25
REMARK    7  A    between atoms: C_25  and  C_26
REMARK    8  A    between atoms: C_26  and  N_27
REMARK                            x       y       z     vdW  Elec       q    Type
REMARK                         _______ _______ _______ _____ _____    ______ ____
ROOT
ATOM      1  C   UNL     1       1.075   2.698   2.339  0.00  0.00    +0.012 C 
ATOM      2  C   UNL     1       0.150   1.482   2.464  0.00  0.00    -0.026 C 
ATOM      3  C   UNL     1       1.126   0.355   2.441  0.00  0.00    +0.007 C 
ATOM      4  C   UNL     1       1.717  -0.046   3.775  0.00  0.00    +0.001 C 
ATOM      5  C   UNL     1       0.677   0.002   4.888  0.00  0.00    +0.000 C 
ATOM      6  C   UNL     1       0.128   1.423   4.997  0.00  0.00    +0.004 C 
ATOM      7  C   UNL     1      -0.590   1.808   3.713  0.00  0.00    -0.005 C 
ATOM      8  C   UNL     1      -2.040   1.362   3.777  0.00  0.00    +0.004 C 
ATOM      9  C   UNL     1      -2.788   1.592   2.462  0.00  0.00    +0.004 C 
ATOM     10  C   UNL     1      -2.000   0.891   1.363  0.00  0.00    -0.004 C 
ATOM     11  C   UNL     1      -0.663   1.616   1.197  0.00  0.00    -0.001 C 
ATOM     12  C   UNL     1       0.026   1.118  -0.061  0.00  0.00    +0.005 C 
ATOM     13  C   UNL     1      -0.740   1.605  -1.307  0.00  0.00    +0.010 C 
ATOM     14  C   UNL     1      -2.211   1.724  -1.022  0.00  0.00    +0.001 C 
ATOM     15  C   UNL     1      -2.694   0.728   0.051  0.00  0.00    +0.001 C 
ATOM     16  C   UNL     1      -4.215   0.952   0.033  0.00  0.00    +0.007 C 
ATOM     17  C   UNL     1      -4.534   1.187  -1.468  0.00  0.00    +0.036 C 
ATOM     18  C   UNL     1      -3.170   1.391  -2.181  0.00  0.00    +0.081 C 
ATOM     19  C   UNL     1      -2.543   3.174  -0.622  0.00  0.00    +0.014 C 
ENDROOT
BRANCH  18  20
ATOM     20  O   UNL     1      -3.241   2.497  -3.081  0.00  0.00    -0.387 OA
ATOM     21  H   UNL     1      -3.881   2.440  -3.973  0.00  0.00    +0.210 HD
ENDBRANCH  18  20
BRANCH  18  22
ATOM     22  C   UNL     1      -2.766   0.118  -2.915  0.00  0.00    +0.104 C 
BRANCH  22  23
ATOM     23  S   UNL     1      -4.019  -0.285  -4.162  0.00  0.00    -0.160 S 
BRANCH  23  24
ATOM     24  C   UNL     1      -3.397  -1.804  -4.935  0.00  0.00    +0.050 C 
BRANCH  24  25
ATOM     25  C   UNL     1      -4.373  -2.260  -6.021  0.00  0.00    -0.076 C 
BRANCH  25  26
ATOM     26  N   UNL     1      -3.869  -3.490  -6.647  0.00  0.00    +0.379 N 
ATOM     27  H   UNL     1      -4.571  -3.818  -7.428  0.00  0.00    -0.090 HD
ATOM     28  H   UNL     1      -3.775  -4.277  -5.884  0.00  0.00    -0.090 HD
ATOM     29  H   UNL     1      -2.884  -3.296  -7.096  0.00  0.00    -0.090 HD
ENDBRANCH  25  26
ENDBRANCH  24  25
ENDBRANCH  23  24
ENDBRANCH  22  23
ENDBRANCH  18  22
TORSDOF 6
