REMARK  Name = ZINC56060320
REMARK  3 active torsions:
REMARK  status: ('A' for Active; 'I' for Inactive)
REMARK    1  A    between atoms: C_10  and  N_13
REMARK    2  A    between atoms: N_13  and  S_14
REMARK    3  A    between atoms: S_14  and  C_17
REMARK                            x       y       z     vdW  Elec       q    Type
REMARK                         _______ _______ _______ _____ _____    ______ ____
ROOT
ATOM      1  C   UNL     1      -0.017   1.379  -0.017  0.00  0.00    +0.005 A 
ATOM      2  C   UNL     1       1.195   2.058   0.002  0.00  0.00    +0.018 A 
ATOM      3  C   UNL     1       2.373   1.339   0.013  0.00  0.00    +0.084 A 
ATOM      4  N   UNL     1       2.361   0.020   0.005  0.00  0.00    -0.350 N 
ATOM      5  C   UNL     1       1.227  -0.664  -0.014  0.00  0.00    +0.099 A 
ATOM      6  C   UNL     1       0.002  -0.004  -0.024  0.00  0.00    +0.042 A 
ATOM      7  N   UNL     1       1.260  -2.054  -0.022  0.00  0.00    -0.317 N 
ATOM      8  C   UNL     1       2.537  -2.771  -0.142  0.00  0.00    +0.108 C 
ATOM      9  C   UNL     1       2.654  -3.767   1.016  0.00  0.00    +0.039 C 
ATOM     10  C   UNL     1       1.422  -4.675   1.029  0.00  0.00    +0.079 C 
ATOM     11  C   UNL     1       0.165  -3.829   1.245  0.00  0.00    +0.039 C 
ATOM     12  C   UNL     1       0.021  -2.833   0.096  0.00  0.00    +0.108 C 
ATOM     13  H   UNL     1       3.203  -0.461   0.012  0.00  0.00    +0.166 HD
ENDROOT
BRANCH  10  14
ATOM     14  N   UNL     1       1.546  -5.650   2.115  0.00  0.00    -0.186 NA
ATOM     15  H   UNL     1       1.973  -5.397   2.948  0.00  0.00    +0.148 HD
BRANCH  14  16
ATOM     16  S   UNL     1       0.956  -7.185   1.921  0.00  0.00    +0.065 S 
ATOM     17  O   UNL     1       1.249  -7.888   3.121  0.00  0.00    -0.153 OA
ATOM     18  O   UNL     1      -0.366  -7.052   1.419  0.00  0.00    -0.153 OA
BRANCH  16  19
ATOM     19  C   UNL     1       1.904  -7.949   0.646  0.00  0.00    +0.144 A 
ATOM     20  C   UNL     1       3.042  -8.677   0.749  0.00  0.00    +0.038 A 
ATOM     21  C   UNL     1       3.619  -9.186  -0.399  0.00  0.00    +0.030 A 
ATOM     22  C   UNL     1       3.028  -8.941  -1.596  0.00  0.00    +0.080 A 
ATOM     23  S   UNL     1       1.608  -7.972  -1.114  0.00  0.00    -0.057 S 
ATOM     24 CL   UNL     1       3.520  -9.446  -3.182  0.00  0.00    -0.076 Cl
ENDBRANCH  16  19
ENDBRANCH  14  16
ENDBRANCH  10  14
TORSDOF 3
