REMARK  Name = ZINC13151046
REMARK  13 active torsions:
REMARK  status: ('A' for Active; 'I' for Inactive)
REMARK    1  A    between atoms: C_1  and  C_2
REMARK    2  A    between atoms: C_2  and  C_3
REMARK    3  A    between atoms: C_2  and  C_4
REMARK    4  A    between atoms: C_4  and  C_6
REMARK    5  A    between atoms: C_4  and  N_16
REMARK    6  A    between atoms: N_8  and  C_9
REMARK    7  A    between atoms: C_9  and  C_10
REMARK    8  A    between atoms: N_16  and  C_17
REMARK    9  A    between atoms: C_17  and  C_18
REMARK   10  A    between atoms: C_23  and  C_25
REMARK   11  A    between atoms: C_25  and  N_26
REMARK   12  A    between atoms: N_26  and  S_27
REMARK   13  A    between atoms: S_27  and  C_30
REMARK                            x       y       z     vdW  Elec       q    Type
REMARK                         _______ _______ _______ _____ _____    ______ ____
ROOT
ATOM      1  N   UNL     1      -2.108   0.376  -0.861  0.00  0.00    -0.284 N 
ATOM      2  C   UNL     1      -2.700  -0.207  -1.923  0.00  0.00    +0.232 C 
ATOM      3  O   UNL     1      -2.564  -1.397  -2.115  0.00  0.00    -0.274 OA
ENDROOT
BRANCH   1   4
ATOM      4  C   UNL     1      -1.302  -0.428   0.060  0.00  0.00    +0.165 C 
BRANCH   4   5
ATOM      5  C   UNL     1      -0.096  -0.967  -0.666  0.00  0.00    +0.234 C 
ATOM      6  O   UNL     1      -0.086  -1.006  -1.878  0.00  0.00    -0.274 OA
ATOM      7  N   UNL     1       0.971  -1.405   0.032  0.00  0.00    -0.311 N 
ATOM      8  H   UNL     1       0.934  -1.445   1.000  0.00  0.00    +0.149 HD
BRANCH   7   9
ATOM      9  C   UNL     1       2.186  -1.821  -0.673  0.00  0.00    +0.135 C 
BRANCH   9  10
ATOM     10  C   UNL     1       3.236  -2.271   0.344  0.00  0.00    +0.135 C 
ATOM     11  C   UNL     1       4.561  -2.596  -0.380  0.00  0.00    +0.035 C 
ATOM     12  C   UNL     1       5.056  -3.853   0.387  0.00  0.00    +0.031 C 
ATOM     13  C   UNL     1       3.709  -4.541   0.724  0.00  0.00    +0.160 C 
ATOM     14  O   UNL     1       2.796  -3.465   1.002  0.00  0.00    -0.375 OA
ENDBRANCH   9  10
ENDBRANCH   7   9
ENDBRANCH   4   5
BRANCH   4  16
ATOM     15  C   UNL     1      -1.338  -2.364   1.639  0.00  0.00    +0.009 C 
ATOM     16  C   UNL     1      -2.141  -1.592   0.590  0.00  0.00    +0.012 C 
ATOM     17  C   UNL     1      -3.422  -1.049   1.226  0.00  0.00    +0.009 C 
ENDBRANCH   4  16
ENDBRANCH   1   4
BRANCH   1  18
ATOM     18  C   UNL     1      -2.272   1.813  -0.629  0.00  0.00    +0.151 C 
BRANCH  18  19
ATOM     19  C   UNL     1      -1.131   2.559  -1.273  0.00  0.00    +0.007 A 
ATOM     20  C   UNL     1      -1.068   3.125  -2.503  0.00  0.00    +0.013 A 
ATOM     21  C   UNL     1       0.095   3.767  -2.886  0.00  0.00    +0.008 A 
ATOM     22  C   UNL     1       1.137   3.811  -2.021  0.00  0.00    +0.045 A 
ATOM     23  S   UNL     1       0.484   2.933  -0.611  0.00  0.00    -0.100 S 
ENDBRANCH  18  19
ENDBRANCH   1  18
BRANCH   2  24
ATOM     24  C   UNL     1      -3.529   0.620  -2.871  0.00  0.00    +0.201 C 
BRANCH  24  25
ATOM     25  N   UNL     1      -4.059  -0.239  -3.933  0.00  0.00    -0.181 NA
ATOM     26  H   UNL     1      -3.687  -1.125  -4.071  0.00  0.00    +0.149 HD
BRANCH  25  27
ATOM     27  S   UNL     1      -5.292   0.301  -4.897  0.00  0.00    +0.059 S 
ATOM     28  O   UNL     1      -5.559  -0.735  -5.833  0.00  0.00    -0.153 OA
ATOM     29  O   UNL     1      -6.290   0.819  -4.029  0.00  0.00    -0.153 OA
BRANCH  27  30
ATOM     30  C   UNL     1      -4.670   1.666  -5.822  0.00  0.00    +0.105 A 
ATOM     31  C   UNL     1      -4.773   2.948  -5.314  0.00  0.00    +0.028 A 
ATOM     32  C   UNL     1      -4.285   4.019  -6.040  0.00  0.00    +0.002 A 
ATOM     33  C   UNL     1      -3.695   3.809  -7.272  0.00  0.00    +0.000 A 
ATOM     34  C   UNL     1      -3.592   2.527  -7.778  0.00  0.00    +0.002 A 
ATOM     35  C   UNL     1      -4.075   1.455  -7.051  0.00  0.00    +0.028 A 
ENDBRANCH  27  30
ENDBRANCH  25  27
ENDBRANCH  24  25
ENDBRANCH   2  24
TORSDOF 11
