REMARK  Name = ZINC49165555
REMARK  4 active torsions:
REMARK  status: ('A' for Active; 'I' for Inactive)
REMARK    1  A    between atoms: C_1  and  C_2
REMARK    2  A    between atoms: C_2  and  N_3
REMARK    3  A    between atoms: N_6  and  N_7
REMARK    4  A    between atoms: C_8  and  C_10
REMARK                            x       y       z     vdW  Elec       q    Type
REMARK                         _______ _______ _______ _____ _____    ______ ____
ROOT
ATOM      1  N   UNL     1       1.969  -1.311  -3.456  0.00  0.00    -0.229 N 
ATOM      2  C   UNL     1       2.600  -1.745  -4.565  0.00  0.00    +0.262 C 
ATOM      3  O   UNL     1       2.725  -2.939  -4.765  0.00  0.00    -0.269 OA
ATOM      4  H   UNL     1       1.869  -0.359  -3.296  0.00  0.00    +0.173 HD
ENDROOT
BRANCH   2   5
ATOM      5  C   UNL     1       3.136  -0.777  -5.533  0.00  0.00    +0.065 A 
ATOM      6  C   UNL     1       3.011   0.647  -5.327  0.00  0.00    +0.042 A 
ATOM      7  C   UNL     1       3.546   1.426  -6.288  0.00  0.00    +0.080 A 
ATOM      8  S   UNL     1       4.204   0.246  -7.447  0.00  0.00    -0.064 S 
ATOM      9  C   UNL     1       3.787  -1.185  -6.677  0.00  0.00    +0.092 A 
ATOM     10 CL   UNL     1       4.102  -2.809  -7.203  0.00  0.00    -0.075 Cl
ATOM     11 CL   UNL     1       3.583   3.160  -6.376  0.00  0.00    -0.076 Cl
ENDBRANCH   2   5
BRANCH   1  15
ATOM     12  N   UNL     1       0.688  -0.476  -1.203  0.00  0.00    -0.298 N 
ATOM     13  C   UNL     1       0.827  -1.799  -1.425  0.00  0.00    +0.316 C 
ATOM     14  O   UNL     1       0.383  -2.599  -0.625  0.00  0.00    -0.251 OA
ATOM     15  N   UNL     1       1.458  -2.233  -2.534  0.00  0.00    -0.218 N 
ATOM     16  H   UNL     1       1.042   0.162  -1.842  0.00  0.00    +0.150 HD
ATOM     17  H   UNL     1       1.558  -3.185  -2.693  0.00  0.00    +0.174 HD
BRANCH  12  19
ATOM     18  C   UNL     1      -0.019   1.526   0.010  0.00  0.00    +0.024 C 
ATOM     19  C   UNL     1       0.002  -0.004   0.002  0.00  0.00    +0.102 C 
ENDBRANCH  12  19
ENDBRANCH   1  15
TORSDOF 3
