REMARK  Name = ZINC36027206
REMARK  9 active torsions:
REMARK  status: ('A' for Active; 'I' for Inactive)
REMARK    1  A    between atoms: C_1  and  C_2
REMARK    2  A    between atoms: C_2  and  C_3
REMARK    3  A    between atoms: C_3  and  C_5
REMARK    4  A    between atoms: C_3  and  C_6
REMARK    5  A    between atoms: C_6  and  N_7
REMARK    6  A    between atoms: C_10  and  C_32
REMARK    7  A    between atoms: N_16  and  S_19
REMARK    8  A    between atoms: S_19  and  C_22
REMARK    9  A    between atoms: C_26  and  C_28
REMARK                            x       y       z     vdW  Elec       q    Type
REMARK                         _______ _______ _______ _____ _____    ______ ____
ROOT
ATOM      1  N   UNL     1       0.902  -2.155  -2.603  0.00  0.00    -0.313 N 
ATOM      2  C   UNL     1       0.097  -2.100  -3.684  0.00  0.00    +0.200 C 
ATOM      3  O   UNL     1      -1.084  -1.825  -3.675  0.00  0.00    -0.277 OA
ATOM      4  C   UNL     1       0.916  -2.440  -4.910  0.00  0.00    +0.016 C 
ATOM      5  N   UNL     1       2.141  -3.085  -4.380  0.00  0.00    +0.401 N 
ATOM      6  C   UNL     1       2.261  -2.508  -3.022  0.00  0.00    +0.006 C 
ATOM      7  C   UNL     1       2.855  -3.546  -2.072  0.00  0.00    +0.023 C 
ATOM      8  C   UNL     1       2.936  -2.956  -0.661  0.00  0.00    +0.109 C 
ATOM      9  N   UNL     1       3.675  -1.687  -0.721  0.00  0.00    -0.177 NA
ATOM     10  C   UNL     1       3.225  -0.651  -1.660  0.00  0.00    +0.109 C 
ATOM     11  C   UNL     1       3.142  -1.260  -3.063  0.00  0.00    +0.023 C 
ATOM     12  C   UNL     1       0.149  -3.409  -5.812  0.00  0.00    -0.004 C 
ATOM     13  H   UNL     1       2.026  -4.087  -4.337  0.00  0.00    -0.082 HD
ATOM     14  H   UNL     1       2.944  -2.841  -4.940  0.00  0.00    -0.082 HD
ENDROOT
BRANCH   9  15
ATOM     15  S   UNL     1       4.990  -1.431   0.252  0.00  0.00    +0.061 S 
ATOM     16  O   UNL     1       5.127  -0.023   0.387  0.00  0.00    -0.153 OA
ATOM     17  O   UNL     1       4.842  -2.293   1.371  0.00  0.00    -0.153 OA
BRANCH  15  18
ATOM     18  C   UNL     1       6.408  -1.991  -0.631  0.00  0.00    +0.106 A 
ATOM     19  C   UNL     1       6.824  -3.304  -0.509  0.00  0.00    +0.028 A 
ATOM     20  C   UNL     1       7.937  -3.744  -1.202  0.00  0.00    +0.002 A 
ATOM     21  C   UNL     1       8.633  -2.871  -2.018  0.00  0.00    +0.012 A 
ATOM     22  C   UNL     1       8.216  -1.559  -2.140  0.00  0.00    +0.057 A 
ATOM     23  C   UNL     1       7.101  -1.120  -1.451  0.00  0.00    +0.041 A 
BRANCH  22  24
ATOM     24  C   UNL     1       8.975  -0.607  -3.029  0.00  0.00    +0.417 C 
ATOM     25  F   UNL     1      10.053  -1.278  -3.618  0.00  0.00    -0.166 F 
ATOM     26  F   UNL     1       8.125  -0.123  -4.029  0.00  0.00    -0.166 F 
ATOM     27  F   UNL     1       9.453   0.463  -2.265  0.00  0.00    -0.166 F 
ENDBRANCH  22  24
ENDBRANCH  15  18
ENDBRANCH   9  15
BRANCH   1  28
ATOM     28  C   UNL     1       0.483  -1.895  -1.223  0.00  0.00    +0.109 C 
BRANCH  28  29
ATOM     29  C   UNL     1       0.003  -3.199  -0.582  0.00  0.00    +0.003 C 
ATOM     30  C   UNL     1      -1.264  -3.680  -1.292  0.00  0.00    +0.009 C 
BRANCH  29  32
ATOM     31  C   UNL     1      -0.663  -4.285   1.567  0.00  0.00    +0.004 C 
ATOM     32  C   UNL     1      -0.303  -2.957   0.897  0.00  0.00    +0.001 C 
ENDBRANCH  29  32
ENDBRANCH  28  29
ENDBRANCH   1  28
TORSDOF 6
