REMARK  Name = ZINC06799446
REMARK  8 active torsions:
REMARK  status: ('A' for Active; 'I' for Inactive)
REMARK    1  A    between atoms: C_1  and  C_2
REMARK    2  A    between atoms: N_14  and  C_16
REMARK    3  A    between atoms: C_16  and  C_17
REMARK    4  A    between atoms: C_17  and  C_18
REMARK    5  A    between atoms: C_18  and  C_19
REMARK    6  A    between atoms: N_21  and  C_22
REMARK    7  A    between atoms: C_27  and  C_32
REMARK    8  A    between atoms: C_29  and  C_31
REMARK                            x       y       z     vdW  Elec       q    Type
REMARK                         _______ _______ _______ _____ _____    ______ ____
ROOT
ATOM      1  C   UNL     1      -9.355   0.823  -3.440  0.00  0.00    +0.068 C 
ATOM      2  C   UNL     1      -8.538   2.050  -3.128  0.00  0.00    +0.073 A 
ATOM      3  C   UNL     1      -9.158   3.185  -2.594  0.00  0.00    +0.048 A 
ATOM      4  C   UNL     1      -8.436   4.343  -2.292  0.00  0.00    +0.065 A 
ATOM      5  C   UNL     1      -9.213   5.466  -1.734  0.00  0.00    +0.002 A 
ATOM      6  C   UNL     1      -8.730   6.736  -1.348  0.00  0.00    +0.010 A 
ATOM      7  C   UNL     1      -9.582   7.684  -0.843  0.00  0.00    +0.001 A 
ATOM      8  C   UNL     1     -10.938   7.428  -0.696  0.00  0.00    +0.001 A 
ATOM      9  C   UNL     1     -11.440   6.196  -1.065  0.00  0.00    +0.015 A 
ATOM     10  C   UNL     1     -10.590   5.236  -1.574  0.00  0.00    +0.021 A 
ATOM     11  S   UNL     1     -10.830   3.574  -2.150  0.00  0.00    -0.086 S 
ATOM     12  C   UNL     1      -7.032   4.299  -2.559  0.00  0.00    +0.276 A 
ATOM     13  O   UNL     1      -6.334   5.271  -2.323  0.00  0.00    -0.266 OA
ATOM     14  N   UNL     1      -6.483   3.185  -3.073  0.00  0.00    -0.229 N 
ATOM     15  N   UNL     1      -7.253   2.055  -3.363  0.00  0.00    -0.172 NA
ENDROOT
BRANCH  14  16
ATOM     16  C   UNL     1      -5.043   3.157  -3.341  0.00  0.00    +0.148 C 
BRANCH  16  17
ATOM     17  C   UNL     1      -4.303   2.650  -2.102  0.00  0.00    +0.033 C 
BRANCH  17  18
ATOM     18  C   UNL     1      -2.799   2.621  -2.382  0.00  0.00    +0.097 C 
BRANCH  18  19
ATOM     19  C   UNL     1      -2.070   2.122  -1.161  0.00  0.00    +0.213 C 
ATOM     20  O   UNL     1      -2.692   1.819  -0.165  0.00  0.00    -0.276 OA
ATOM     21  N   UNL     1      -0.727   2.011  -1.176  0.00  0.00    -0.312 N 
ATOM     22  H   UNL     1      -0.230   2.253  -1.973  0.00  0.00    +0.149 HD
BRANCH  21  23
ATOM     23  C   UNL     1      -0.019   1.526   0.010  0.00  0.00    +0.076 C 
ATOM     24  C   UNL     1       0.002  -0.004   0.002  0.00  0.00    +0.022 C 
ATOM     25  C   UNL     1       0.742  -0.511   1.242  0.00  0.00    +0.002 C 
ATOM     26  C   UNL     1       2.178   0.019   1.231  0.00  0.00    +0.003 C 
ATOM     27  C   UNL     1       2.157   1.548   1.239  0.00  0.00    -0.009 C 
ATOM     28  C   UNL     1       1.417   2.055  -0.000  0.00  0.00    +0.009 C 
ATOM     29  C   UNL     1       1.396   3.585   0.008  0.00  0.00    +0.009 C 
ATOM     30  C   UNL     1       3.592   2.078   1.228  0.00  0.00    +0.008 C 
ENDBRANCH  21  23
ENDBRANCH  18  19
ENDBRANCH  17  18
ENDBRANCH  16  17
ENDBRANCH  14  16
TORSDOF 5
