REMARK  Name = ZINC03905425
REMARK  4 active torsions:
REMARK  status: ('A' for Active; 'I' for Inactive)
REMARK    1  A    between atoms: C_2  and  C_3
REMARK    2  A    between atoms: C_3  and  N_4
REMARK    3  A    between atoms: C_5  and  C_7
REMARK    4  A    between atoms: C_24  and  C_27
REMARK                            x       y       z     vdW  Elec       q    Type
REMARK                         _______ _______ _______ _____ _____    ______ ____
ROOT
ATOM      1  C   UNL     1      -0.766   2.167   3.517  0.00  0.00    +0.037 A 
ATOM      2  C   UNL     1      -1.669   3.231   3.421  0.00  0.00    +0.015 A 
ATOM      3  C   UNL     1      -2.324   3.670   4.552  0.00  0.00    +0.024 A 
ATOM      4  C   UNL     1      -2.090   3.047   5.767  0.00  0.00    +0.031 A 
ATOM      5  C   UNL     1      -1.210   1.972   5.875  0.00  0.00    -0.022 A 
ATOM      6  C   UNL     1      -0.543   1.540   4.745  0.00  0.00    +0.018 A 
ATOM      7  C   UNL     1      -1.000   1.263   7.177  0.00  0.00    +0.029 C 
ATOM      8  C   UNL     1      -1.966   0.035   7.220  0.00  0.00    -0.003 C 
ATOM      9  C   UNL     1      -3.363   0.638   6.878  0.00  0.00    +0.004 C 
ATOM     10  C   UNL     1      -3.738   1.506   8.126  0.00  0.00    +0.004 C 
ATOM     11  C   UNL     1      -2.530   1.310   9.092  0.00  0.00    -0.005 C 
ATOM     12  C   UNL     1      -2.112  -0.169   8.769  0.00  0.00    +0.008 C 
ATOM     13  C   UNL     1      -1.357   2.083   8.417  0.00  0.00    +0.024 C 
ATOM     14  C   UNL     1      -1.801   3.504   8.116  0.00  0.00    +0.105 C 
ATOM     15  N   UNL     1      -2.700   3.493   6.944  0.00  0.00    -0.336 N 
ATOM     16  H   UNL     1      -3.628   3.770   6.987  0.00  0.00    +0.147 HD
ENDROOT
BRANCH  14  17
ATOM     17  C   UNL     1      -2.532   4.068   9.306  0.00  0.00    -0.027 A 
ATOM     18  C   UNL     1      -3.904   4.228   9.262  0.00  0.00    +0.005 A 
ATOM     19  C   UNL     1      -4.576   4.740  10.356  0.00  0.00    +0.000 A 
ATOM     20  C   UNL     1      -3.874   5.103  11.491  0.00  0.00    +0.000 A 
ATOM     21  C   UNL     1      -2.501   4.947  11.533  0.00  0.00    +0.000 A 
ATOM     22  C   UNL     1      -1.830   4.430  10.441  0.00  0.00    +0.005 A 
ENDBRANCH  14  17
BRANCH   1  24
ATOM     23  N   UNL     1      -0.267   2.300   1.127  0.00  0.00    -0.308 N 
ATOM     24  C   UNL     1      -0.050   1.701   2.315  0.00  0.00    +0.244 C 
ATOM     25  O   UNL     1       0.736   0.777   2.395  0.00  0.00    -0.270 OA
ATOM     26  H   UNL     1      -0.894   3.038   1.063  0.00  0.00    +0.149 HD
BRANCH  23  27
ATOM     27  C   UNL     1       0.444   1.837  -0.067  0.00  0.00    +0.131 C 
BRANCH  27  29
ATOM     28  C   UNL     1       0.930   3.283  -1.974  0.00  0.00    +0.005 C 
ATOM     29  C   UNL     1       0.026   2.667  -1.254  0.00  0.00    -0.016 C 
ENDBRANCH  27  29
ENDBRANCH  23  27
ENDBRANCH   1  24
TORSDOF 4
