REMARK  Name = ZINC14535386
REMARK  7 active torsions:
REMARK  status: ('A' for Active; 'I' for Inactive)
REMARK    1  A    between atoms: C_2  and  C_3
REMARK    2  A    between atoms: C_3  and  N_4
REMARK    3  A    between atoms: C_7  and  C_9
REMARK    4  A    between atoms: C_18  and  N_62
REMARK    5  A    between atoms: C_22  and  C_23
REMARK    6  A    between atoms: C_22  and  N_62
REMARK    7  A    between atoms: C_23  and  O_29
REMARK                            x       y       z     vdW  Elec       q    Type
REMARK                         _______ _______ _______ _____ _____    ______ ____
ROOT
ATOM      1  N   UNL     1       2.113   1.406   1.123  0.00  0.00    -0.264 N 
ATOM      2  C   UNL     1       3.022   0.418   1.067  0.00  0.00    +0.043 A 
ATOM      3  C   UNL     1       3.594   0.329   2.293  0.00  0.00    +0.004 A 
ATOM      4  C   UNL     1       2.974   1.314   3.080  0.00  0.00    +0.151 A 
ATOM      5  N   UNL     1       2.097   1.924   2.302  0.00  0.00    -0.166 NA
ATOM      6  C   UNL     1       4.671  -0.653   2.664  0.00  0.00    +0.023 C 
ATOM      7  C   UNL     1       5.276  -1.215   1.371  0.00  0.00    -0.067 C 
ATOM      8  C   UNL     1       4.152  -1.682   0.442  0.00  0.00    -0.009 C 
ATOM      9  C   UNL     1       3.389  -0.466  -0.098  0.00  0.00    +0.054 C 
ENDROOT
BRANCH   4  10
ATOM     10  C   UNL     1       3.253   1.613   4.500  0.00  0.00    +0.267 C 
ATOM     11  O   UNL     1       4.015   0.907   5.131  0.00  0.00    -0.268 OA
ATOM     12  N   UNL     1       2.662   2.668   5.094  0.00  0.00    -0.295 N 
ATOM     13  C   UNL     1       1.667   3.449   4.358  0.00  0.00    +0.119 C 
ATOM     14  C   UNL     1       0.294   3.282   5.032  0.00  0.00    +0.088 C 
ATOM     15  S   UNL     1       0.433   3.803   6.768  0.00  0.00    -0.158 S 
ATOM     16  C   UNL     1       1.823   2.810   7.389  0.00  0.00    +0.088 C 
ATOM     17  C   UNL     1       3.029   3.024   6.466  0.00  0.00    +0.119 C 
ENDBRANCH   4  10
BRANCH   7  18
ATOM     18  N   UNL     1       6.148  -2.358   1.701  0.00  0.00    +0.383 N 
ATOM     19  H   UNL     1       5.578  -3.210   1.772  0.00  0.00    -0.085 HD
ATOM     20  H   UNL     1       6.612  -2.181   2.600  0.00  0.00    -0.085 HD
BRANCH  18  21
ATOM     21  C   UNL     1       7.170  -2.542   0.654  0.00  0.00    -0.047 C 
BRANCH  21  22
ATOM     22  C   UNL     1       8.058  -3.732   1.024  0.00  0.00    +0.051 C 
ATOM     23  C   UNL     1       8.642  -3.518   2.422  0.00  0.00    +0.033 C 
ATOM     24  C   UNL     1       9.530  -4.708   2.791  0.00  0.00    +0.003 C 
ATOM     25  C   UNL     1      10.668  -4.829   1.776  0.00  0.00    +0.000 C 
ATOM     26  C   UNL     1      10.085  -5.043   0.378  0.00  0.00    +0.003 C 
ATOM     27  C   UNL     1       9.197  -3.853   0.009  0.00  0.00    +0.033 C 
BRANCH  22  28
ATOM     28  O   UNL     1       7.279  -4.930   1.011  0.00  0.00    -0.390 OA
ATOM     29  H   UNL     1       6.538  -4.923   1.632  0.00  0.00    +0.210 HD
ENDBRANCH  22  28
ENDBRANCH  21  22
ENDBRANCH  18  21
ENDBRANCH   7  18
BRANCH   1  30
ATOM     30  C   UNL     1       1.269   1.834   0.005  0.00  0.00    +0.170 C 
BRANCH  30  32
ATOM     31  C   UNL     1      -1.167   1.667   0.027  0.00  0.00    +0.006 C 
ATOM     32  C   UNL     1      -0.014   1.044   0.013  0.00  0.00    -0.012 C 
ENDBRANCH  30  32
ENDBRANCH   1  30
TORSDOF 7
