REMARK  Name = ZINC35757956
REMARK  14 active torsions:
REMARK  status: ('A' for Active; 'I' for Inactive)
REMARK    1  A    between atoms: C_1  and  C_2
REMARK    2  A    between atoms: C_5  and  C_8
REMARK    3  A    between atoms: C_8  and  N_9
REMARK    4  A    between atoms: C_10  and  C_34
REMARK    5  A    between atoms: C_12  and  C_17
REMARK    6  A    between atoms: C_21  and  N_23
REMARK    7  A    between atoms: C_24  and  C_26
REMARK    8  A    between atoms: C_31  and  O_32
REMARK    9  A    between atoms: O_32  and  C_33
REMARK   10  A    between atoms: N_36  and  C_37
REMARK   11  A    between atoms: C_37  and  C_38
REMARK   12  A    between atoms: C_38  and  C_39
REMARK   13  A    between atoms: C_39  and  C_40
REMARK   14  A    between atoms: C_39  and  C_41
REMARK                            x       y       z     vdW  Elec       q    Type
REMARK                         _______ _______ _______ _____ _____    ______ ____
ROOT
ATOM      1  N   UNL     1       1.439  -4.761  -0.037  0.00  0.00    -0.248 N 
ATOM      2  C   UNL     1       2.261  -5.022  -1.234  0.00  0.00    +0.210 C 
ATOM      3  C   UNL     1       3.686  -5.114  -0.639  0.00  0.00    +0.238 C 
ATOM      4  O   UNL     1       3.417  -5.484   0.728  0.00  0.00    -0.440 OA
ATOM      5  C   UNL     1       2.193  -5.030   1.046  0.00  0.00    +0.405 C 
ATOM      6  O   UNL     1       1.807  -4.881   2.188  0.00  0.00    -0.226 OA
ENDROOT
BRANCH   3   7
ATOM      7  C   UNL     1       4.493  -6.179  -1.336  0.00  0.00    -0.003 A 
ATOM      8  C   UNL     1       4.318  -7.509  -1.000  0.00  0.00    +0.007 A 
ATOM      9  C   UNL     1       5.057  -8.489  -1.637  0.00  0.00    +0.002 A 
ATOM     10  C   UNL     1       5.972  -8.142  -2.612  0.00  0.00    +0.023 A 
ATOM     11  C   UNL     1       6.150  -6.808  -2.952  0.00  0.00    +0.034 A 
ATOM     12  C   UNL     1       5.402  -5.826  -2.314  0.00  0.00    +0.030 A 
BRANCH  11  13
ATOM     13  N   UNL     1       7.076  -6.453  -3.938  0.00  0.00    -0.281 N 
ATOM     14  C   UNL     1       8.224  -7.147  -4.066  0.00  0.00    +0.252 C 
ATOM     15  O   UNL     1       8.418  -8.132  -3.380  0.00  0.00    -0.270 OA
ATOM     16  H   UNL     1       6.891  -5.707  -4.531  0.00  0.00    +0.155 HD
BRANCH  14  17
ATOM     17  C   UNL     1       9.246  -6.711  -5.036  0.00  0.00    +0.079 A 
ATOM     18  C   UNL     1       9.029  -5.576  -5.822  0.00  0.00    +0.017 A 
ATOM     19  C   UNL     1       9.988  -5.174  -6.727  0.00  0.00    +0.001 A 
ATOM     20  C   UNL     1      11.166  -5.890  -6.862  0.00  0.00    +0.004 A 
ATOM     21  C   UNL     1      11.392  -7.014  -6.092  0.00  0.00    +0.046 A 
ATOM     22  C   UNL     1      10.441  -7.429  -5.172  0.00  0.00    +0.132 A 
BRANCH  22  23
ATOM     23  O   UNL     1      10.665  -8.530  -4.410  0.00  0.00    -0.494 OA
ATOM     24  C   UNL     1      11.906  -9.211  -4.604  0.00  0.00    +0.277 C 
ENDBRANCH  22  23
ENDBRANCH  14  17
ENDBRANCH  11  13
ENDBRANCH   3   7
BRANCH   2  25
ATOM     25  C   UNL     1       1.863  -6.321  -1.886  0.00  0.00    +0.238 C 
ATOM     26  O   UNL     1       1.231  -7.145  -1.260  0.00  0.00    -0.274 OA
ATOM     27  N   UNL     1       2.208  -6.567  -3.166  0.00  0.00    -0.314 N 
ATOM     28  H   UNL     1       2.714  -5.908  -3.667  0.00  0.00    +0.149 HD
BRANCH  27  29
ATOM     29  C   UNL     1       1.821  -7.830  -3.799  0.00  0.00    +0.104 C 
BRANCH  29  30
ATOM     30  C   UNL     1       2.334  -7.855  -5.241  0.00  0.00    +0.022 C 
BRANCH  30  31
ATOM     31  C   UNL     1       1.929  -9.174  -5.902  0.00  0.00    -0.016 C 
ATOM     32  C   UNL     1       2.332  -9.149  -7.378  0.00  0.00    +0.007 C 
ATOM     33  C   UNL     1       2.636 -10.335  -5.201  0.00  0.00    +0.007 C 
ENDBRANCH  30  31
ENDBRANCH  29  30
ENDBRANCH  27  29
ENDBRANCH   2  25
BRANCH   1  34
ATOM     34  C   UNL     1       0.052  -4.288  -0.027  0.00  0.00    +0.147 C 
BRANCH  34  39
ATOM     35  C   UNL     1      -0.015   1.490   0.042  0.00  0.00    +0.044 C 
ATOM     36  C   UNL     1       0.002  -0.017   0.024  0.00  0.00    -0.050 A 
ATOM     37  C   UNL     1       0.008  -0.694  -1.181  0.00  0.00    +0.003 A 
ATOM     38  C   UNL     1       0.025  -2.076  -1.198  0.00  0.00    +0.005 A 
ATOM     39  C   UNL     1       0.035  -2.781  -0.009  0.00  0.00    -0.030 A 
ATOM     40  C   UNL     1       0.030  -2.105   1.196  0.00  0.00    +0.005 A 
ATOM     41  C   UNL     1       0.018  -0.723   1.213  0.00  0.00    +0.003 A 
ENDBRANCH  34  39
ENDBRANCH   1  34
TORSDOF 10
