REMARK  Name = ZINC13816063
REMARK  6 active torsions:
REMARK  status: ('A' for Active; 'I' for Inactive)
REMARK    1  A    between atoms: C_1  and  C_2
REMARK    2  A    between atoms: C_3  and  N_15
REMARK    3  A    between atoms: N_6  and  C_9
REMARK    4  A    between atoms: N_7  and  C_8
REMARK    5  A    between atoms: N_15  and  C_16
REMARK    6  A    between atoms: N_26  and  C_29
REMARK                            x       y       z     vdW  Elec       q    Type
REMARK                         _______ _______ _______ _____ _____    ______ ____
ROOT
ATOM      1  C   UNL     1       0.202  -1.424  -4.144  0.00  0.00    +0.086 C 
ATOM      2  C   UNL     1       0.442  -0.851  -5.375  0.00  0.00    +0.059 C 
ATOM      3  C   UNL     1       0.797  -1.681  -6.545  0.00  0.00    +0.000 A 
ATOM      4  C   UNL     1       0.903  -3.064  -6.455  0.00  0.00    +0.009 A 
ATOM      5  C   UNL     1       1.236  -3.795  -7.577  0.00  0.00    +0.001 A 
ATOM      6  C   UNL     1       1.466  -3.162  -8.789  0.00  0.00    +0.001 A 
ATOM      7  C   UNL     1       1.366  -1.791  -8.898  0.00  0.00    +0.014 A 
ATOM      8  C   UNL     1       1.030  -1.033  -7.776  0.00  0.00    +0.046 A 
ATOM      9  C   UNL     1       0.912   0.429  -7.848  0.00  0.00    +0.258 C 
ATOM     10  O   UNL     1       1.112   0.994  -8.907  0.00  0.00    -0.269 OA
ATOM     11  N   UNL     1       0.588   1.153  -6.764  0.00  0.00    -0.202 N 
ATOM     12  C   UNL     1       0.348   0.601  -5.564  0.00  0.00    +0.259 C 
ATOM     13  O   UNL     1       0.053   1.313  -4.621  0.00  0.00    -0.269 OA
ENDROOT
BRANCH  11  14
ATOM     14  C   UNL     1       0.490   2.544  -6.893  0.00  0.00    +0.045 A 
ATOM     15  C   UNL     1      -0.533   3.103  -7.646  0.00  0.00    +0.024 A 
ATOM     16  C   UNL     1      -0.627   4.476  -7.771  0.00  0.00    +0.002 A 
ATOM     17  C   UNL     1       0.298   5.293  -7.147  0.00  0.00    +0.000 A 
ATOM     18  C   UNL     1       1.319   4.739  -6.397  0.00  0.00    +0.002 A 
ATOM     19  C   UNL     1       1.414   3.368  -6.262  0.00  0.00    +0.024 A 
ENDBRANCH  11  14
BRANCH   1  20
ATOM     20  N   UNL     1       0.008  -0.641  -3.060  0.00  0.00    -0.314 N 
ATOM     21  H   UNL     1      -0.034   0.323  -3.159  0.00  0.00    +0.152 HD
BRANCH  20  24
ATOM     22  C   UNL     1      -0.438   0.929  -0.462  0.00  0.00    +0.067 C 
ATOM     23  C   UNL     1      -0.331  -0.566  -0.622  0.00  0.00    +0.059 A 
ATOM     24  C   UNL     1      -0.133  -1.223  -1.788  0.00  0.00    +0.119 A 
ATOM     25  C   UNL     1      -0.094  -2.653  -1.478  0.00  0.00    +0.293 A 
ATOM     26  O   UNL     1       0.067  -3.563  -2.271  0.00  0.00    -0.264 OA
ATOM     27  N   UNL     1      -0.271  -2.771  -0.146  0.00  0.00    -0.216 N 
ATOM     28  N   UNL     1      -0.412  -1.485   0.390  0.00  0.00    -0.282 N 
ATOM     29  C   UNL     1      -0.616  -1.173   1.806  0.00  0.00    +0.171 C 
BRANCH  27  30
ATOM     30  C   UNL     1      -0.302  -3.968   0.576  0.00  0.00    +0.067 A 
ATOM     31  C   UNL     1      -1.323  -4.205   1.487  0.00  0.00    +0.028 A 
ATOM     32  C   UNL     1      -1.351  -5.389   2.198  0.00  0.00    +0.002 A 
ATOM     33  C   UNL     1      -0.365  -6.338   2.003  0.00  0.00    +0.000 A 
ATOM     34  C   UNL     1       0.653  -6.105   1.096  0.00  0.00    +0.002 A 
ATOM     35  C   UNL     1       0.684  -4.926   0.378  0.00  0.00    +0.028 A 
ENDBRANCH  27  30
ENDBRANCH  20  24
ENDBRANCH   1  20
TORSDOF 4
