REMARK  Name = ZINC08756651
REMARK  14 active torsions:
REMARK  status: ('A' for Active; 'I' for Inactive)
REMARK    1  A    between atoms: C_1  and  C_2
REMARK    2  A    between atoms: C_2  and  C_3
REMARK    3  A    between atoms: C_3  and  C_4
REMARK    4  A    between atoms: C_4  and  N_5
REMARK    5  A    between atoms: N_9  and  N_10
REMARK    6  A    between atoms: C_11  and  C_13
REMARK    7  A    between atoms: C_13  and  C_14
REMARK    8  A    between atoms: N_16  and  N_17
REMARK    9  A    between atoms: N_21  and  C_29
REMARK   10  A    between atoms: C_25  and  C_28
REMARK   11  A    between atoms: C_29  and  C_30
REMARK   12  A    between atoms: C_30  and  C_31
REMARK   13  A    between atoms: C_31  and  C_32
REMARK   14  A    between atoms: C_37  and  C_39
REMARK                            x       y       z     vdW  Elec       q    Type
REMARK                         _______ _______ _______ _____ _____    ______ ____
ROOT
ATOM      1  C   UNL     1       5.892  -4.061   7.749  0.00  0.00    +0.194 C 
ENDROOT
BRANCH   1   3
ATOM      2  N   UNL     1       4.497  -3.344   5.837  0.00  0.00    -0.206 N 
ATOM      3  C   UNL     1       5.693  -3.777   6.283  0.00  0.00    +0.241 C 
ATOM      4  O   UNL     1       6.608  -3.938   5.504  0.00  0.00    -0.274 OA
ATOM      5  H   UNL     1       3.765  -3.215   6.460  0.00  0.00    +0.177 HD
BRANCH   2  10
ATOM      6  N   UNL     1       1.550  -1.747   2.685  0.00  0.00    -0.266 N 
ATOM      7  C   UNL     1       2.767  -2.316   2.659  0.00  0.00    +0.271 C 
ATOM      8  O   UNL     1       3.407  -2.594   1.663  0.00  0.00    -0.268 OA
ATOM      9  C   UNL     1       3.189  -2.545   4.056  0.00  0.00    +0.153 C 
ATOM     10  N   UNL     1       4.311  -3.080   4.473  0.00  0.00    -0.175 NA
ATOM     11  C   UNL     1       2.069  -2.038   4.883  0.00  0.00    +0.029 A 
ATOM     12  C   UNL     1       1.103  -1.559   3.988  0.00  0.00    +0.046 A 
ATOM     13  C   UNL     1      -0.071  -1.012   4.492  0.00  0.00    +0.024 A 
ATOM     14  C   UNL     1      -0.274  -0.941   5.856  0.00  0.00    +0.005 A 
ATOM     15  C   UNL     1       0.685  -1.412   6.736  0.00  0.00    -0.050 A 
ATOM     16  C   UNL     1       1.854  -1.968   6.254  0.00  0.00    +0.015 A 
ATOM     17  C   UNL     1       0.450  -1.326   8.222  0.00  0.00    +0.044 C 
BRANCH   6  18
ATOM     18  C   UNL     1       0.793  -1.365   1.490  0.00  0.00    +0.114 C 
BRANCH  18  19
ATOM     19  C   UNL     1       1.147   0.071   1.099  0.00  0.00    +0.019 C 
BRANCH  19  21
ATOM     20  C   UNL     1       0.710   1.905  -0.541  0.00  0.00    +0.004 C 
ATOM     21  C   UNL     1       0.356   0.469  -0.149  0.00  0.00    -0.002 C 
ENDBRANCH  19  21
ENDBRANCH  18  19
ENDBRANCH   6  18
ENDBRANCH   2  10
ENDBRANCH   1   3
BRANCH   1  22
ATOM     22  C   UNL     1       7.306  -4.528   7.982  0.00  0.00    +0.241 C 
ATOM     23  O   UNL     1       8.075  -4.621   7.050  0.00  0.00    -0.274 OA
ATOM     24  N   UNL     1       7.715  -4.842   9.228  0.00  0.00    -0.206 N 
ATOM     25  H   UNL     1       7.099  -4.768   9.974  0.00  0.00    +0.177 HD
BRANCH  24  26
ATOM     26  N   UNL     1       9.029  -5.277   9.444  0.00  0.00    -0.175 NA
ATOM     27  C   UNL     1       9.393  -5.696  10.632  0.00  0.00    +0.153 C 
ATOM     28  C   UNL     1      10.753  -6.060  11.079  0.00  0.00    +0.271 C 
ATOM     29  O   UNL     1      11.763  -6.026  10.402  0.00  0.00    -0.268 OA
ATOM     30  N   UNL     1      10.676  -6.437  12.367  0.00  0.00    -0.266 N 
ATOM     31  C   UNL     1       9.372  -6.361  12.842  0.00  0.00    +0.046 A 
ATOM     32  C   UNL     1       8.531  -5.904  11.819  0.00  0.00    +0.029 A 
ATOM     33  C   UNL     1       7.171  -5.736  12.048  0.00  0.00    +0.015 A 
ATOM     34  C   UNL     1       6.646  -6.019  13.294  0.00  0.00    -0.050 A 
ATOM     35  C   UNL     1       7.473  -6.468  14.309  0.00  0.00    +0.005 A 
ATOM     36  C   UNL     1       8.825  -6.646  14.088  0.00  0.00    +0.024 A 
ATOM     37  C   UNL     1       5.172  -5.839  13.548  0.00  0.00    +0.044 C 
BRANCH  30  38
ATOM     38  C   UNL     1      11.822  -6.872  13.169  0.00  0.00    +0.114 C 
BRANCH  38  39
ATOM     39  C   UNL     1      12.451  -5.661  13.861  0.00  0.00    +0.019 C 
BRANCH  39  40
ATOM     40  C   UNL     1      13.648  -6.115  14.698  0.00  0.00    -0.002 C 
ATOM     41  C   UNL     1      14.276  -4.904  15.390  0.00  0.00    +0.004 C 
ENDBRANCH  39  40
ENDBRANCH  38  39
ENDBRANCH  30  38
ENDBRANCH  24  26
ENDBRANCH   1  22
TORSDOF 10
