REMARK  Name = ZINC24674355
REMARK  8 active torsions:
REMARK  status: ('A' for Active; 'I' for Inactive)
REMARK    1  A    between atoms: C_1  and  C_2
REMARK    2  A    between atoms: C_2  and  C_4
REMARK    3  A    between atoms: C_2  and  N_7
REMARK    4  A    between atoms: N_7  and  C_8
REMARK    5  A    between atoms: N_7  and  C_15
REMARK    6  A    between atoms: C_8  and  C_9
REMARK    7  A    between atoms: C_15  and  C_16
REMARK    8  A    between atoms: N_18  and  N_19
REMARK                            x       y       z     vdW  Elec       q    Type
REMARK                         _______ _______ _______ _____ _____    ______ ____
ROOT
ATOM      1  C   UNL     1       1.927   1.317  -2.353  0.00  0.00    +0.213 C 
ATOM      2  O   UNL     1       0.818   1.796  -2.460  0.00  0.00    -0.276 OA
ATOM      3  N   UNL     1       3.008   2.122  -2.325  0.00  0.00    -0.225 N 
ATOM      4  H   UNL     1       3.898   1.737  -2.302  0.00  0.00    +0.173 HD
ENDROOT
BRANCH   3   5
ATOM      5  N   UNL     1       2.846   3.514  -2.330  0.00  0.00    -0.137 N 
ATOM      6  C   UNL     1       2.743   4.261  -3.448  0.00  0.00    +0.263 C 
ATOM      7  O   UNL     1       2.771   3.872  -4.596  0.00  0.00    -0.271 OA
ATOM      8  C   UNL     1       2.583   5.685  -2.968  0.00  0.00    +0.114 C 
ATOM      9  C   UNL     1       1.247   6.256  -3.430  0.00  0.00    +0.035 C 
ATOM     10  C   UNL     1       1.093   7.687  -2.909  0.00  0.00    +0.003 C 
ATOM     11  C   UNL     1       2.243   8.547  -3.435  0.00  0.00    +0.000 C 
ATOM     12  C   UNL     1       3.575   7.976  -2.945  0.00  0.00    +0.003 C 
ATOM     13  C   UNL     1       3.739   6.546  -3.466  0.00  0.00    +0.035 C 
ATOM     14  N   UNL     1       2.618   5.575  -1.504  0.00  0.00    -0.284 N 
ATOM     15  C   UNL     1       2.769   4.266  -1.225  0.00  0.00    +0.326 C 
ATOM     16  O   UNL     1       2.832   3.818  -0.097  0.00  0.00    -0.251 OA
ATOM     17  H   UNL     1       2.542   6.300  -0.865  0.00  0.00    +0.151 HD
ENDBRANCH   3   5
BRANCH   1  18
ATOM     18  C   UNL     1       2.097  -0.176  -2.250  0.00  0.00    +0.021 C 
BRANCH  18  19
ATOM     19  N   UNL     1       0.777  -0.812  -2.137  0.00  0.00    +0.390 N 
ATOM     20  H   UNL     1       0.126  -0.347  -2.752  0.00  0.00    -0.080 HD
BRANCH  19  22
ATOM     21  C   UNL     1       1.372  -1.252   0.197  0.00  0.00    -0.013 C 
ATOM     22  C   UNL     1       0.301  -0.709  -0.751  0.00  0.00    -0.067 C 
BRANCH  22  23
ATOM     23  C   UNL     1       0.018   0.756  -0.417  0.00  0.00    -0.025 C 
ATOM     24  C   UNL     1       1.016   1.479   0.490  0.00  0.00    +0.002 C 
ATOM     25  C   UNL     1      -0.363   1.091   1.026  0.00  0.00    +0.002 C 
ENDBRANCH  22  23
ENDBRANCH  19  22
BRANCH  19  26
ATOM     26  C   UNL     1       0.882  -2.228  -2.515  0.00  0.00    -0.042 C 
BRANCH  26  27
ATOM     27  C   UNL     1      -0.496  -2.833  -2.583  0.00  0.00    -0.064 A 
ATOM     28  C   UNL     1      -1.012  -3.503  -1.489  0.00  0.00    +0.002 A 
ATOM     29  C   UNL     1      -2.276  -4.058  -1.551  0.00  0.00    +0.000 A 
ATOM     30  C   UNL     1      -3.025  -3.943  -2.707  0.00  0.00    +0.000 A 
ATOM     31  C   UNL     1      -2.510  -3.273  -3.800  0.00  0.00    +0.000 A 
ATOM     32  C   UNL     1      -1.248  -2.714  -3.737  0.00  0.00    +0.002 A 
ENDBRANCH  26  27
ENDBRANCH  19  26
ENDBRANCH  18  19
ENDBRANCH   1  18
TORSDOF 7
