REMARK  Name = ZINC00206595
REMARK  5 active torsions:
REMARK  status: ('A' for Active; 'I' for Inactive)
REMARK    1  A    between atoms: C_1  and  C_2
REMARK    2  A    between atoms: C_5  and  N_9
REMARK    3  A    between atoms: C_7  and  C_8
REMARK    4  A    between atoms: C_13  and  C_14
REMARK    5  A    between atoms: C_15  and  C_16
REMARK                            x       y       z     vdW  Elec       q    Type
REMARK                         _______ _______ _______ _____ _____    ______ ____
ROOT
ATOM      1  N   UNL     1       2.128   0.742  -0.014  0.00  0.00    -0.184 N 
ATOM      2  C   UNL     1       1.399   1.873  -0.001  0.00  0.00    +0.272 C 
ATOM      3  O   UNL     1       1.828   3.012   0.000  0.00  0.00    -0.268 OA
ATOM      4  C   UNL     1      -0.018   1.470   0.010  0.00  0.00    +0.102 C 
ATOM      5  C   UNL     1      -1.131   2.298   0.020  0.00  0.00    +0.018 C 
ATOM      6  C   UNL     1       0.002  -0.004   0.002  0.00  0.00    +0.266 C 
ATOM      7  O   UNL     1      -0.965  -0.742   0.008  0.00  0.00    -0.268 OA
ATOM      8  N   UNL     1       1.296  -0.378  -0.012  0.00  0.00    -0.223 N 
ATOM      9  H   UNL     1       1.605  -1.297  -0.020  0.00  0.00    +0.174 HD
ENDROOT
BRANCH   1  14
ATOM     10  C   UNL     1       7.797   0.551  -0.071  0.00  0.00    +0.044 C 
ATOM     11  C   UNL     1       6.291   0.602  -0.056  0.00  0.00    -0.047 A 
ATOM     12  C   UNL     1       5.642   1.823  -0.043  0.00  0.00    +0.005 A 
ATOM     13  C   UNL     1       4.262   1.873  -0.029  0.00  0.00    +0.025 A 
ATOM     14  C   UNL     1       3.526   0.695  -0.028  0.00  0.00    +0.057 A 
ATOM     15  C   UNL     1       4.181  -0.530  -0.035  0.00  0.00    +0.028 A 
ATOM     16  C   UNL     1       5.561  -0.573  -0.054  0.00  0.00    -0.046 A 
ATOM     17  C   UNL     1       6.273  -1.901  -0.067  0.00  0.00    +0.044 C 
ENDBRANCH   1  14
BRANCH   5  18
ATOM     18  C   UNL     1      -2.418   1.742   0.024  0.00  0.00    +0.001 C 
ATOM     19  C   UNL     1      -3.508   2.553   0.034  0.00  0.00    +0.008 C 
BRANCH  19  20
ATOM     20  C   UNL     1      -4.857   1.971   0.038  0.00  0.00    -0.025 A 
ATOM     21  C   UNL     1      -5.024   0.581   0.026  0.00  0.00    +0.008 A 
ATOM     22  C   UNL     1      -6.293   0.043   0.037  0.00  0.00    +0.001 A 
ATOM     23  C   UNL     1      -7.400   0.873   0.046  0.00  0.00    +0.000 A 
ATOM     24  C   UNL     1      -7.245   2.249   0.052  0.00  0.00    +0.001 A 
ATOM     25  C   UNL     1      -5.983   2.803   0.048  0.00  0.00    +0.008 A 
ENDBRANCH  19  20
ENDBRANCH   5  18
TORSDOF 3
