REMARK  Name = ZINC45483909
REMARK  9 active torsions:
REMARK  status: ('A' for Active; 'I' for Inactive)
REMARK    1  A    between atoms: C_1  and  C_2
REMARK    2  A    between atoms: C_2  and  C_3
REMARK    3  A    between atoms: C_2  and  C_4
REMARK    4  A    between atoms: C_4  and  C_6
REMARK    5  A    between atoms: C_4  and  N_23
REMARK    6  A    between atoms: C_6  and  N_7
REMARK    7  A    between atoms: N_13  and  C_16
REMARK    8  A    between atoms: C_21  and  O_22
REMARK    9  A    between atoms: N_23  and  C_24
REMARK                            x       y       z     vdW  Elec       q    Type
REMARK                         _______ _______ _______ _____ _____    ______ ____
ROOT
ATOM      1  N   UNL     1      -3.413  -0.691  -1.083  0.00  0.00    -0.297 N 
ATOM      2  C   UNL     1      -4.298  -0.428  -2.066  0.00  0.00    +0.302 C 
ATOM      3  O   UNL     1      -3.986   0.304  -2.985  0.00  0.00    -0.253 OA
ATOM      4  N   UNL     1      -5.529  -0.975  -2.028  0.00  0.00    -0.283 N 
ATOM      5  C   UNL     1      -5.965  -1.756  -0.862  0.00  0.00    +0.128 C 
ATOM      6  C   UNL     1      -7.271  -1.153  -0.329  0.00  0.00    +0.124 C 
ATOM      7  N   UNL     1      -8.201  -0.980  -1.453  0.00  0.00    -0.324 N 
ATOM      8  C   UNL     1      -7.765  -0.199  -2.619  0.00  0.00    +0.124 C 
ATOM      9  C   UNL     1      -6.462  -0.797  -3.150  0.00  0.00    +0.128 C 
ATOM     10  H   UNL     1      -3.685  -1.215  -0.314  0.00  0.00    +0.150 HD
ENDROOT
BRANCH   7  11
ATOM     11  C   UNL     1      -9.480  -1.549  -1.414  0.00  0.00    +0.072 A 
ATOM     12  C   UNL     1     -10.545  -0.830  -0.891  0.00  0.00    +0.027 A 
ATOM     13  C   UNL     1     -11.806  -1.394  -0.854  0.00  0.00    +0.002 A 
ATOM     14  C   UNL     1     -12.010  -2.673  -1.338  0.00  0.00    +0.004 A 
ATOM     15  C   UNL     1     -10.953  -3.395  -1.860  0.00  0.00    +0.047 A 
ATOM     16  C   UNL     1      -9.687  -2.836  -1.906  0.00  0.00    +0.138 A 
BRANCH  16  17
ATOM     17  O   UNL     1      -8.647  -3.543  -2.425  0.00  0.00    -0.505 OA
ATOM     18  H   UNL     1      -8.174  -4.081  -1.775  0.00  0.00    +0.292 HD
ENDBRANCH  16  17
ENDBRANCH   7  11
BRANCH   1  19
ATOM     19  C   UNL     1      -2.042  -0.185  -1.178  0.00  0.00    +0.128 C 
BRANCH  19  20
ATOM     20  C   UNL     1      -1.251  -0.621   0.056  0.00  0.00    +0.090 C 
BRANCH  20  22
ATOM     21  C   UNL     1       0.304   1.326  -0.127  0.00  0.00    +0.009 C 
ATOM     22  C   UNL     1       0.212  -0.201  -0.101  0.00  0.00    +0.005 C 
ATOM     23  C   UNL     1       1.027  -0.740   1.077  0.00  0.00    +0.009 C 
ENDBRANCH  20  22
BRANCH  20  24
ATOM     24  N   UNL     1      -1.328  -2.078   0.196  0.00  0.00    -0.339 N 
ATOM     25  H   UNL     1      -0.925  -2.651  -0.474  0.00  0.00    +0.146 HD
BRANCH  24  26
ATOM     26  C   UNL     1      -1.982  -2.640   1.295  0.00  0.00    +0.027 A 
ATOM     27  C   UNL     1      -2.667  -1.826   2.188  0.00  0.00    +0.023 A 
ATOM     28  C   UNL     1      -3.313  -2.386   3.273  0.00  0.00    +0.002 A 
ATOM     29  C   UNL     1      -3.279  -3.754   3.470  0.00  0.00    +0.000 A 
ATOM     30  C   UNL     1      -2.598  -4.567   2.582  0.00  0.00    +0.002 A 
ATOM     31  C   UNL     1      -1.954  -4.015   1.492  0.00  0.00    +0.023 A 
ENDBRANCH  24  26
ENDBRANCH  20  24
ENDBRANCH  19  20
ENDBRANCH   1  19
TORSDOF 7
