REMARK  Name = ZINC66533564
REMARK  7 active torsions:
REMARK  status: ('A' for Active; 'I' for Inactive)
REMARK    1  A    between atoms: C_1  and  C_2
REMARK    2  A    between atoms: C_2  and  N_3
REMARK    3  A    between atoms: C_9  and  C_15
REMARK    4  A    between atoms: C_15  and  O_17
REMARK    5  A    between atoms: O_17  and  C_18
REMARK    6  A    between atoms: C_24  and  O_26
REMARK    7  A    between atoms: O_26  and  C_27
REMARK                            x       y       z     vdW  Elec       q    Type
REMARK                         _______ _______ _______ _____ _____    ______ ____
ROOT
ATOM      1  N   UNL     1       0.688  -0.476  -1.203  0.00  0.00    -0.287 N 
ATOM      2  C   UNL     1      -0.023  -0.697  -2.331  0.00  0.00    +0.262 A 
ATOM      3  O   UNL     1      -1.350  -0.488  -2.361  0.00  0.00    -0.267 OA
ATOM      4  C   UNL     1       0.664  -1.151  -3.477  0.00  0.00    +0.065 A 
ATOM      5  C   UNL     1      -0.005  -1.401  -4.683  0.00  0.00    +0.016 A 
ATOM      6  C   UNL     1       0.692  -1.839  -5.768  0.00  0.00    +0.016 A 
ATOM      7  C   UNL     1       2.079  -2.045  -5.696  0.00  0.00    +0.061 A 
ATOM      8  C   UNL     1       2.767  -1.806  -4.517  0.00  0.00    +0.043 A 
ATOM      9  C   UNL     1       2.067  -1.355  -3.389  0.00  0.00    +0.080 A 
ATOM     10  N   UNL     1       2.691  -1.110  -2.228  0.00  0.00    -0.222 NA
ATOM     11  C   UNL     1       2.015  -0.679  -1.174  0.00  0.00    +0.183 A 
ATOM     12  S   UNL     1       2.864  -0.377   0.282  0.00  0.00    -0.011 S 
ENDROOT
BRANCH   1  14
ATOM     13  C   UNL     1      -0.019   1.526   0.010  0.00  0.00    +0.027 C 
ATOM     14  C   UNL     1       0.002  -0.004   0.002  0.00  0.00    +0.124 C 
ENDBRANCH   1  14
BRANCH   7  15
ATOM     15  C   UNL     1       2.813  -2.522  -6.889  0.00  0.00    +0.340 C 
ATOM     16  O   UNL     1       4.013  -2.702  -6.833  0.00  0.00    -0.245 OA
BRANCH  15  17
ATOM     17  O   UNL     1       2.150  -2.756  -8.038  0.00  0.00    -0.455 OA
BRANCH  17  18
ATOM     18  C   UNL     1       2.921  -3.215  -9.150  0.00  0.00    +0.205 C 
ATOM     19  C   UNL     1       3.421  -2.013  -9.955  0.00  0.00    +0.047 C 
ATOM     20  C   UNL     1       2.224  -1.206 -10.462  0.00  0.00    +0.004 C 
ATOM     21  C   UNL     1       1.353  -2.092 -11.356  0.00  0.00    +0.003 C 
ATOM     22  C   UNL     1       0.854  -3.294 -10.551  0.00  0.00    +0.035 C 
ATOM     23  C   UNL     1       2.051  -4.101 -10.044  0.00  0.00    +0.158 C 
BRANCH  23  24
ATOM     24  O   UNL     1       1.585  -5.223  -9.292  0.00  0.00    -0.376 OA
ATOM     25  C   UNL     1       1.372  -6.399 -10.075  0.00  0.00    +0.194 C 
ENDBRANCH  23  24
ENDBRANCH  17  18
ENDBRANCH  15  17
ENDBRANCH   7  15
TORSDOF 5
