REMARK  Name = ZINC09223707
REMARK  7 active torsions:
REMARK  status: ('A' for Active; 'I' for Inactive)
REMARK    1  A    between atoms: C_1  and  C_2
REMARK    2  A    between atoms: C_5  and  N_8
REMARK    3  A    between atoms: C_13  and  N_29
REMARK    4  A    between atoms: C_15  and  C_21
REMARK    5  A    between atoms: C_18  and  C_20
REMARK    6  A    between atoms: C_24  and  C_27
REMARK    7  A    between atoms: C_30  and  C_32
REMARK                            x       y       z     vdW  Elec       q    Type
REMARK                         _______ _______ _______ _____ _____    ______ ____
ROOT
ATOM      1  N   UNL     1      -2.598   6.821  -2.395  0.00  0.00    -0.206 N 
ATOM      2  C   UNL     1      -2.219   6.466  -1.136  0.00  0.00    +0.140 C 
ATOM      3  N   UNL     1      -2.928   6.297  -0.023  0.00  0.00    -0.162 NA
ATOM      4  C   UNL     1      -2.297   6.108   1.128  0.00  0.00    +0.259 C 
ATOM      5  O   UNL     1      -2.961   5.843   2.111  0.00  0.00    -0.272 OA
ATOM      6  C   UNL     1      -0.808   6.205   1.284  0.00  0.00    +0.173 C 
ATOM      7  C   UNL     1      -0.075   5.704   0.035  0.00  0.00    +0.083 C 
ATOM      8  C   UNL     1      -0.821   6.212  -1.176  0.00  0.00    +0.019 C 
ATOM      9  C   UNL     1      -0.374   6.497  -2.405  0.00  0.00    +0.026 C 
ATOM     10  N   UNL     1      -1.432   6.894  -3.175  0.00  0.00    -0.262 N 
ATOM     11  C   UNL     1       1.058   6.396  -2.864  0.00  0.00    +0.062 C 
ATOM     12  H   UNL     1      -1.385   7.179  -4.101  0.00  0.00    +0.170 HD
ENDROOT
BRANCH   1  17
ATOM     13  C   UNL     1      -7.897   7.812  -4.158  0.00  0.00    +0.044 C 
ATOM     14  C   UNL     1      -6.489   7.549  -3.689  0.00  0.00    -0.050 A 
ATOM     15  C   UNL     1      -5.434   7.662  -4.576  0.00  0.00    +0.005 A 
ATOM     16  C   UNL     1      -4.143   7.422  -4.150  0.00  0.00    +0.025 A 
ATOM     17  C   UNL     1      -3.904   7.066  -2.829  0.00  0.00    +0.055 A 
ATOM     18  C   UNL     1      -4.966   6.948  -1.942  0.00  0.00    +0.025 A 
ATOM     19  C   UNL     1      -6.255   7.194  -2.373  0.00  0.00    +0.005 A 
ENDBRANCH   1  17
BRANCH   7  20
ATOM     20  C   UNL     1      -0.055   4.197   0.026  0.00  0.00    -0.037 A 
ATOM     21  C   UNL     1       1.154   3.525   0.010  0.00  0.00    +0.005 A 
ATOM     22  C   UNL     1       1.180   2.146   0.002  0.00  0.00    +0.019 A 
ATOM     23  C   UNL     1      -0.017   1.428   0.010  0.00  0.00    +0.052 A 
ATOM     24  C   UNL     1      -1.234   2.113   0.019  0.00  0.00    +0.019 A 
ATOM     25  C   UNL     1      -1.246   3.492   0.034  0.00  0.00    +0.005 A 
BRANCH  23  26
ATOM     26  C   UNL     1       0.002  -0.004   0.002  0.00  0.00    +0.099 C 
ATOM     27  N   UNL     1       0.018  -1.140  -0.004  0.00  0.00    -0.191 NA
ENDBRANCH  23  26
ENDBRANCH   7  20
BRANCH   6  28
ATOM     28  N   UNL     1      -0.442   7.603   1.523  0.00  0.00    -0.299 N 
ATOM     29  C   UNL     1      -0.521   8.117   2.767  0.00  0.00    +0.245 C 
ATOM     30  O   UNL     1      -0.897   7.420   3.689  0.00  0.00    -0.270 OA
ATOM     31  H   UNL     1      -0.142   8.159   0.787  0.00  0.00    +0.150 HD
BRANCH  29  32
ATOM     32  C   UNL     1      -0.152   9.528   3.009  0.00  0.00    +0.037 A 
ATOM     33  C   UNL     1       0.285  10.329   1.953  0.00  0.00    +0.013 A 
ATOM     34  C   UNL     1       0.623  11.646   2.184  0.00  0.00    +0.001 A 
ATOM     35  C   UNL     1       0.540  12.171   3.462  0.00  0.00    +0.000 A 
ATOM     36  C   UNL     1       0.113  11.380   4.514  0.00  0.00    +0.001 A 
ATOM     37  C   UNL     1      -0.233  10.063   4.295  0.00  0.00    +0.013 A 
ENDBRANCH  29  32
ENDBRANCH   6  28
TORSDOF 5
