REMARK  Name = ZINC60451374
REMARK  9 active torsions:
REMARK  status: ('A' for Active; 'I' for Inactive)
REMARK    1  A    between atoms: C_1  and  C_2
REMARK    2  A    between atoms: C_2  and  C_3
REMARK    3  A    between atoms: C_2  and  C_4
REMARK    4  A    between atoms: C_4  and  O_5
REMARK    5  A    between atoms: O_5  and  C_6
REMARK    6  A    between atoms: C_11  and  C_12
REMARK    7  A    between atoms: C_12  and  N_13
REMARK    8  A    between atoms: N_13  and  C_14
REMARK    9  A    between atoms: C_19  and  N_20
REMARK                            x       y       z     vdW  Elec       q    Type
REMARK                         _______ _______ _______ _____ _____    ______ ____
ROOT
ATOM      1  C   UNL     1      -3.892   0.045   4.573  0.00  0.00    +0.060 A 
ATOM      2  C   UNL     1      -4.160   1.369   4.883  0.00  0.00    +0.053 A 
ATOM      3  C   UNL     1      -5.395   1.917   4.543  0.00  0.00    +0.080 A 
ATOM      4  C   UNL     1      -6.354   1.111   3.886  0.00  0.00    +0.067 A 
ATOM      5  C   UNL     1      -6.062  -0.219   3.583  0.00  0.00    +0.050 A 
ATOM      6  C   UNL     1      -4.845  -0.739   3.919  0.00  0.00    +0.148 A 
ATOM      7  C   UNL     1      -7.645   1.719   3.542  0.00  0.00    +0.259 A 
ATOM      8  O   UNL     1      -8.513   1.080   2.976  0.00  0.00    -0.267 OA
ATOM      9  N   UNL     1      -7.833   3.016   3.878  0.00  0.00    -0.313 N 
ATOM     10  H   UNL     1      -8.674   3.450   3.666  0.00  0.00    +0.170 HD
ATOM     11  C   UNL     1      -6.855   3.717   4.510  0.00  0.00    +0.199 A 
ATOM     12  N   UNL     1      -5.703   3.208   4.827  0.00  0.00    -0.237 NA
ENDROOT
BRANCH   6  13
ATOM     13  N   UNL     1      -4.534  -2.148   3.591  0.00  0.00    +0.058 N 
ATOM     14  O   UNL     1      -3.421  -2.454   3.232  0.00  0.00    -0.126 OA
ATOM     15  O   UNL     1      -5.393  -2.994   3.683  0.00  0.00    -0.126 OA
ENDBRANCH   6  13
BRANCH   1  16
ATOM     16  N   UNL     1      -2.660  -0.506   4.911  0.00  0.00    -0.338 N 
ATOM     17  H   UNL     1      -2.498  -1.453   4.774  0.00  0.00    +0.146 HD
BRANCH  16  18
ATOM     18  C   UNL     1      -1.607   0.343   5.474  0.00  0.00    +0.140 C 
BRANCH  18  24
ATOM     19  C   UNL     1       0.482  -0.819   4.716  0.00  0.00    +0.125 A 
ATOM     20  C   UNL     1       1.611  -1.583   4.975  0.00  0.00    +0.046 A 
ATOM     21  C   UNL     1       1.868  -2.019   6.260  0.00  0.00    +0.004 A 
ATOM     22  C   UNL     1       1.002  -1.696   7.288  0.00  0.00    +0.001 A 
ATOM     23  C   UNL     1      -0.124  -0.935   7.033  0.00  0.00    +0.009 A 
ATOM     24  C   UNL     1      -0.383  -0.491   5.750  0.00  0.00    +0.011 A 
BRANCH  19  25
ATOM     25  O   UNL     1       0.227  -0.387   3.453  0.00  0.00    -0.491 OA
BRANCH  25  26
ATOM     26  C   UNL     1       1.161  -0.762   2.438  0.00  0.00    +0.232 C 
BRANCH  26  28
ATOM     27  C   UNL     1       0.762   1.339   1.147  0.00  0.00    +0.010 C 
ATOM     28  C   UNL     1       0.710  -0.189   1.093  0.00  0.00    +0.020 C 
ATOM     29  C   UNL     1       1.639  -0.693  -0.013  0.00  0.00    +0.010 C 
ENDBRANCH  26  28
ENDBRANCH  25  26
ENDBRANCH  19  25
ENDBRANCH  18  24
ENDBRANCH  16  18
ENDBRANCH   1  16
TORSDOF 7
