REMARK  Name = ZINC09394750
REMARK  14 active torsions:
REMARK  status: ('A' for Active; 'I' for Inactive)
REMARK    1  A    between atoms: C_1  and  C_2
REMARK    2  A    between atoms: C_2  and  O_3
REMARK    3  A    between atoms: O_3  and  C_4
REMARK    4  A    between atoms: C_7  and  C_10
REMARK    5  A    between atoms: N_12  and  C_13
REMARK    6  A    between atoms: C_13  and  C_14
REMARK    7  A    between atoms: C_14  and  N_15
REMARK    8  A    between atoms: C_17  and  S_24
REMARK    9  A    between atoms: S_24  and  C_25
REMARK   10  A    between atoms: C_25  and  C_26
REMARK   11  A    between atoms: N_28  and  C_29
REMARK   12  A    between atoms: C_30  and  C_37
REMARK   13  A    between atoms: C_32  and  C_36
REMARK   14  A    between atoms: C_34  and  C_35
REMARK                            x       y       z     vdW  Elec       q    Type
REMARK                         _______ _______ _______ _____ _____    ______ ____
ROOT
ATOM      1  N   UNL     1      -8.744  -0.753  -1.268  0.00  0.00    -0.344 N 
ATOM      2  C   UNL     1      -7.480  -0.249  -1.060  0.00  0.00    +0.101 A 
ATOM      3  C   UNL     1      -7.556   1.065  -0.776  0.00  0.00    +0.034 A 
ATOM      4  C   UNL     1      -8.978   1.427  -0.800  0.00  0.00    +0.013 A 
ATOM      5  C   UNL     1      -9.677   0.249  -1.120  0.00  0.00    +0.050 A 
ATOM      6  C   UNL     1     -11.064   0.284  -1.218  0.00  0.00    +0.026 A 
ATOM      7  C   UNL     1     -11.735   1.469  -1.008  0.00  0.00    +0.002 A 
ATOM      8  C   UNL     1     -11.040   2.631  -0.699  0.00  0.00    +0.001 A 
ATOM      9  C   UNL     1      -9.677   2.618  -0.597  0.00  0.00    +0.011 A 
ENDROOT
BRANCH   1  10
ATOM     10  C   UNL     1      -9.050  -2.147  -1.599  0.00  0.00    +0.140 C 
BRANCH  10  11
ATOM     11  C   UNL     1      -9.172  -2.296  -3.117  0.00  0.00    +0.126 C 
BRANCH  11  14
ATOM     12  C   UNL     1      -9.632  -4.060  -4.734  0.00  0.00    +0.244 C 
ATOM     13  O   UNL     1      -9.515  -3.236  -5.621  0.00  0.00    -0.270 OA
ATOM     14  N   UNL     1      -9.478  -3.690  -3.447  0.00  0.00    -0.310 N 
ATOM     15  H   UNL     1      -9.571  -4.347  -2.739  0.00  0.00    +0.149 HD
BRANCH  12  19
ATOM     16  C   UNL     1     -10.520  -8.101  -5.691  0.00  0.00    +0.121 A 
ATOM     17  C   UNL     1     -10.388  -7.161  -6.707  0.00  0.00    +0.046 A 
ATOM     18  C   UNL     1     -10.100  -5.849  -6.400  0.00  0.00    +0.016 A 
ATOM     19  C   UNL     1      -9.940  -5.464  -5.067  0.00  0.00    +0.037 A 
ATOM     20  C   UNL     1     -10.069  -6.413  -4.049  0.00  0.00    +0.016 A 
ATOM     21  C   UNL     1     -10.363  -7.721  -4.363  0.00  0.00    +0.046 A 
BRANCH  16  22
ATOM     22  O   UNL     1     -10.803  -9.392  -5.997  0.00  0.00    -0.492 OA
BRANCH  22  24
ATOM     23  C   UNL     1     -11.244 -11.703  -5.442  0.00  0.00    +0.048 C 
ATOM     24  C   UNL     1     -10.925 -10.306  -4.905  0.00  0.00    +0.225 C 
ENDBRANCH  22  24
ENDBRANCH  16  22
ENDBRANCH  12  19
ENDBRANCH  11  14
ENDBRANCH  10  11
ENDBRANCH   1  10
BRANCH   3  25
ATOM     25  S   UNL     1      -6.205   2.144  -0.435  0.00  0.00    -0.114 S 
BRANCH  25  26
ATOM     26  C   UNL     1      -4.746   1.073  -0.559  0.00  0.00    +0.170 C 
BRANCH  26  27
ATOM     27  C   UNL     1      -3.504   1.882  -0.285  0.00  0.00    +0.227 C 
ATOM     28  O   UNL     1      -3.595   3.064  -0.031  0.00  0.00    -0.275 OA
ATOM     29  N   UNL     1      -2.294   1.291  -0.322  0.00  0.00    -0.284 N 
ATOM     30  H   UNL     1      -2.226   0.331  -0.445  0.00  0.00    +0.155 HD
BRANCH  29  31
ATOM     31  C   UNL     1      -1.134   2.062  -0.184  0.00  0.00    +0.039 A 
ATOM     32  C   UNL     1      -0.958   2.859   0.940  0.00  0.00    -0.029 A 
ATOM     33  C   UNL     1       0.190   3.615   1.076  0.00  0.00    +0.008 A 
ATOM     34  C   UNL     1       1.161   3.583   0.092  0.00  0.00    -0.050 A 
ATOM     35  C   UNL     1       0.986   2.795  -1.031  0.00  0.00    +0.008 A 
ATOM     36  C   UNL     1      -0.160   2.038  -1.173  0.00  0.00    -0.029 A 
ATOM     37  C   UNL     1      -0.350   1.180  -2.398  0.00  0.00    +0.045 C 
ATOM     38  C   UNL     1       2.413   4.408   0.244  0.00  0.00    +0.044 C 
ATOM     39  C   UNL     1      -2.016   2.893   2.013  0.00  0.00    +0.045 C 
ENDBRANCH  29  31
ENDBRANCH  26  27
ENDBRANCH  25  26
ENDBRANCH   3  25
TORSDOF 10
