REMARK  Name = ZINC44608504
REMARK  11 active torsions:
REMARK  status: ('A' for Active; 'I' for Inactive)
REMARK    1  A    between atoms: C_1  and  C_2
REMARK    2  A    between atoms: C_2  and  O_4
REMARK    3  A    between atoms: O_4  and  C_5
REMARK    4  A    between atoms: C_5  and  C_6
REMARK    5  A    between atoms: C_8  and  O_33
REMARK    6  A    between atoms: C_10  and  O_29
REMARK    7  A    between atoms: C_12  and  N_18
REMARK    8  A    between atoms: O_29  and  C_30
REMARK    9  A    between atoms: C_30  and  C_32
REMARK   10  A    between atoms: O_33  and  C_34
REMARK   11  A    between atoms: C_34  and  C_36
REMARK                            x       y       z     vdW  Elec       q    Type
REMARK                         _______ _______ _______ _____ _____    ______ ____
ROOT
ATOM      1  C   UNL     1      -2.430  -2.809  -0.053  0.00  0.00    +0.201 C 
ATOM      2  C   UNL     1      -2.382  -4.336  -0.157  0.00  0.00    +0.251 C 
ATOM      3  C   UNL     1      -3.806  -4.892  -0.052  0.00  0.00    +0.244 C 
ATOM      4  C   UNL     1      -4.432  -4.418   1.263  0.00  0.00    +0.168 C 
ATOM      5  C   UNL     1      -4.401  -2.888   1.312  0.00  0.00    +0.210 C 
ATOM      6  O   UNL     1      -3.052  -2.436   1.178  0.00  0.00    -0.353 OA
ATOM      7 BR   UNL     1      -5.132  -2.272   3.029  0.00  0.00    -0.055 Br
ENDROOT
BRANCH   4   8
ATOM      8  N   UNL     1      -3.671  -4.961   2.391  0.00  0.00    -0.224 N 
ATOM      9  C   UNL     1      -3.616  -6.265   2.716  0.00  0.00    +0.254 C 
ATOM     10  O   UNL     1      -4.182  -7.166   2.129  0.00  0.00    -0.270 OA
ATOM     11  C   UNL     1      -2.752  -6.419   3.905  0.00  0.00    +0.049 A 
ATOM     12  C   UNL     1      -2.339  -7.499   4.668  0.00  0.00    +0.014 A 
ATOM     13  C   UNL     1      -1.502  -7.294   5.753  0.00  0.00    +0.001 A 
ATOM     14  C   UNL     1      -1.077  -6.020   6.080  0.00  0.00    +0.001 A 
ATOM     15  C   UNL     1      -1.482  -4.929   5.325  0.00  0.00    +0.014 A 
ATOM     16  C   UNL     1      -2.319  -5.119   4.238  0.00  0.00    +0.049 A 
ATOM     17  C   UNL     1      -2.930  -4.221   3.236  0.00  0.00    +0.254 C 
ATOM     18  O   UNL     1      -2.788  -3.015   3.185  0.00  0.00    -0.270 OA
ENDBRANCH   4   8
BRANCH   1  19
ATOM     19  C   UNL     1      -1.007  -2.250  -0.097  0.00  0.00    +0.267 C 
BRANCH  19  20
ATOM     20  O   UNL     1      -1.057  -0.822  -0.117  0.00  0.00    -0.462 OA
BRANCH  20  22
ATOM     21  C   UNL     1       0.143   1.335  -0.179  0.00  0.00    +0.136 C 
ATOM     22  C   UNL     1       0.117  -0.172  -0.156  0.00  0.00    +0.304 C 
ATOM     23  O   UNL     1       1.152  -0.794  -0.172  0.00  0.00    -0.251 OA
ENDBRANCH  20  22
ENDBRANCH  19  20
ENDBRANCH   1  19
BRANCH   3  24
ATOM     24  O   UNL     1      -4.586  -4.420  -1.152  0.00  0.00    -0.456 OA
BRANCH  24  25
ATOM     25  C   UNL     1      -4.592  -5.174  -2.263  0.00  0.00    +0.304 C 
ATOM     26  O   UNL     1      -3.957  -6.201  -2.299  0.00  0.00    -0.251 OA
ATOM     27  C   UNL     1      -5.392  -4.740  -3.464  0.00  0.00    +0.136 C 
ENDBRANCH  24  25
ENDBRANCH   3  24
BRANCH   2  28
ATOM     28  O   UNL     1      -1.813  -4.712  -1.412  0.00  0.00    -0.455 OA
BRANCH  28  29
ATOM     29  C   UNL     1      -0.481  -4.871  -1.454  0.00  0.00    +0.304 C 
ATOM     30  O   UNL     1       0.180  -4.698  -0.457  0.00  0.00    -0.251 OA
ATOM     31  C   UNL     1       0.191  -5.267  -2.743  0.00  0.00    +0.136 C 
ENDBRANCH  28  29
ENDBRANCH   2  28
TORSDOF 8
