REMARK  Name = ZINC66136053
REMARK  10 active torsions:
REMARK  status: ('A' for Active; 'I' for Inactive)
REMARK    1  A    between atoms: C_1  and  C_2
REMARK    2  A    between atoms: C_2  and  C_3
REMARK    3  A    between atoms: C_3  and  C_5
REMARK    4  A    between atoms: C_3  and  C_6
REMARK    5  A    between atoms: C_9  and  O_13
REMARK    6  A    between atoms: O_13  and  C_14
REMARK    7  A    between atoms: C_14  and  C_15
REMARK    8  A    between atoms: C_16  and  C_23
REMARK    9  A    between atoms: C_17  and  C_22
REMARK   10  A    between atoms: N_25  and  C_26
REMARK                            x       y       z     vdW  Elec       q    Type
REMARK                         _______ _______ _______ _____ _____    ______ ____
ROOT
ATOM      1  C   UNL     1       0.789  -8.326  -0.678  0.00  0.00    +0.096 A 
ATOM      2  C   UNL     1      -0.357  -8.988  -0.218  0.00  0.00    +0.082 A 
ATOM      3  C   UNL     1      -0.475 -10.361  -0.470  0.00  0.00    +0.056 A 
ATOM      4  N   UNL     1       0.490 -10.977  -1.127  0.00  0.00    -0.219 NA
ATOM      5  C   UNL     1       1.559 -10.314  -1.546  0.00  0.00    +0.213 A 
ATOM      6  N   UNL     1       1.706  -9.013  -1.332  0.00  0.00    -0.215 NA
ATOM      7  N   UNL     1       2.545 -10.996  -2.230  0.00  0.00    -0.327 N 
ATOM      8  C   UNL     1      -1.686 -11.124   0.002  0.00  0.00    +0.066 C 
ATOM      9  H   UNL     1       2.450 -11.946  -2.397  0.00  0.00    +0.145 HD
ATOM     10  H   UNL     1       3.333 -10.524  -2.542  0.00  0.00    +0.145 HD
ENDROOT
BRANCH   2  11
ATOM     11  C   UNL     1      -1.411  -8.259   0.513  0.00  0.00    +0.247 C 
ATOM     12  O   UNL     1      -2.331  -7.749  -0.096  0.00  0.00    -0.270 OA
ATOM     13  N   UNL     1      -1.353  -8.158   1.856  0.00  0.00    -0.314 N 
ATOM     14  C   UNL     1      -2.399  -7.434   2.582  0.00  0.00    +0.128 C 
ATOM     15  H   UNL     1      -0.618  -8.565   2.341  0.00  0.00    +0.149 HD
ENDBRANCH   2  11
BRANCH   1  16
ATOM     16  C   UNL     1       0.968  -6.849  -0.435  0.00  0.00    +0.285 C 
BRANCH  16  17
ATOM     17  O   UNL     1       0.397  -6.115  -1.520  0.00  0.00    -0.485 OA
BRANCH  17  21
ATOM     18  C   UNL     1       0.632  -2.000  -1.327  0.00  0.00    -0.043 A 
ATOM     19  C   UNL     1       1.164  -2.771  -0.310  0.00  0.00    +0.007 A 
ATOM     20  C   UNL     1       1.086  -4.149  -0.372  0.00  0.00    +0.047 A 
ATOM     21  C   UNL     1       0.474  -4.760  -1.457  0.00  0.00    +0.135 A 
ATOM     22  C   UNL     1      -0.060  -3.985  -2.477  0.00  0.00    +0.060 A 
ATOM     23  C   UNL     1       0.015  -2.606  -2.407  0.00  0.00    +0.022 A 
ATOM     24 BR   UNL     1      -0.896  -4.813  -3.957  0.00  0.00    -0.047 Br
BRANCH  18  25
ATOM     25  C   UNL     1       0.718  -0.497  -1.257  0.00  0.00    +0.016 C 
ATOM     26  C   UNL     1       2.187  -0.073  -1.207  0.00  0.00    +0.012 C 
BRANCH  25  28
ATOM     27  C   UNL     1      -0.019   1.526   0.010  0.00  0.00    +0.004 C 
ATOM     28  C   UNL     1       0.002  -0.004   0.002  0.00  0.00    +0.004 C 
ENDBRANCH  25  28
ENDBRANCH  18  25
ENDBRANCH  17  21
ENDBRANCH  16  17
ENDBRANCH   1  16
TORSDOF 6
