REMARK  Name = ZINC13065436
REMARK  9 active torsions:
REMARK  status: ('A' for Active; 'I' for Inactive)
REMARK    1  A    between atoms: C_1  and  C_2
REMARK    2  A    between atoms: C_5  and  C_8
REMARK    3  A    between atoms: C_8  and  N_60
REMARK    4  A    between atoms: C_9  and  C_10
REMARK    5  A    between atoms: C_9  and  N_60
REMARK    6  A    between atoms: C_25  and  C_26
REMARK    7  A    between atoms: C_25  and  N_60
REMARK    8  A    between atoms: N_30  and  C_31
REMARK    9  A    between atoms: C_31  and  C_32
REMARK                            x       y       z     vdW  Elec       q    Type
REMARK                         _______ _______ _______ _____ _____    ______ ____
ROOT
ATOM      1  N   UNL     1      -5.201   0.278   1.902  0.00  0.00    +0.390 N 
ATOM      2  H   UNL     1      -4.397   0.003   2.479  0.00  0.00    -0.080 HD
ENDROOT
BRANCH   1   3
ATOM      3  C   UNL     1      -5.708   1.583   2.376  0.00  0.00    -0.042 C 
BRANCH   3   8
ATOM      4  C   UNL     1      -6.787   1.221   8.042  0.00  0.00    +0.044 C 
ATOM      5  C   UNL     1      -6.506   1.315   6.564  0.00  0.00    -0.050 A 
ATOM      6  C   UNL     1      -5.221   1.563   6.120  0.00  0.00    +0.003 A 
ATOM      7  C   UNL     1      -4.963   1.650   4.765  0.00  0.00    +0.002 A 
ATOM      8  C   UNL     1      -5.990   1.488   3.854  0.00  0.00    -0.064 A 
ATOM      9  C   UNL     1      -7.276   1.245   4.298  0.00  0.00    +0.002 A 
ATOM     10  C   UNL     1      -7.533   1.154   5.654  0.00  0.00    +0.003 A 
ENDBRANCH   3   8
ENDBRANCH   1   3
BRANCH   1  11
ATOM     11  C   UNL     1      -4.767   0.387   0.494  0.00  0.00    -0.036 C 
BRANCH  11  12
ATOM     12  C   UNL     1      -3.550   1.272   0.427  0.00  0.00    +0.001 A 
ATOM     13  C   UNL     1      -2.309   0.721   0.455  0.00  0.00    +0.017 A 
ATOM     14  C   UNL     1      -1.148   1.607   0.384  0.00  0.00    +0.002 A 
ATOM     15  C   UNL     1       0.155   1.094   0.415  0.00  0.00    +0.059 A 
ATOM     16  C   UNL     1       1.229   1.954   0.351  0.00  0.00    +0.167 A 
ATOM     17  C   UNL     1       1.022   3.336   0.261  0.00  0.00    +0.168 A 
ATOM     18  C   UNL     1      -0.261   3.851   0.235  0.00  0.00    +0.075 A 
ATOM     19  C   UNL     1      -1.355   2.998   0.299  0.00  0.00    +0.053 A 
ATOM     20  N   UNL     1      -2.642   3.494   0.275  0.00  0.00    -0.322 N 
ATOM     21  H   UNL     1      -2.784   4.452   0.213  0.00  0.00    +0.169 HD
ATOM     22  C   UNL     1      -3.703   2.671   0.337  0.00  0.00    +0.251 A 
ATOM     23  O   UNL     1      -4.826   3.145   0.314  0.00  0.00    -0.268 OA
ATOM     24  O   UNL     1       2.238   3.953   0.212  0.00  0.00    -0.453 OA
ATOM     25  C   UNL     1       3.185   2.978   0.686  0.00  0.00    +0.466 C 
ATOM     26  O   UNL     1       2.574   1.716   0.359  0.00  0.00    -0.453 OA
ENDBRANCH  11  12
ENDBRANCH   1  11
BRANCH   1  27
ATOM     27  C   UNL     1      -6.256  -0.750   2.028  0.00  0.00    +0.001 C 
BRANCH  27  28
ATOM     28  C   UNL     1      -5.628  -2.110   1.865  0.00  0.00    +0.136 A 
ATOM     29  N   UNL     1      -5.566  -2.816   0.762  0.00  0.00    -0.115 NA
ATOM     30  N   UNL     1      -4.952  -3.917   1.028  0.00  0.00    -0.023 NA
ATOM     31  N   UNL     1      -4.630  -3.936   2.274  0.00  0.00    -0.044 NA
ATOM     32  N   UNL     1      -5.029  -2.839   2.824  0.00  0.00    -0.224 N 
BRANCH  32  33
ATOM     33  C   UNL     1      -4.862  -2.459   4.229  0.00  0.00    +0.221 C 
BRANCH  33  34
ATOM     34  C   UNL     1      -5.978  -3.055   5.047  0.00  0.00    +0.126 A 
ATOM     35  C   UNL     1      -5.961  -4.263   5.640  0.00  0.00    +0.046 A 
ATOM     36  C   UNL     1      -7.203  -4.414   6.298  0.00  0.00    +0.041 A 
ATOM     37  C   UNL     1      -7.908  -3.293   6.062  0.00  0.00    +0.195 A 
ATOM     38  O   UNL     1      -7.161  -2.474   5.303  0.00  0.00    -0.466 OA
ENDBRANCH  33  34
ENDBRANCH  32  33
ENDBRANCH  27  28
ENDBRANCH   1  27
TORSDOF 8
