REMARK  Name = ZINC36660303
REMARK  13 active torsions:
REMARK  status: ('A' for Active; 'I' for Inactive)
REMARK    1  A    between atoms: C_1  and  C_2
REMARK    2  A    between atoms: C_2  and  N_3
REMARK    3  A    between atoms: N_3  and  C_4
REMARK    4  A    between atoms: N_3  and  C_6
REMARK    5  A    between atoms: C_4  and  C_5
REMARK    6  A    between atoms: C_6  and  C_7
REMARK    7  A    between atoms: C_7  and  N_8
REMARK    8  A    between atoms: C_13  and  C_19
REMARK    9  A    between atoms: C_15  and  C_18
REMARK   10  A    between atoms: C_20  and  C_22
REMARK   11  A    between atoms: N_27  and  S_28
REMARK   12  A    between atoms: S_28  and  C_31
REMARK   13  A    between atoms: C_34  and  C_37
REMARK                            x       y       z     vdW  Elec       q    Type
REMARK                         _______ _______ _______ _____ _____    ______ ____
ROOT
ATOM      1  N   UNL     1       1.919  -3.682   0.162  0.00  0.00    -0.251 N 
ATOM      2  C   UNL     1       0.807  -4.336  -0.343  0.00  0.00    +0.168 A 
ATOM      3  N   UNL     1      -0.244  -3.829  -0.943  0.00  0.00    -0.224 NA
ATOM      4  C   UNL     1      -1.265  -4.593  -1.388  0.00  0.00    +0.081 A 
ATOM      5  C   UNL     1      -2.446  -4.176  -2.045  0.00  0.00    +0.032 A 
ATOM      6  C   UNL     1      -3.390  -5.089  -2.434  0.00  0.00    -0.048 A 
ATOM      7  C   UNL     1      -3.225  -6.447  -2.200  0.00  0.00    +0.008 A 
ATOM      8  C   UNL     1      -2.083  -6.890  -1.560  0.00  0.00    -0.034 A 
ATOM      9  C   UNL     1      -1.131  -5.982  -1.167  0.00  0.00    +0.044 A 
ATOM     10  S   UNL     1       0.443  -6.085  -0.349  0.00  0.00    -0.052 S 
ATOM     11  C   UNL     1      -1.884  -8.360  -1.296  0.00  0.00    +0.045 C 
ATOM     12  C   UNL     1      -4.636  -4.608  -3.132  0.00  0.00    +0.044 C 
ATOM     13  C   UNL     1       2.956  -4.393   0.648  0.00  0.00    +0.240 C 
ATOM     14  O   UNL     1       3.889  -3.823   1.174  0.00  0.00    -0.273 OA
ENDROOT
BRANCH  13  15
ATOM     15  C   UNL     1       2.957  -5.896   0.538  0.00  0.00    +0.166 C 
ATOM     16  C   UNL     1       3.161  -6.314  -0.933  0.00  0.00    +0.031 C 
ATOM     17  C   UNL     1       4.684  -6.606  -1.004  0.00  0.00    +0.019 C 
ATOM     18  C   UNL     1       4.948  -7.215   0.396  0.00  0.00    +0.110 C 
ATOM     19  N   UNL     1       4.075  -6.454   1.313  0.00  0.00    -0.165 NA
BRANCH  19  20
ATOM     20  S   UNL     1       4.314  -6.258   2.940  0.00  0.00    +0.062 S 
ATOM     21  O   UNL     1       5.704  -6.442   3.171  0.00  0.00    -0.153 OA
ATOM     22  O   UNL     1       3.631  -5.068   3.310  0.00  0.00    -0.153 OA
BRANCH  20  23
ATOM     23  C   UNL     1       3.488  -7.586   3.751  0.00  0.00    +0.106 A 
ATOM     24  C   UNL     1       2.167  -7.448   4.132  0.00  0.00    +0.029 A 
ATOM     25  C   UNL     1       1.519  -8.490   4.769  0.00  0.00    +0.005 A 
ATOM     26  C   UNL     1       2.193  -9.670   5.025  0.00  0.00    -0.050 A 
ATOM     27  C   UNL     1       3.514  -9.807   4.643  0.00  0.00    +0.005 A 
ATOM     28  C   UNL     1       4.161  -8.767   4.003  0.00  0.00    +0.029 A 
ATOM     29  C   UNL     1       1.487 -10.805   5.720  0.00  0.00    +0.044 C 
ENDBRANCH  20  23
ENDBRANCH  19  20
ENDBRANCH  13  15
BRANCH   1  30
ATOM     30  C   UNL     1       1.968  -2.218   0.168  0.00  0.00    +0.097 C 
BRANCH  30  31
ATOM     31  C   UNL     1       1.494  -1.697   1.526  0.00  0.00    -0.059 C 
BRANCH  31  32
ATOM     32  N   UNL     1       1.448  -0.229   1.499  0.00  0.00    +0.380 N 
ATOM     33  H   UNL     1       2.350   0.131   1.223  0.00  0.00    -0.082 HD
BRANCH  32  35
ATOM     34  C   UNL     1       0.479   1.735   0.403  0.00  0.00    -0.017 C 
ATOM     35  C   UNL     1       0.430   0.212   0.536  0.00  0.00    -0.082 C 
ENDBRANCH  32  35
BRANCH  32  36
ATOM     36  C   UNL     1       1.108   0.276   2.836  0.00  0.00    -0.082 C 
ATOM     37  C   UNL     1       2.240  -0.059   3.810  0.00  0.00    -0.017 C 
ENDBRANCH  32  36
ENDBRANCH  31  32
ENDBRANCH  30  31
ENDBRANCH   1  30
TORSDOF 8
