REMARK  Name = ZINC15449302
REMARK  7 active torsions:
REMARK  status: ('A' for Active; 'I' for Inactive)
REMARK    1  A    between atoms: C_1  and  C_2
REMARK    2  A    between atoms: C_2  and  C_3
REMARK    3  A    between atoms: C_14  and  C_15
REMARK    4  A    between atoms: C_14  and  O_17
REMARK    5  A    between atoms: O_17  and  C_18
REMARK    6  A    between atoms: C_18  and  C_20
REMARK    7  A    between atoms: N_26  and  O_27
REMARK                            x       y       z     vdW  Elec       q    Type
REMARK                         _______ _______ _______ _____ _____    ______ ____
ROOT
ATOM      1  C   UNL     1       0.784  -0.426  -1.230  0.00  0.00    +0.025 C 
ATOM      2  C   UNL     1      -0.160  -0.249  -0.054  0.00  0.00    +0.012 C 
ATOM      3  C   UNL     1      -0.445   1.254   0.063  0.00  0.00    +0.005 C 
ATOM      4  C   UNL     1       0.829   2.079   0.234  0.00  0.00    -0.000 C 
ATOM      5  C   UNL     1       1.879   1.762  -0.831  0.00  0.00    -0.003 C 
ATOM      6  C   UNL     1       2.117   0.260  -0.832  0.00  0.00    +0.004 C 
ATOM      7  C   UNL     1       3.074  -0.277  -1.910  0.00  0.00    +0.009 C 
ATOM      8  C   UNL     1       2.657  -1.766  -2.053  0.00  0.00    +0.062 C 
ATOM      9  C   UNL     1       1.192  -1.860  -1.557  0.00  0.00    +0.179 C 
ATOM     10  C   UNL     1       3.204   2.467  -0.558  0.00  0.00    +0.008 C 
ATOM     11  C   UNL     1       3.008   3.833   0.087  0.00  0.00    +0.031 C 
ATOM     12  C   UNL     1       1.641   4.361  -0.274  0.00  0.00    -0.064 C 
ATOM     13  C   UNL     1       1.508   5.488  -0.962  0.00  0.00    +0.026 C 
ATOM     14  C   UNL     1       0.181   6.000  -1.330  0.00  0.00    +0.080 C 
ATOM     15  N   UNL     1       0.073   7.117  -1.976  0.00  0.00    -0.092 NA
ATOM     16  C   UNL     1      -1.054   5.221  -0.954  0.00  0.00    +0.059 C 
ATOM     17  C   UNL     1      -0.693   3.734  -0.860  0.00  0.00    +0.014 C 
ATOM     18  C   UNL     1       0.438   3.562   0.155  0.00  0.00    +0.019 C 
ENDROOT
BRANCH   1  20
ATOM     19  C   UNL     1      -1.223  -0.264  -2.710  0.00  0.00    +0.004 C 
ATOM     20  C   UNL     1       0.200   0.247  -2.474  0.00  0.00    +0.009 C 
ENDBRANCH   1  20
BRANCH   9  21
ATOM     21  C   UNL     1       1.116  -2.700  -0.351  0.00  0.00    -0.058 C 
ATOM     22  C   UNL     1       1.054  -3.369   0.612  0.00  0.00    +0.008 C 
ENDBRANCH   9  21
BRANCH  15  23
ATOM     23  O   UNL     1      -1.206   7.609  -2.330  0.00  0.00    -0.409 OA
ATOM     24  H   UNL     1      -1.186   8.449  -2.809  0.00  0.00    +0.328 HD
ENDBRANCH  15  23
BRANCH   9  25
ATOM     25  O   UNL     1       0.340  -2.400  -2.601  0.00  0.00    -0.445 OA
BRANCH  25  26
ATOM     26  C   UNL     1       0.582  -3.660  -2.994  0.00  0.00    +0.305 C 
ATOM     27  O   UNL     1       1.478  -4.291  -2.484  0.00  0.00    -0.251 OA
ATOM     28  C   UNL     1      -0.262  -4.289  -4.073  0.00  0.00    +0.136 C 
ENDBRANCH  25  26
ENDBRANCH   9  25
TORSDOF 5
