REMARK  Name = ZINC29675364
REMARK  8 active torsions:
REMARK  status: ('A' for Active; 'I' for Inactive)
REMARK    1  A    between atoms: C_1  and  C_2
REMARK    2  A    between atoms: C_2  and  C_3
REMARK    3  A    between atoms: C_2  and  C_4
REMARK    4  A    between atoms: C_2  and  C_5
REMARK    5  A    between atoms: N_13  and  C_17
REMARK    6  A    between atoms: C_17  and  C_18
REMARK    7  A    between atoms: N_20  and  N_21
REMARK    8  A    between atoms: C_22  and  C_24
REMARK                            x       y       z     vdW  Elec       q    Type
REMARK                         _______ _______ _______ _____ _____    ______ ____
ROOT
ATOM      1  C   UNL     1      -0.019   1.526   0.010  0.00  0.00    -0.005 C 
ATOM      2  C   UNL     1      -0.759   2.033  -1.229  0.00  0.00    +0.006 C 
ATOM      3  C   UNL     1      -0.790   3.563  -1.213  0.00  0.00    +0.035 C 
ATOM      4  C   UNL     1       0.636   4.103  -1.197  0.00  0.00    +0.113 C 
ATOM      5  C   UNL     1       1.395   3.586   0.020  0.00  0.00    +0.035 C 
ATOM      6  C   UNL     1       1.417   2.055  -0.000  0.00  0.00    +0.006 C 
ATOM      7  C   UNL     1       0.627   5.614  -1.209  0.00  0.00    +0.247 C 
ATOM      8  O   UNL     1       0.148   6.352  -0.374  0.00  0.00    -0.273 OA
ATOM      9  N   UNL     1       1.264   5.969  -2.344  0.00  0.00    -0.215 N 
ATOM     10  C   UNL     1       1.667   4.899  -3.038  0.00  0.00    +0.310 C 
ATOM     11  O   UNL     1       2.264   4.964  -4.095  0.00  0.00    -0.252 OA
ATOM     12  N   UNL     1       1.338   3.740  -2.434  0.00  0.00    -0.285 N 
ATOM     13  H   UNL     1       1.493   2.682  -2.689  0.00  0.00    +0.151 HD
ENDROOT
BRANCH   1  15
ATOM     14  C   UNL     1       0.742  -0.511   1.242  0.00  0.00    +0.011 C 
ATOM     15  C   UNL     1       0.002  -0.004   0.002  0.00  0.00    -0.035 C 
ATOM     16  C   UNL     1      -1.433  -0.534   0.013  0.00  0.00    +0.011 C 
ATOM     17  C   UNL     1       0.718  -0.497  -1.257  0.00  0.00    +0.011 C 
ENDBRANCH   1  15
BRANCH   9  18
ATOM     18  C   UNL     1       1.487   7.355  -2.764  0.00  0.00    +0.215 C 
BRANCH  18  19
ATOM     19  C   UNL     1       2.800   7.843  -2.209  0.00  0.00    +0.247 C 
ATOM     20  O   UNL     1       3.483   7.106  -1.530  0.00  0.00    -0.273 OA
ATOM     21  N   UNL     1       3.216   9.099  -2.468  0.00  0.00    -0.233 N 
ATOM     22  H   UNL     1       2.597   9.767  -3.084  0.00  0.00    +0.173 HD
BRANCH  21  23
ATOM     23  N   UNL     1       4.437   9.552  -1.953  0.00  0.00    -0.230 N 
ATOM     24  C   UNL     1       4.853  10.808  -2.212  0.00  0.00    +0.261 C 
ATOM     25  O   UNL     1       4.169  11.547  -2.892  0.00  0.00    -0.269 OA
ATOM     26  H   UNL     1       5.057   8.884  -1.337  0.00  0.00    +0.173 HD
BRANCH  24  27
ATOM     27  C   UNL     1       6.141  11.286  -1.668  0.00  0.00    +0.052 A 
ATOM     28  C   UNL     1       6.927  10.442  -0.881  0.00  0.00    +0.014 A 
ATOM     29  C   UNL     1       8.131  10.893  -0.381  0.00  0.00    +0.001 A 
ATOM     30  C   UNL     1       8.556  12.183  -0.648  0.00  0.00    +0.001 A 
ATOM     31  C   UNL     1       7.781  13.027  -1.423  0.00  0.00    +0.016 A 
ATOM     32  C   UNL     1       6.576  12.587  -1.934  0.00  0.00    +0.030 A 
ATOM     33 BR   UNL     1       5.516  13.742  -2.992  0.00  0.00    -0.050 Br
ENDBRANCH  24  27
ENDBRANCH  21  23
ENDBRANCH  18  19
ENDBRANCH   9  18
TORSDOF 5
