REMARK  Name = ZINC13033385
REMARK  11 active torsions:
REMARK  status: ('A' for Active; 'I' for Inactive)
REMARK    1  A    between atoms: C_1  and  C_2
REMARK    2  A    between atoms: C_5  and  C_8
REMARK    3  A    between atoms: C_8  and  N_66
REMARK    4  A    between atoms: C_9  and  C_10
REMARK    5  A    between atoms: C_9  and  N_66
REMARK    6  A    between atoms: C_13  and  C_23
REMARK    7  A    between atoms: C_16  and  C_22
REMARK    8  A    between atoms: C_24  and  C_25
REMARK    9  A    between atoms: C_24  and  N_66
REMARK   10  A    between atoms: N_29  and  C_30
REMARK   11  A    between atoms: C_30  and  C_31
REMARK                            x       y       z     vdW  Elec       q    Type
REMARK                         _______ _______ _______ _____ _____    ______ ____
ROOT
ATOM      1  N   UNL     1       1.602  -2.187  -0.659  0.00  0.00    +0.390 N 
ATOM      2  H   UNL     1       0.903  -1.957  -1.376  0.00  0.00    -0.080 HD
ENDROOT
BRANCH   1   3
ATOM      3  C   UNL     1       2.953  -2.018  -1.234  0.00  0.00    -0.042 C 
BRANCH   3   8
ATOM      4  C   UNL     1       3.083  -4.523  -6.440  0.00  0.00    +0.044 C 
ATOM      5  C   UNL     1       3.049  -3.870  -5.082  0.00  0.00    -0.050 A 
ATOM      6  C   UNL     1       2.568  -2.581  -4.947  0.00  0.00    +0.003 A 
ATOM      7  C   UNL     1       2.537  -1.982  -3.702  0.00  0.00    +0.002 A 
ATOM      8  C   UNL     1       2.987  -2.671  -2.591  0.00  0.00    -0.064 A 
ATOM      9  C   UNL     1       3.472  -3.959  -2.727  0.00  0.00    +0.002 A 
ATOM     10  C   UNL     1       3.499  -4.559  -3.972  0.00  0.00    +0.003 A 
ENDBRANCH   3   8
ENDBRANCH   1   3
BRANCH   1  11
ATOM     11  C   UNL     1       1.406  -3.587  -0.229  0.00  0.00    -0.036 C 
BRANCH  11  12
ATOM     12  C   UNL     1      -0.072  -3.852  -0.102  0.00  0.00    +0.001 A 
ATOM     13  C   UNL     1      -0.758  -4.371  -1.151  0.00  0.00    +0.017 A 
ATOM     14  C   UNL     1      -2.193  -4.616  -0.995  0.00  0.00    +0.002 A 
ATOM     15  C   UNL     1      -2.953  -5.150  -2.040  0.00  0.00    -0.041 A 
ATOM     16  C   UNL     1      -4.290  -5.366  -1.863  0.00  0.00    +0.004 A 
ATOM     17  C   UNL     1      -4.901  -5.061  -0.655  0.00  0.00    +0.005 A 
ATOM     18  C   UNL     1      -4.172  -4.534   0.389  0.00  0.00    -0.026 A 
ATOM     19  C   UNL     1      -2.809  -4.305   0.232  0.00  0.00    +0.052 A 
ATOM     20  N   UNL     1      -2.055  -3.779   1.259  0.00  0.00    -0.322 N 
ATOM     21  H   UNL     1      -2.481  -3.566   2.104  0.00  0.00    +0.169 HD
ATOM     22  C   UNL     1      -0.736  -3.563   1.109  0.00  0.00    +0.251 A 
ATOM     23  O   UNL     1      -0.100  -3.101   2.040  0.00  0.00    -0.268 OA
ATOM     24  C   UNL     1      -4.848  -4.207   1.696  0.00  0.00    +0.046 C 
ATOM     25  C   UNL     1      -2.300  -5.484  -3.357  0.00  0.00    +0.044 C 
ENDBRANCH  11  12
ENDBRANCH   1  11
BRANCH   1  26
ATOM     26  C   UNL     1       1.425  -1.276   0.492  0.00  0.00    +0.001 C 
BRANCH  26  27
ATOM     27  C   UNL     1       1.479   0.147  -0.001  0.00  0.00    +0.135 A 
ATOM     28  N   UNL     1       2.556   0.873  -0.182  0.00  0.00    -0.115 NA
ATOM     29  N   UNL     1       2.188   2.031  -0.610  0.00  0.00    -0.023 NA
ATOM     30  N   UNL     1       0.905   2.063  -0.708  0.00  0.00    -0.044 NA
ATOM     31  N   UNL     1       0.431   0.920  -0.341  0.00  0.00    -0.227 N 
BRANCH  31  32
ATOM     32  C   UNL     1      -0.982   0.537  -0.302  0.00  0.00    +0.182 C 
BRANCH  32  33
ATOM     33  C   UNL     1      -1.424   0.107  -1.677  0.00  0.00    -0.026 A 
ATOM     34  C   UNL     1      -1.843   1.052  -2.595  0.00  0.00    +0.008 A 
ATOM     35  C   UNL     1      -2.244   0.659  -3.858  0.00  0.00    +0.038 A 
ATOM     36  C   UNL     1      -2.236  -0.682  -4.200  0.00  0.00    +0.123 A 
ATOM     37  C   UNL     1      -1.821  -1.628  -3.278  0.00  0.00    +0.038 A 
ATOM     38  C   UNL     1      -1.416  -1.233  -2.018  0.00  0.00    +0.008 A 
ATOM     39  F   UNL     1      -2.632  -1.068  -5.433  0.00  0.00    -0.205 F 
ENDBRANCH  32  33
ENDBRANCH  31  32
ENDBRANCH  26  27
ENDBRANCH   1  26
TORSDOF 8
