REMARK  Name = ZINC01246018
REMARK  5 active torsions:
REMARK  status: ('A' for Active; 'I' for Inactive)
REMARK    1  A    between atoms: C_1  and  C_2
REMARK    2  A    between atoms: C_5  and  N_8
REMARK    3  A    between atoms: C_12  and  C_17
REMARK    4  A    between atoms: C_17  and  N_53
REMARK    5  A    between atoms: N_20  and  C_23
REMARK                            x       y       z     vdW  Elec       q    Type
REMARK                         _______ _______ _______ _____ _____    ______ ____
ROOT
ATOM      1  N   UNL     1       3.599  -0.629  -0.035  0.00  0.00    -0.213 NA
ATOM      2  C   UNL     1       4.731   0.048  -0.142  0.00  0.00    +0.233 A 
ATOM      3  N   UNL     1       4.723   1.428  -0.142  0.00  0.00    -0.314 N 
ATOM      4  H   UNL     1       3.887   1.914  -0.063  0.00  0.00    +0.170 HD
ATOM      5  C   UNL     1       5.895   2.094  -0.248  0.00  0.00    +0.097 A 
ATOM      6  N   UNL     1       7.017   1.430  -0.360  0.00  0.00    -0.204 NA
ATOM      7  C   UNL     1       7.027   0.089  -0.365  0.00  0.00    +0.217 A 
ATOM      8  N   UNL     1       5.901  -0.598  -0.258  0.00  0.00    -0.179 NA
ATOM      9  N   UNL     1       8.220  -0.580  -0.484  0.00  0.00    -0.327 N 
ATOM     10  H   UNL     1       8.234  -1.550  -0.489  0.00  0.00    +0.145 HD
ATOM     11  H   UNL     1       9.050  -0.083  -0.563  0.00  0.00    +0.145 HD
ENDROOT
BRANCH   1  16
ATOM     12  C   UNL     1      -1.333   2.114  -0.006  0.00  0.00    +0.044 C 
ATOM     13  C   UNL     1      -0.018   1.377  -0.014  0.00  0.00    -0.050 A 
ATOM     14  C   UNL     1       0.593   1.047   1.183  0.00  0.00    +0.005 A 
ATOM     15  C   UNL     1       1.799   0.379   1.184  0.00  0.00    +0.028 A 
ATOM     16  C   UNL     1       2.404   0.034  -0.028  0.00  0.00    +0.068 A 
ATOM     17  C   UNL     1       1.780   0.370  -1.233  0.00  0.00    +0.028 A 
ATOM     18  C   UNL     1       0.575   1.039  -1.218  0.00  0.00    +0.005 A 
ENDBRANCH   1  16
BRANCH   5  19
ATOM     19  C   UNL     1       5.908   3.601  -0.245  0.00  0.00    -0.003 C 
BRANCH  19  25
ATOM     20  C   UNL     1       6.959   3.740  -2.423  0.00  0.00    -0.059 C 
ATOM     21  C   UNL     1       6.750   4.201  -3.867  0.00  0.00    +0.086 C 
ATOM     22  N   UNL     1       6.521   5.653  -3.887  0.00  0.00    -0.333 N 
ATOM     23  C   UNL     1       5.341   6.008  -3.087  0.00  0.00    +0.086 C 
ATOM     24  C   UNL     1       5.549   5.546  -1.642  0.00  0.00    -0.059 C 
ATOM     25  N   UNL     1       5.756   4.083  -1.635  0.00  0.00    +0.386 N 
ATOM     26  H   UNL     1       4.939   3.628  -2.058  0.00  0.00    -0.081 HD
BRANCH  22  27
ATOM     27  C   UNL     1       6.398   6.122  -5.196  0.00  0.00    +0.030 A 
ATOM     28  C   UNL     1       5.259   6.817  -5.582  0.00  0.00    +0.023 A 
ATOM     29  C   UNL     1       5.142   7.285  -6.877  0.00  0.00    +0.002 A 
ATOM     30  C   UNL     1       6.153   7.052  -7.791  0.00  0.00    +0.000 A 
ATOM     31  C   UNL     1       7.286   6.355  -7.412  0.00  0.00    +0.002 A 
ATOM     32  C   UNL     1       7.411   5.890  -6.118  0.00  0.00    +0.023 A 
ENDBRANCH  22  27
ENDBRANCH  19  25
ENDBRANCH   5  19
TORSDOF 4
