REMARK  Name = ZINC66557885
REMARK  9 active torsions:
REMARK  status: ('A' for Active; 'I' for Inactive)
REMARK    1  A    between atoms: C_1  and  C_2
REMARK    2  A    between atoms: C_6  and  C_7
REMARK    3  A    between atoms: N_9  and  N_10
REMARK    4  A    between atoms: C_11  and  C_13
REMARK    5  A    between atoms: C_13  and  C_15
REMARK    6  A    between atoms: C_13  and  N_18
REMARK    7  A    between atoms: C_15  and  C_16
REMARK    8  A    between atoms: C_15  and  C_17
REMARK    9  A    between atoms: C_19  and  C_21
REMARK                            x       y       z     vdW  Elec       q    Type
REMARK                         _______ _______ _______ _____ _____    ______ ____
ROOT
ATOM      1  C   UNL     1       0.088  -1.147   7.338  0.00  0.00    +0.163 C 
ENDROOT
BRANCH   1   3
ATOM      2  N   UNL     1       0.059  -0.732   4.900  0.00  0.00    -0.233 N 
ATOM      3  C   UNL     1       0.081  -1.625   5.909  0.00  0.00    +0.250 C 
ATOM      4  O   UNL     1       0.094  -2.813   5.667  0.00  0.00    -0.272 OA
ATOM      5  H   UNL     1       0.048   0.219   5.094  0.00  0.00    +0.173 HD
BRANCH   2   8
ATOM      6  C   UNL     1       0.031  -0.283   2.562  0.00  0.00    +0.267 C 
ATOM      7  O   UNL     1       0.017   0.910   2.805  0.00  0.00    -0.268 OA
ATOM      8  N   UNL     1       0.052  -1.176   3.571  0.00  0.00    -0.230 N 
ATOM      9  H   UNL     1       0.063  -2.126   3.378  0.00  0.00    +0.173 HD
BRANCH   6  15
ATOM     10  C   UNL     1      -0.018   1.503   0.010  0.00  0.00    +0.045 C 
ATOM     11  C   UNL     1       0.002  -0.004   0.002  0.00  0.00    -0.031 A 
ATOM     12  C   UNL     1       0.007  -0.729  -1.166  0.00  0.00    +0.011 A 
ATOM     13  C   UNL     1       0.025  -2.083  -1.101  0.00  0.00    +0.046 A 
ATOM     14  S   UNL     1       0.037  -2.416   0.545  0.00  0.00    -0.092 S 
ATOM     15  C   UNL     1       0.023  -0.748   1.172  0.00  0.00    +0.078 A 
ENDBRANCH   6  15
ENDBRANCH   2   8
ENDBRANCH   1   3
BRANCH   1  16
ATOM     16  N   UNL     1       0.112  -2.302   8.239  0.00  0.00    -0.300 N 
ATOM     17  C   UNL     1      -0.370  -2.189   9.493  0.00  0.00    +0.246 C 
ATOM     18  O   UNL     1      -0.826  -1.129   9.875  0.00  0.00    -0.270 OA
ATOM     19  H   UNL     1       0.476  -3.148   7.934  0.00  0.00    +0.150 HD
BRANCH  17  20
ATOM     20  C   UNL     1      -0.346  -3.354  10.401  0.00  0.00    +0.055 A 
ATOM     21  C   UNL     1       0.181  -4.572   9.967  0.00  0.00    +0.014 A 
ATOM     22  C   UNL     1       0.202  -5.655  10.820  0.00  0.00    +0.001 A 
ATOM     23  C   UNL     1      -0.300  -5.538  12.105  0.00  0.00    +0.001 A 
ATOM     24  C   UNL     1      -0.825  -4.336  12.543  0.00  0.00    +0.021 A 
ATOM     25  C   UNL     1      -0.846  -3.241  11.701  0.00  0.00    +0.053 A 
ATOM     26 CL   UNL     1      -1.497  -1.730  12.254  0.00  0.00    -0.083 Cl
ENDBRANCH  17  20
ENDBRANCH   1  16
BRANCH   1  27
ATOM     27  C   UNL     1       1.329  -0.285   7.581  0.00  0.00    +0.012 C 
ATOM     28  C   UNL     1       1.336   0.201   9.032  0.00  0.00    +0.009 C 
ATOM     29  C   UNL     1       2.586  -1.114   7.314  0.00  0.00    +0.009 C 
ENDBRANCH   1  27
TORSDOF 6
