REMARK  Name = ZINC58915031
REMARK  13 active torsions:
REMARK  status: ('A' for Active; 'I' for Inactive)
REMARK    1  A    between atoms: C_1  and  C_2
REMARK    2  A    between atoms: C_6  and  N_8
REMARK    3  A    between atoms: C_9  and  C_38
REMARK    4  A    between atoms: C_11  and  C_14
REMARK    5  A    between atoms: C_12  and  C_13
REMARK    6  A    between atoms: N_15  and  N_16
REMARK    7  A    between atoms: C_17  and  C_19
REMARK    8  A    between atoms: C_19  and  N_20
REMARK    9  A    between atoms: N_20  and  C_21
REMARK   10  A    between atoms: N_20  and  S_29
REMARK   11  A    between atoms: C_24  and  C_28
REMARK   12  A    between atoms: C_25  and  C_27
REMARK   13  A    between atoms: S_29  and  C_32
REMARK                            x       y       z     vdW  Elec       q    Type
REMARK                         _______ _______ _______ _____ _____    ______ ____
ROOT
ATOM      1  N   UNL     1       4.602  -6.702   2.226  0.00  0.00    -0.206 N 
ATOM      2  C   UNL     1       5.645  -7.146   2.954  0.00  0.00    +0.251 C 
ATOM      3  O   UNL     1       6.705  -7.383   2.414  0.00  0.00    -0.272 OA
ATOM      4  H   UNL     1       3.754  -6.512   2.658  0.00  0.00    +0.177 HD
ENDROOT
BRANCH   1   6
ATOM      5  C   UNL     1       3.736  -6.087   0.143  0.00  0.00    +0.140 C 
ATOM      6  N   UNL     1       4.741  -6.514   0.845  0.00  0.00    -0.188 NA
BRANCH   5  10
ATOM      7  N   UNL     1       4.719  -5.807  -3.353  0.00  0.00    -0.317 N 
ATOM      8  C   UNL     1       3.423  -5.388  -3.461  0.00  0.00    +0.022 A 
ATOM      9  C   UNL     1       2.854  -5.416  -2.241  0.00  0.00    +0.032 A 
ATOM     10  C   UNL     1       3.883  -5.889  -1.310  0.00  0.00    +0.016 A 
ATOM     11  C   UNL     1       5.002  -6.117  -2.059  0.00  0.00    +0.030 A 
ATOM     12  C   UNL     1       6.324  -6.621  -1.541  0.00  0.00    +0.064 C 
ATOM     13  C   UNL     1       2.742  -4.964  -4.736  0.00  0.00    +0.064 C 
BRANCH   7  19
ATOM     14  C   UNL     1       7.370  -3.630  -6.878  0.00  0.00    +0.044 C 
ATOM     15  C   UNL     1       6.923  -4.869  -6.146  0.00  0.00    -0.048 A 
ATOM     16  C   UNL     1       7.404  -6.109  -6.527  0.00  0.00    +0.003 A 
ATOM     17  C   UNL     1       6.995  -7.248  -5.858  0.00  0.00    +0.002 A 
ATOM     18  C   UNL     1       6.106  -7.151  -4.806  0.00  0.00    +0.026 A 
ATOM     19  C   UNL     1       5.622  -5.908  -4.420  0.00  0.00    +0.047 A 
ATOM     20  C   UNL     1       6.037  -4.766  -5.091  0.00  0.00    +0.029 A 
ENDBRANCH   7  19
ENDBRANCH   5  10
ENDBRANCH   1   6
BRANCH   2  21
ATOM     21  C   UNL     1       5.495  -7.347   4.440  0.00  0.00    +0.228 C 
BRANCH  21  22
ATOM     22  N   UNL     1       6.761  -7.831   4.998  0.00  0.00    -0.194 N 
BRANCH  22  23
ATOM     23  C   UNL     1       7.759  -6.922   5.357  0.00  0.00    +0.052 A 
ATOM     24  C   UNL     1       8.951  -6.880   4.645  0.00  0.00    +0.025 A 
ATOM     25  C   UNL     1       9.935  -5.980   5.002  0.00  0.00    +0.005 A 
ATOM     26  C   UNL     1       9.736  -5.121   6.068  0.00  0.00    -0.047 A 
ATOM     27  C   UNL     1       8.550  -5.161   6.779  0.00  0.00    -0.046 A 
ATOM     28  C   UNL     1       7.559  -6.055   6.423  0.00  0.00    +0.028 A 
ATOM     29  C   UNL     1       8.338  -4.224   7.940  0.00  0.00    +0.044 C 
ATOM     30  C   UNL     1      10.812  -4.141   6.456  0.00  0.00    +0.044 C 
ENDBRANCH  22  23
BRANCH  22  31
ATOM     31  S   UNL     1       7.008  -9.456   5.202  0.00  0.00    +0.075 S 
ATOM     32  O   UNL     1       8.091  -9.591   6.112  0.00  0.00    -0.150 OA
ATOM     33  O   UNL     1       5.733 -10.034   5.444  0.00  0.00    -0.150 OA
BRANCH  31  34
ATOM     34  C   UNL     1       7.566 -10.096   3.658  0.00  0.00    +0.109 A 
ATOM     35  C   UNL     1       6.651 -10.427   2.676  0.00  0.00    +0.029 A 
ATOM     36  C   UNL     1       7.089 -10.929   1.464  0.00  0.00    +0.002 A 
ATOM     37  C   UNL     1       8.441 -11.099   1.234  0.00  0.00    +0.000 A 
ATOM     38  C   UNL     1       9.356 -10.767   2.216  0.00  0.00    +0.002 A 
ATOM     39  C   UNL     1       8.919 -10.261   3.426  0.00  0.00    +0.029 A 
ENDBRANCH  31  34
ENDBRANCH  22  31
ENDBRANCH  21  22
ENDBRANCH   2  21
TORSDOF 8
