REMARK  Name = ZINC27519310
REMARK  6 active torsions:
REMARK  status: ('A' for Active; 'I' for Inactive)
REMARK    1  A    between atoms: C_4  and  C_7
REMARK    2  A    between atoms: N_9  and  C_10
REMARK    3  A    between atoms: C_10  and  C_12
REMARK    4  A    between atoms: C_10  and  C_24
REMARK    5  A    between atoms: N_26  and  N_27
REMARK    6  A    between atoms: C_28  and  C_29
REMARK                            x       y       z     vdW  Elec       q    Type
REMARK                         _______ _______ _______ _____ _____    ______ ____
ROOT
ATOM      1  C   UNL     1       6.132  -0.704  -0.059  0.00  0.00    +0.212 C 
ENDROOT
BRANCH   1   2
ATOM      2  C   UNL     1       6.524  -1.063   1.351  0.00  0.00    +0.099 A 
ATOM      3  C   UNL     1       7.413  -2.199   1.596  0.00  0.00    +0.013 A 
ATOM      4  C   UNL     1       7.921  -2.975   0.552  0.00  0.00    +0.010 A 
ATOM      5  C   UNL     1       8.749  -4.027   0.832  0.00  0.00    +0.001 A 
ATOM      6  C   UNL     1       9.094  -4.334   2.142  0.00  0.00    +0.001 A 
ATOM      7  C   UNL     1       8.608  -3.585   3.192  0.00  0.00    +0.014 A 
ATOM      8  C   UNL     1       7.762  -2.509   2.930  0.00  0.00    +0.050 A 
ATOM      9  C   UNL     1       7.211  -1.673   4.004  0.00  0.00    +0.272 A 
ATOM     10  O   UNL     1       7.484  -1.900   5.169  0.00  0.00    -0.266 OA
ATOM     11  N   UNL     1       6.399  -0.647   3.676  0.00  0.00    -0.242 N 
ATOM     12  H   UNL     1       5.972  -0.009   4.464  0.00  0.00    +0.192 HD
ATOM     13  N   UNL     1       6.076  -0.361   2.349  0.00  0.00    -0.173 NA
ENDBRANCH   1   2
BRANCH   1  16
ATOM     14  C   UNL     1       3.696  -0.685  -0.036  0.00  0.00    +0.245 C 
ATOM     15  O   UNL     1       3.715  -1.900  -0.043  0.00  0.00    -0.270 OA
ATOM     16  N   UNL     1       4.852   0.008  -0.044  0.00  0.00    -0.295 N 
ATOM     17  H   UNL     1       4.834   1.108  -0.038  0.00  0.00    +0.150 HD
BRANCH  14  21
ATOM     18  C   UNL     1      -0.017   1.379   0.010  0.00  0.00    +0.000 A 
ATOM     19  C   UNL     1       1.168   2.094   0.002  0.00  0.00    +0.001 A 
ATOM     20  C   UNL     1       2.377   1.429  -0.013  0.00  0.00    +0.013 A 
ATOM     21  C   UNL     1       2.403   0.034  -0.021  0.00  0.00    +0.037 A 
ATOM     22  C   UNL     1       1.204  -0.681  -0.013  0.00  0.00    +0.013 A 
ATOM     23  C   UNL     1       0.002  -0.004   0.002  0.00  0.00    +0.001 A 
ENDBRANCH  14  21
ENDBRANCH   1  16
BRANCH   1  24
ATOM     24  C   UNL     1       7.191   0.180  -0.665  0.00  0.00    +0.259 C 
ATOM     25  O   UNL     1       6.905   1.296  -1.047  0.00  0.00    -0.272 OA
ATOM     26  N   UNL     1       8.457  -0.268  -0.783  0.00  0.00    -0.205 N 
ATOM     27  H   UNL     1       8.716  -1.279  -0.438  0.00  0.00    +0.177 HD
BRANCH  26  28
ATOM     28  N   UNL     1       9.441   0.554  -1.347  0.00  0.00    -0.187 NA
ATOM     29  C   UNL     1      10.663   0.122  -1.461  0.00  0.00    +0.145 C 
BRANCH  29  30
ATOM     30  C   UNL     1      11.693   0.982  -2.050  0.00  0.00    +0.033 A 
ATOM     31  C   UNL     1      13.037   0.720  -2.255  0.00  0.00    +0.032 A 
ATOM     32  C   UNL     1      13.812   1.696  -2.837  0.00  0.00    +0.025 A 
ATOM     33  C   UNL     1      13.242   2.881  -3.179  0.00  0.00    +0.061 A 
ATOM     34  S   UNL     1      11.544   2.645  -2.684  0.00  0.00    -0.095 S 
ATOM     35 BR   UNL     1      15.653   1.395  -3.150  0.00  0.00    -0.050 Br
ENDBRANCH  29  30
ENDBRANCH  26  28
ENDBRANCH   1  24
TORSDOF 6
