REMARK  Name = ZINC17665377
REMARK  8 active torsions:
REMARK  status: ('A' for Active; 'I' for Inactive)
REMARK    1  A    between atoms: C_1  and  C_2
REMARK    2  A    between atoms: C_3  and  C_7
REMARK    3  A    between atoms: C_10  and  S_13
REMARK    4  A    between atoms: N_11  and  N_12
REMARK    5  A    between atoms: S_13  and  C_14
REMARK    6  A    between atoms: C_14  and  C_15
REMARK    7  A    between atoms: N_17  and  C_26
REMARK    8  A    between atoms: C_19  and  C_20
REMARK                            x       y       z     vdW  Elec       q    Type
REMARK                         _______ _______ _______ _____ _____    ______ ____
ROOT
ATOM      1  C   UNL     1      -5.869   2.048   0.482  0.00  0.00    +0.009 A 
ATOM      2  C   UNL     1      -6.680   0.984   0.671  0.00  0.00    +0.119 A 
ATOM      3  N   UNL     1      -7.568   1.306   1.648  0.00  0.00    -0.239 N 
ATOM      4  N   UNL     1      -7.298   2.615   2.066  0.00  0.00    -0.166 NA
ATOM      5  C   UNL     1      -6.277   3.066   1.367  0.00  0.00    +0.097 A 
ENDROOT
BRANCH   5   6
ATOM      6  C   UNL     1      -5.663   4.411   1.489  0.00  0.00    +0.002 A 
ATOM      7  C   UNL     1      -4.288   4.570   1.325  0.00  0.00    +0.010 A 
ATOM      8  C   UNL     1      -3.724   5.825   1.434  0.00  0.00    +0.001 A 
ATOM      9  C   UNL     1      -4.518   6.921   1.718  0.00  0.00    +0.000 A 
ATOM     10  C   UNL     1      -5.882   6.768   1.888  0.00  0.00    +0.001 A 
ATOM     11  C   UNL     1      -6.458   5.519   1.775  0.00  0.00    +0.010 A 
ENDBRANCH   5   6
BRANCH   3  12
ATOM     12  C   UNL     1      -8.580   0.475   2.147  0.00  0.00    +0.065 A 
ATOM     13  C   UNL     1      -8.743  -0.806   1.637  0.00  0.00    +0.028 A 
ATOM     14  C   UNL     1      -9.738  -1.625   2.134  0.00  0.00    +0.002 A 
ATOM     15  C   UNL     1     -10.579  -1.165   3.131  0.00  0.00    +0.000 A 
ATOM     16  C   UNL     1     -10.423   0.112   3.637  0.00  0.00    +0.002 A 
ATOM     17  C   UNL     1      -9.426   0.933   3.148  0.00  0.00    +0.028 A 
ENDBRANCH   3  12
BRANCH   1  18
ATOM     18  C   UNL     1      -4.734   2.133  -0.506  0.00  0.00    +0.116 C 
BRANCH  18  19
ATOM     19  S   UNL     1      -3.206   1.569   0.282  0.00  0.00    -0.080 S 
BRANCH  19  23
ATOM     20  C   UNL     1      -0.280   1.806  -2.297  0.00  0.00    +0.185 A 
ATOM     21  N   UNL     1      -1.311   2.233  -2.989  0.00  0.00    -0.127 NA
ATOM     22  N   UNL     1      -2.368   2.214  -2.259  0.00  0.00    -0.121 NA
ATOM     23  C   UNL     1      -2.079   1.769  -1.058  0.00  0.00    +0.209 A 
ATOM     24  N   UNL     1      -0.741   1.490  -1.041  0.00  0.00    -0.224 N 
BRANCH  20  27
ATOM     25  C   UNL     1       0.761   2.518  -5.168  0.00  0.00    +0.087 C 
ATOM     26  C   UNL     1       1.582   1.989  -4.020  0.00  0.00    +0.112 A 
ATOM     27  C   UNL     1       1.113   1.686  -2.780  0.00  0.00    +0.061 A 
ATOM     28  C   UNL     1       2.275   1.207  -2.021  0.00  0.00    +0.053 A 
ATOM     29  C   UNL     1       3.320   1.272  -2.863  0.00  0.00    +0.196 A 
ATOM     30  O   UNL     1       2.899   1.740  -4.047  0.00  0.00    -0.467 OA
ENDBRANCH  20  27
BRANCH  24  31
ATOM     31  N   UNL     1      -0.012   1.005   0.008  0.00  0.00    -0.295 N 
ATOM     32  H   UNL     1       0.002  -0.004   0.002  0.00  0.00    +0.163 HD
ATOM     33  H   UNL     1       0.925   1.379   0.001  0.00  0.00    +0.163 HD
ENDBRANCH  24  31
ENDBRANCH  19  23
ENDBRANCH  18  19
ENDBRANCH   1  18
TORSDOF 7
