REMARK  Name = ZINC23379425
REMARK  5 active torsions:
REMARK  status: ('A' for Active; 'I' for Inactive)
REMARK    1  A    between atoms: C_6  and  C_11
REMARK    2  A    between atoms: C_20  and  C_28
REMARK    3  A    between atoms: C_21  and  N_27
REMARK    4  A    between atoms: C_22  and  C_23
REMARK    5  A    between atoms: C_22  and  C_25
REMARK                            x       y       z     vdW  Elec       q    Type
REMARK                         _______ _______ _______ _____ _____    ______ ____
ROOT
ATOM      1  C   UNL     1      -0.737   1.964  -1.245  0.00  0.00    +0.066 C 
ATOM      2  C   UNL     1      -2.228   1.626  -1.207  0.00  0.00    +0.030 C 
ATOM      3  C   UNL     1      -2.890   1.846  -2.547  0.00  0.00    +0.009 C 
ATOM      4  C   UNL     1      -3.625   3.184  -2.606  0.00  0.00    +0.005 C 
ATOM      5  C   UNL     1      -4.685   3.203  -1.496  0.00  0.00    +0.027 C 
ATOM      6  C   UNL     1      -3.970   3.073  -0.176  0.00  0.00    -0.022 C 
ATOM      7  C   UNL     1      -2.854   2.380  -0.071  0.00  0.00    -0.029 C 
ATOM      8  C   UNL     1      -2.126   2.369   1.225  0.00  0.00    +0.074 C 
ATOM      9  C   UNL     1      -0.835   1.957   1.257  0.00  0.00    +0.054 C 
ATOM     10  C   UNL     1      -0.085   1.479   0.051  0.00  0.00    +0.188 C 
ENDROOT
BRANCH   1  16
ATOM     11  C   UNL     1       0.054   8.151  -2.921  0.00  0.00    +0.001 A 
ATOM     12  C   UNL     1       0.015   7.363  -4.070  0.00  0.00    +0.001 A 
ATOM     13  C   UNL     1      -0.144   6.014  -3.990  0.00  0.00    +0.008 A 
ATOM     14  C   UNL     1      -0.272   5.402  -2.731  0.00  0.00    -0.018 A 
ATOM     15  C   UNL     1      -0.438   4.012  -2.608  0.00  0.00    +0.012 A 
ATOM     16  C   UNL     1      -0.558   3.455  -1.373  0.00  0.00    -0.040 A 
ATOM     17  C   UNL     1      -0.524   4.243  -0.224  0.00  0.00    +0.004 A 
ATOM     18  C   UNL     1      -0.359   5.591  -0.303  0.00  0.00    +0.009 A 
ATOM     19  C   UNL     1      -0.232   6.203  -1.562  0.00  0.00    -0.018 A 
ATOM     20  C   UNL     1      -0.066   7.593  -1.685  0.00  0.00    +0.008 A 
ENDBRANCH   1  16
BRANCH   9  21
ATOM     21  N   UNL     1      -0.182   1.978   2.458  0.00  0.00    -0.358 N 
ATOM     22  H   UNL     1       0.866   1.651   2.520  0.00  0.00    +0.142 HD
ATOM     23  H   UNL     1      -0.705   2.324   3.362  0.00  0.00    +0.142 HD
ENDBRANCH   9  21
BRANCH  10  24
ATOM     24  C   UNL     1      -0.058   0.007   0.053  0.00  0.00    +0.091 C 
ATOM     25  N   UNL     1      -0.037  -1.128   0.056  0.00  0.00    -0.194 NA
ENDBRANCH  10  24
BRANCH  10  26
ATOM     26  C   UNL     1       1.296   1.985   0.112  0.00  0.00    +0.091 C 
ATOM     27  N   UNL     1       2.362   2.375   0.160  0.00  0.00    -0.194 NA
ENDBRANCH  10  26
BRANCH   8  28
ATOM     28  C   UNL     1      -2.782   2.790   2.426  0.00  0.00    +0.101 C 
ATOM     29  N   UNL     1      -3.302   3.124   3.379  0.00  0.00    -0.191 NA
ENDBRANCH   8  28
TORSDOF 5
