REMARK  Name = ZINC23029598
REMARK  11 active torsions:
REMARK  status: ('A' for Active; 'I' for Inactive)
REMARK    1  A    between atoms: C_1  and  C_2
REMARK    2  A    between atoms: C_2  and  C_3
REMARK    3  A    between atoms: C_2  and  C_4
REMARK    4  A    between atoms: C_4  and  C_6
REMARK    5  A    between atoms: C_4  and  N_14
REMARK    6  A    between atoms: C_9  and  O_12
REMARK    7  A    between atoms: O_12  and  C_13
REMARK    8  A    between atoms: C_15  and  C_17
REMARK    9  A    between atoms: C_17  and  N_18
REMARK   10  A    between atoms: N_21  and  S_24
REMARK   11  A    between atoms: S_24  and  C_27
REMARK                            x       y       z     vdW  Elec       q    Type
REMARK                         _______ _______ _______ _____ _____    ______ ____
ROOT
ATOM      1  N   UNL     1      -0.011   0.966   0.007  0.00  0.00    -0.310 N 
ATOM      2  C   UNL     1       1.147   1.655   0.000  0.00  0.00    +0.197 C 
ATOM      3  O   UNL     1       1.130   2.868   0.007  0.00  0.00    -0.278 OA
ATOM      4  H   UNL     1       0.004  -0.134   0.006  0.00  0.00    +0.149 HD
ENDROOT
BRANCH   1   5
ATOM      5  C   UNL     1      -1.290   1.681   0.017  0.00  0.00    +0.106 C 
BRANCH   5   6
ATOM      6  C   UNL     1      -2.360   0.806  -0.583  0.00  0.00    -0.027 A 
ATOM      7  C   UNL     1      -2.382  -0.548  -0.301  0.00  0.00    +0.009 A 
ATOM      8  C   UNL     1      -3.366  -1.351  -0.845  0.00  0.00    +0.046 A 
ATOM      9  C   UNL     1      -4.323  -0.801  -1.685  0.00  0.00    +0.120 A 
ATOM     10  C   UNL     1      -4.295   0.556  -1.971  0.00  0.00    +0.046 A 
ATOM     11  C   UNL     1      -3.313   1.356  -1.419  0.00  0.00    +0.009 A 
BRANCH   9  12
ATOM     12  O   UNL     1      -5.288  -1.591  -2.227  0.00  0.00    -0.495 OA
ATOM     13  C   UNL     1      -5.255  -2.979  -1.889  0.00  0.00    +0.277 C 
ENDBRANCH   9  12
ENDBRANCH   5   6
BRANCH   5  15
ATOM     14  C   UNL     1      -1.673   0.760   2.308  0.00  0.00    +0.009 C 
ATOM     15  C   UNL     1      -1.667   2.032   1.458  0.00  0.00    +0.008 C 
ATOM     16  C   UNL     1      -0.646   3.020   2.026  0.00  0.00    +0.009 C 
ENDBRANCH   5  15
ENDBRANCH   1   5
BRANCH   2  17
ATOM     17  C   UNL     1       2.462   0.920  -0.017  0.00  0.00    +0.019 C 
BRANCH  17  18
ATOM     18  N   UNL     1       3.565   1.890  -0.022  0.00  0.00    +0.387 N 
ATOM     19  C   UNL     1       3.576   2.668  -1.268  0.00  0.00    -0.061 C 
ATOM     20  C   UNL     1       4.621   3.784  -1.160  0.00  0.00    +0.091 C 
ATOM     21  N   UNL     1       5.911   3.182  -0.791  0.00  0.00    -0.180 NA
ATOM     22  C   UNL     1       5.952   2.278   0.368  0.00  0.00    +0.091 C 
ATOM     23  C   UNL     1       4.855   1.221   0.200  0.00  0.00    -0.061 C 
ATOM     24  H   UNL     1       3.405   2.592   0.810  0.00  0.00    -0.081 HD
BRANCH  21  25
ATOM     25  S   UNL     1       7.282   3.512  -1.659  0.00  0.00    +0.067 S 
ATOM     26  O   UNL     1       7.068   4.764  -2.296  0.00  0.00    -0.152 OA
ATOM     27  O   UNL     1       8.381   3.279  -0.788  0.00  0.00    -0.152 OA
BRANCH  25  28
ATOM     28  C   UNL     1       7.391   2.308  -2.941  0.00  0.00    +0.143 A 
ATOM     29  C   UNL     1       6.884   2.350  -4.197  0.00  0.00    +0.036 A 
ATOM     30  C   UNL     1       7.098   1.278  -5.043  0.00  0.00    +0.010 A 
ATOM     31  C   UNL     1       7.801   0.212  -4.588  0.00  0.00    +0.047 A 
ATOM     32  S   UNL     1       8.190   0.712  -2.919  0.00  0.00    -0.077 S 
ENDBRANCH  25  28
ENDBRANCH  21  25
ENDBRANCH  17  18
ENDBRANCH   2  17
TORSDOF 8
