REMARK  Name = ZINC63952557
REMARK  5 active torsions:
REMARK  status: ('A' for Active; 'I' for Inactive)
REMARK    1  A    between atoms: C_6  and  C_7
REMARK    2  A    between atoms: N_10  and  N_27
REMARK    3  A    between atoms: N_14  and  C_15
REMARK    4  A    between atoms: C_15  and  C_16
REMARK    5  A    between atoms: C_16  and  C_17
REMARK                            x       y       z     vdW  Elec       q    Type
REMARK                         _______ _______ _______ _____ _____    ______ ____
ROOT
ATOM      1  C   UNL     1      -1.268  -0.764   0.011  0.00  0.00    +0.159 A 
ATOM      2  C   UNL     1      -1.267  -2.227  -0.101  0.00  0.00    +0.298 A 
ATOM      3  O   UNL     1      -0.226  -2.852  -0.203  0.00  0.00    -0.264 OA
ATOM      4  N   UNL     1      -2.465  -2.857  -0.086  0.00  0.00    -0.199 N 
ATOM      5  C   UNL     1      -3.595  -2.105   0.030  0.00  0.00    +0.235 A 
ATOM      6  N   UNL     1      -3.536  -0.790   0.127  0.00  0.00    -0.113 NA
ATOM      7  N   UNL     1      -2.428  -0.140   0.124  0.00  0.00    -0.140 NA
ATOM      8  N   UNL     1      -4.814  -2.725   0.047  0.00  0.00    -0.312 N 
ATOM      9  H   UNL     1      -4.869  -3.691  -0.024  0.00  0.00    +0.149 HD
ENDROOT
BRANCH   1  15
ATOM     10  C   UNL     1       0.083   1.231   0.645  0.00  0.00    +0.011 A 
ATOM     11  C   UNL     1       1.269   1.935   0.634  0.00  0.00    +0.020 A 
ATOM     12  C   UNL     1       2.378   1.418  -0.013  0.00  0.00    +0.041 A 
ATOM     13  C   UNL     1       2.304   0.192  -0.653  0.00  0.00    +0.020 A 
ATOM     14  C   UNL     1       1.123  -0.520  -0.649  0.00  0.00    +0.011 A 
ATOM     15  C   UNL     1       0.002  -0.004   0.002  0.00  0.00    +0.008 A 
ATOM     16 CL   UNL     1       3.868   2.309  -0.023  0.00  0.00    -0.084 Cl
ENDBRANCH   1  15
BRANCH   4  17
ATOM     17  N   UNL     1      -2.540  -4.217  -0.187  0.00  0.00    -0.293 N 
ATOM     18  H   UNL     1      -1.621  -4.625  -0.266  0.00  0.00    +0.163 HD
ATOM     19  H   UNL     1      -3.044  -4.611   0.594  0.00  0.00    +0.163 HD
ENDBRANCH   4  17
BRANCH   8  20
ATOM     20  C   UNL     1      -6.038  -1.930   0.171  0.00  0.00    +0.109 C 
BRANCH  20  21
ATOM     21  C   UNL     1      -7.254  -2.860   0.164  0.00  0.00    +0.052 C 
BRANCH  21  22
ATOM     22  C   UNL     1      -8.513  -2.042   0.292  0.00  0.00    -0.040 C 
ATOM     23  C   UNL     1      -9.303  -1.602  -0.713  0.00  0.00    +0.000 A 
ATOM     24  C   UNL     1      -9.228  -1.747  -2.172  0.00  0.00    +0.030 A 
ATOM     25  C   UNL     1     -10.190  -1.180  -2.938  0.00  0.00    +0.042 A 
ATOM     26  C   UNL     1     -11.252  -0.459  -2.373  0.00  0.00    +0.022 A 
ATOM     27  C   UNL     1     -11.387  -0.283  -1.042  0.00  0.00    +0.027 A 
ATOM     28  C   UNL     1     -10.434  -0.836  -0.143  0.00  0.00    +0.043 A 
ATOM     29  N   UNL     1     -10.347  -0.804   1.165  0.00  0.00    -0.380 N 
ATOM     30  C   UNL     1      -9.152  -1.552   1.572  0.00  0.00    +0.144 C 
ATOM     31 CL   UNL     1     -10.105  -1.350  -4.663  0.00  0.00    -0.084 Cl
ATOM     32  H   UNL     1     -10.970  -0.362   1.763  0.00  0.00    +0.160 HD
ENDBRANCH  21  22
ENDBRANCH  20  21
ENDBRANCH   8  20
TORSDOF 5
