REMARK  Name = ZINC00702986
REMARK  7 active torsions:
REMARK  status: ('A' for Active; 'I' for Inactive)
REMARK    1  A    between atoms: C_8  and  C_10
REMARK    2  A    between atoms: C_10  and  C_12
REMARK    3  A    between atoms: C_13  and  O_32
REMARK    4  A    between atoms: N_16  and  C_26
REMARK    5  A    between atoms: C_17  and  C_19
REMARK    6  A    between atoms: C_22  and  O_25
REMARK    7  A    between atoms: C_26  and  C_27
REMARK                            x       y       z     vdW  Elec       q    Type
REMARK                         _______ _______ _______ _____ _____    ______ ____
ROOT
ATOM      1  C   UNL     1       5.412  -3.401  -0.041  0.00  0.00    +0.074 C 
ATOM      2  C   UNL     1       6.337  -4.380  -0.172  0.00  0.00    +0.188 C 
ATOM      3  C   UNL     1       7.673  -3.769  -0.321  0.00  0.00    +0.283 C 
ATOM      4  O   UNL     1       8.711  -4.387  -0.459  0.00  0.00    -0.267 OA
ATOM      5  N   UNL     1       7.572  -2.428  -0.281  0.00  0.00    -0.276 N 
ATOM      6  C   UNL     1       6.155  -2.088  -0.109  0.00  0.00    +0.145 C 
ENDROOT
BRANCH   6   7
ATOM      7  C   UNL     1       5.962  -1.316   1.171  0.00  0.00    -0.022 A 
ATOM      8  C   UNL     1       6.644  -1.692   2.313  0.00  0.00    +0.009 A 
ATOM      9  C   UNL     1       6.473  -0.983   3.486  0.00  0.00    +0.046 A 
ATOM     10  C   UNL     1       5.608   0.101   3.520  0.00  0.00    +0.117 A 
ATOM     11  C   UNL     1       4.921   0.473   2.374  0.00  0.00    +0.046 A 
ATOM     12  C   UNL     1       5.100  -0.236   1.202  0.00  0.00    +0.009 A 
BRANCH  10  13
ATOM     13  O   UNL     1       5.433   0.797   4.675  0.00  0.00    -0.507 OA
ATOM     14  H   UNL     1       4.719   0.460   5.232  0.00  0.00    +0.292 HD
ENDBRANCH  10  13
ENDBRANCH   6   7
BRANCH   1  15
ATOM     15  C   UNL     1       3.966  -3.580   0.129  0.00  0.00    +0.230 C 
ATOM     16  O   UNL     1       3.531  -4.088   1.147  0.00  0.00    -0.284 OA
BRANCH  15  24
ATOM     17  C   UNL     1      -0.207  -2.003  -3.945  0.00  0.00    +0.001 A 
ATOM     18  C   UNL     1       0.904  -1.486  -4.598  0.00  0.00    +0.004 A 
ATOM     19  C   UNL     1       2.162  -1.596  -4.045  0.00  0.00    +0.047 A 
ATOM     20  C   UNL     1       2.325  -2.233  -2.820  0.00  0.00    +0.136 A 
ATOM     21  C   UNL     1       1.196  -2.756  -2.163  0.00  0.00    +0.021 A 
ATOM     22  C   UNL     1      -0.071  -2.633  -2.740  0.00  0.00    +0.011 A 
ATOM     23  C   UNL     1       1.697  -3.350  -0.925  0.00  0.00    +0.061 A 
ATOM     24  C   UNL     1       3.043  -3.148  -0.928  0.00  0.00    +0.176 A 
ATOM     25  O   UNL     1       3.401  -2.489  -2.050  0.00  0.00    -0.452 OA
ENDBRANCH  15  24
ENDBRANCH   1  15
BRANCH   2  26
ATOM     26  O   UNL     1       6.078  -5.709  -0.168  0.00  0.00    -0.502 OA
ATOM     27  H   UNL     1       6.933  -6.215  -0.282  0.00  0.00    +0.292 HD
ENDBRANCH   2  26
BRANCH   5  28
ATOM     28  C   UNL     1       8.680  -1.477  -0.396  0.00  0.00    +0.183 C 
BRANCH  28  29
ATOM     29  C   UNL     1       8.890  -1.122  -1.845  0.00  0.00    +0.122 A 
ATOM     30  C   UNL     1       8.293  -0.111  -2.502  0.00  0.00    +0.046 A 
ATOM     31  C   UNL     1       8.778  -0.142  -3.830  0.00  0.00    +0.041 A 
ATOM     32  C   UNL     1       9.636  -1.176  -3.907  0.00  0.00    +0.195 A 
ATOM     33  O   UNL     1       9.699  -1.766  -2.702  0.00  0.00    -0.466 OA
ENDBRANCH  28  29
ENDBRANCH   5  28
TORSDOF 7
