REMARK  Name = ZINC21076662
REMARK  10 active torsions:
REMARK  status: ('A' for Active; 'I' for Inactive)
REMARK    1  A    between atoms: C_1  and  C_2
REMARK    2  A    between atoms: C_2  and  C_3
REMARK    3  A    between atoms: C_3  and  C_5
REMARK    4  A    between atoms: C_3  and  S_6
REMARK    5  A    between atoms: S_6  and  C_7
REMARK    6  A    between atoms: C_13  and  C_15
REMARK    7  A    between atoms: C_15  and  S_16
REMARK    8  A    between atoms: S_16  and  C_17
REMARK    9  A    between atoms: N_22  and  N_23
REMARK   10  A    between atoms: C_24  and  C_25
REMARK                            x       y       z     vdW  Elec       q    Type
REMARK                         _______ _______ _______ _____ _____    ______ ____
ROOT
ATOM      1  C   UNL     1      -7.912   3.543   0.054  0.00  0.00    +0.211 A 
ATOM      2  N   UNL     1      -7.210   2.370   0.044  0.00  0.00    -0.186 NA
ATOM      3  C   UNL     1      -5.878   2.676   0.040  0.00  0.00    +0.232 A 
ATOM      4  N   UNL     1      -5.762   3.982   0.052  0.00  0.00    -0.245 N 
ATOM      5  N   UNL     1      -7.051   4.531   0.055  0.00  0.00    -0.144 NA
ATOM      6  N   UNL     1      -4.832   1.765   0.032  0.00  0.00    -0.205 N 
ATOM      7  H   UNL     1      -5.044   0.686   0.027  0.00  0.00    +0.177 HD
ATOM      8  H   UNL     1      -4.764   4.446   0.058  0.00  0.00    +0.192 HD
ENDROOT
BRANCH   6   9
ATOM      9  N   UNL     1      -3.507   2.219   0.029  0.00  0.00    -0.187 NA
ATOM     10  C   UNL     1      -2.528   1.366   0.020  0.00  0.00    +0.140 C 
BRANCH  10  11
ATOM     11  C   UNL     1      -1.135   1.843   0.017  0.00  0.00    +0.020 A 
ATOM     12  C   UNL     1      -0.013   1.076   0.008  0.00  0.00    +0.093 A 
ATOM     13  N   UNL     1       1.093   1.877   0.002  0.00  0.00    -0.360 N 
ATOM     14  H   UNL     1       2.097   1.428  -0.010  0.00  0.00    +0.165 HD
ATOM     15  C   UNL     1       0.719   3.204   0.012  0.00  0.00    +0.047 A 
ATOM     16  C   UNL     1      -0.685   3.247   0.025  0.00  0.00    +0.008 A 
ATOM     17  C   UNL     1      -1.345   4.473   0.036  0.00  0.00    +0.010 A 
ATOM     18  C   UNL     1      -0.615   5.641   0.035  0.00  0.00    +0.001 A 
ATOM     19  C   UNL     1       0.772   5.600   0.022  0.00  0.00    +0.002 A 
ATOM     20  C   UNL     1       1.438   4.395   0.010  0.00  0.00    +0.026 A 
ENDBRANCH  10  11
ENDBRANCH   6   9
BRANCH   1  21
ATOM     21  S   UNL     1      -9.668   3.699   0.061  0.00  0.00    -0.075 S 
BRANCH  21  22
ATOM     22  C   UNL     1      -9.949   5.491   0.072  0.00  0.00    +0.173 C 
BRANCH  22  29
ATOM     23  C   UNL     1     -15.772   8.142   0.110  0.00  0.00    +0.160 A 
ATOM     24  N   UNL     1     -15.466   6.853   0.101  0.00  0.00    -0.133 NA
ATOM     25  N   UNL     1     -14.270   6.452   0.088  0.00  0.00    -0.125 NA
ATOM     26  C   UNL     1     -13.248   7.292   0.095  0.00  0.00    +0.189 A 
ATOM     27  S   UNL     1     -14.129   8.851   0.107  0.00  0.00    -0.024 S 
ATOM     28  N   UNL     1     -11.879   7.037   0.088  0.00  0.00    -0.263 N 
ATOM     29  C   UNL     1     -11.430   5.766   0.080  0.00  0.00    +0.229 C 
ATOM     30  O   UNL     1     -12.219   4.845   0.077  0.00  0.00    -0.275 OA
ATOM     31  H   UNL     1     -11.164   7.873   0.090  0.00  0.00    +0.157 HD
BRANCH  23  32
ATOM     32  S   UNL     1     -17.347   8.931   0.120  0.00  0.00    -0.094 S 
BRANCH  32  33
ATOM     33  C   UNL     1     -18.529   7.554   0.117  0.00  0.00    +0.050 C 
ATOM     34  C   UNL     1     -18.403   6.778  -1.195  0.00  0.00    +0.019 C 
BRANCH  33  36
ATOM     35  C   UNL     1     -20.113   8.771   1.618  0.00  0.00    +0.005 C 
ATOM     36  C   UNL     1     -19.951   8.102   0.251  0.00  0.00    +0.011 C 
ENDBRANCH  33  36
ENDBRANCH  32  33
ENDBRANCH  23  32
ENDBRANCH  22  29
ENDBRANCH  21  22
ENDBRANCH   1  21
TORSDOF 8
