REMARK  Name = ZINC22990850
REMARK  9 active torsions:
REMARK  status: ('A' for Active; 'I' for Inactive)
REMARK    1  A    between atoms: C_1  and  C_2
REMARK    2  A    between atoms: C_3  and  C_17
REMARK    3  A    between atoms: N_6  and  C_7
REMARK    4  A    between atoms: C_11  and  C_13
REMARK    5  A    between atoms: N_19  and  C_20
REMARK    6  A    between atoms: C_20  and  C_21
REMARK    7  A    between atoms: C_21  and  C_23
REMARK    8  A    between atoms: C_21  and  O_32
REMARK    9  A    between atoms: C_26  and  N_29
REMARK                            x       y       z     vdW  Elec       q    Type
REMARK                         _______ _______ _______ _____ _____    ______ ____
ROOT
ATOM      1  C   UNL     1      -1.355   8.532  -0.803  0.00  0.00    +0.247 C 
ATOM      2  O   UNL     1      -2.352   8.412  -1.489  0.00  0.00    -0.270 OA
ATOM      3  N   UNL     1      -0.905   9.760  -0.476  0.00  0.00    -0.308 N 
ATOM      4  H   UNL     1      -0.004   9.869   0.145  0.00  0.00    +0.149 HD
ENDROOT
BRANCH   1   7
ATOM      5  C   UNL     1      -2.156   5.546  -1.396  0.00  0.00    +0.066 C 
ATOM      6  C   UNL     1      -0.980   6.021  -0.582  0.00  0.00    +0.054 A 
ATOM      7  C   UNL     1      -0.638   7.335  -0.328  0.00  0.00    +0.077 A 
ATOM      8  C   UNL     1       0.527   7.316   0.471  0.00  0.00    +0.148 A 
ATOM      9  N   UNL     1       0.853   6.071   0.683  0.00  0.00    -0.174 NA
ATOM     10  N   UNL     1      -0.069   5.244   0.031  0.00  0.00    -0.236 N 
BRANCH  10  11
ATOM     11  C   UNL     1      -0.050   3.842   0.024  0.00  0.00    +0.066 A 
ATOM     12  C   UNL     1      -1.242   3.130   0.031  0.00  0.00    +0.028 A 
ATOM     13  C   UNL     1      -1.220   1.750   0.017  0.00  0.00    +0.003 A 
ATOM     14  C   UNL     1      -0.013   1.076   0.008  0.00  0.00    +0.012 A 
ATOM     15  C   UNL     1       1.176   1.782   0.000  0.00  0.00    +0.057 A 
ATOM     16  C   UNL     1       1.161   3.163   0.008  0.00  0.00    +0.040 A 
BRANCH  15  17
ATOM     17  C   UNL     1       2.490   1.044  -0.016  0.00  0.00    +0.417 C 
ATOM     18  F   UNL     1       2.251  -0.334  -0.021  0.00  0.00    -0.166 F 
ATOM     19  F   UNL     1       3.208   1.397  -1.163  0.00  0.00    -0.166 F 
ATOM     20  F   UNL     1       3.230   1.384   1.121  0.00  0.00    -0.166 F 
ENDBRANCH  15  17
ENDBRANCH  10  11
ENDBRANCH   1   7
BRANCH   3  21
ATOM     21  C   UNL     1      -1.618  10.950  -0.948  0.00  0.00    +0.140 C 
BRANCH  21  22
ATOM     22  C   UNL     1      -0.905  12.206  -0.440  0.00  0.00    +0.162 C 
BRANCH  22  23
ATOM     23  C   UNL     1      -1.638  13.430  -0.925  0.00  0.00    -0.018 A 
ATOM     24  C   UNL     1      -2.722  13.913  -0.216  0.00  0.00    +0.008 A 
ATOM     25  C   UNL     1      -3.391  15.039  -0.658  0.00  0.00    +0.033 A 
ATOM     26  C   UNL     1      -2.983  15.676  -1.815  0.00  0.00    +0.126 A 
ATOM     27  C   UNL     1      -1.902  15.190  -2.527  0.00  0.00    +0.033 A 
ATOM     28  C   UNL     1      -1.230  14.067  -2.082  0.00  0.00    +0.008 A 
BRANCH  26  29
ATOM     29  N   UNL     1      -3.703  16.878  -2.292  0.00  0.00    +0.056 N 
ATOM     30  O   UNL     1      -3.343  17.439  -3.312  0.00  0.00    -0.126 OA
ATOM     31  O   UNL     1      -4.655  17.306  -1.665  0.00  0.00    -0.126 OA
ENDBRANCH  26  29
ENDBRANCH  22  23
BRANCH  22  32
ATOM     32  O   UNL     1      -0.885  12.197   0.989  0.00  0.00    -0.386 OA
ATOM     33  H   UNL     1      -0.412  13.025   1.537  0.00  0.00    +0.210 HD
ENDBRANCH  22  32
ENDBRANCH  21  22
ENDBRANCH   3  21
TORSDOF 8
