REMARK  Name = ZINC40515819
REMARK  6 active torsions:
REMARK  status: ('A' for Active; 'I' for Inactive)
REMARK    1  A    between atoms: C_1  and  C_2
REMARK    2  A    between atoms: C_4  and  C_20
REMARK    3  A    between atoms: C_6  and  O_12
REMARK    4  A    between atoms: C_7  and  C_8
REMARK    5  A    between atoms: N_9  and  O_10
REMARK    6  A    between atoms: O_12  and  C_13
REMARK                            x       y       z     vdW  Elec       q    Type
REMARK                         _______ _______ _______ _____ _____    ______ ____
ROOT
ATOM      1  C   UNL     1      -0.018   1.503   0.010  0.00  0.00    +0.045 C 
ATOM      2  C   UNL     1       0.002  -0.004   0.002  0.00  0.00    -0.033 A 
ATOM      3  C   UNL     1       0.006  -0.707  -1.191  0.00  0.00    +0.027 A 
ATOM      4  C   UNL     1       0.025  -2.089  -1.165  0.00  0.00    +0.042 A 
ATOM      5  N   UNL     1       0.040  -2.750  -0.024  0.00  0.00    -0.218 NA
ATOM      6  C   UNL     1       0.037  -2.127   1.142  0.00  0.00    +0.226 A 
ATOM      7  C   UNL     1       0.023  -0.726   1.198  0.00  0.00    +0.082 A 
ATOM      8  C   UNL     1       0.030  -2.854  -2.464  0.00  0.00    +0.066 C 
ENDROOT
BRANCH   7   9
ATOM      9  C   UNL     1       0.026  -0.025   2.500  0.00  0.00    +0.168 C 
ATOM     10  N   UNL     1      -1.100   0.267   3.084  0.00  0.00    -0.071 NA
ATOM     11  N   UNL     1       1.226   0.319   3.099  0.00  0.00    -0.340 N 
ATOM     12  H   UNL     1       2.065   0.101   2.664  0.00  0.00    +0.144 HD
ATOM     13  H   UNL     1       1.227   0.779   3.953  0.00  0.00    +0.144 HD
BRANCH  10  14
ATOM     14  O   UNL     1      -1.098   0.938   4.331  0.00  0.00    -0.408 OA
ATOM     15  H   UNL     1      -1.981   1.112   4.685  0.00  0.00    +0.328 HD
ENDBRANCH  10  14
ENDBRANCH   7   9
BRANCH   6  16
ATOM     16  O   UNL     1       0.052  -2.846   2.290  0.00  0.00    -0.473 OA
BRANCH  16  17
ATOM     17  C   UNL     1       0.070  -4.270   2.164  0.00  0.00    +0.175 C 
ATOM     18  C   UNL     1      -1.381  -4.780   2.053  0.00  0.00    +0.044 C 
ATOM     19  C   UNL     1      -1.359  -6.147   1.423  0.00  0.00    +0.004 C 
ATOM     20  C   UNL     1      -1.344  -7.278   2.469  0.00  0.00    +0.000 C 
ATOM     21  C   UNL     1      -0.406  -6.983   3.655  0.00  0.00    +0.000 C 
ATOM     22  C   UNL     1       0.898  -6.370   3.218  0.00  0.00    +0.004 C 
ATOM     23  C   UNL     1       0.772  -4.835   3.307  0.00  0.00    +0.044 C 
ENDBRANCH  16  17
ENDBRANCH   6  16
TORSDOF 4
