REMARK  Name = ZINC40999024
REMARK  7 active torsions:
REMARK  status: ('A' for Active; 'I' for Inactive)
REMARK    1  A    between atoms: C_1  and  C_2
REMARK    2  A    between atoms: C_2  and  C_3
REMARK    3  A    between atoms: C_2  and  N_4
REMARK    4  A    between atoms: N_4  and  C_5
REMARK    5  A    between atoms: N_4  and  C_12
REMARK    6  A    between atoms: C_5  and  C_6
REMARK    7  A    between atoms: C_17  and  N_18
REMARK                            x       y       z     vdW  Elec       q    Type
REMARK                         _______ _______ _______ _____ _____    ______ ____
ROOT
ATOM      1  N   UNL     1      -1.372  -0.511   0.012  0.00  0.00    -0.319 N 
ENDROOT
BRANCH   1   2
ATOM      2  C   UNL     1      -2.237  -0.187   1.083  0.00  0.00    +0.087 A 
ATOM      3  C   UNL     1      -3.086   0.923   1.150  0.00  0.00    +0.127 A 
ATOM      4  N   UNL     1      -3.729   0.886   2.290  0.00  0.00    -0.304 N 
ATOM      5  H   UNL     1      -3.629  -0.526   3.872  0.00  0.00    +0.188 HD
ATOM      6  N   UNL     1      -3.314  -0.251   2.996  0.00  0.00    -0.286 N 
ATOM      7  C   UNL     1      -2.397  -0.904   2.232  0.00  0.00    +0.131 A 
ATOM      8  H   UNL     1      -4.381   1.536   2.595  0.00  0.00    +0.186 HD
BRANCH   7   9
ATOM      9  N   UNL     1      -1.738  -2.090   2.565  0.00  0.00    -0.342 N 
ATOM     10  H   UNL     1      -1.096  -2.477   1.950  0.00  0.00    +0.144 HD
ATOM     11  H   UNL     1      -1.923  -2.526   3.412  0.00  0.00    +0.144 HD
ENDBRANCH   7   9
ENDBRANCH   1   2
BRANCH   1  13
ATOM     12  C   UNL     1      -0.019   1.526   0.010  0.00  0.00    +0.027 C 
ATOM     13  C   UNL     1       0.002  -0.004   0.002  0.00  0.00    +0.068 C 
ATOM     14  C   UNL     1       0.742  -0.511   1.242  0.00  0.00    +0.027 C 
ENDBRANCH   1  13
BRANCH   1  15
ATOM     15  C   UNL     1      -1.851  -1.354  -1.086  0.00  0.00    +0.140 C 
BRANCH  15  16
ATOM     16  C   UNL     1      -1.582  -2.801  -0.763  0.00  0.00    -0.030 A 
ATOM     17  C   UNL     1      -0.385  -3.382  -1.138  0.00  0.00    +0.005 A 
ATOM     18  C   UNL     1      -0.139  -4.710  -0.841  0.00  0.00    +0.000 A 
ATOM     19  C   UNL     1      -1.089  -5.456  -0.169  0.00  0.00    +0.000 A 
ATOM     20  C   UNL     1      -2.285  -4.874   0.206  0.00  0.00    +0.000 A 
ATOM     21  C   UNL     1      -2.530  -3.546  -0.086  0.00  0.00    +0.005 A 
ENDBRANCH  15  16
ENDBRANCH   1  15
TORSDOF 5
