REMARK  Name = ZINC39572419
REMARK  7 active torsions:
REMARK  status: ('A' for Active; 'I' for Inactive)
REMARK    1  A    between atoms: C_2  and  C_3
REMARK    2  A    between atoms: C_3  and  N_4
REMARK    3  A    between atoms: C_5  and  C_25
REMARK    4  A    between atoms: C_9  and  S_11
REMARK    5  A    between atoms: S_11  and  C_12
REMARK    6  A    between atoms: C_12  and  C_13
REMARK    7  A    between atoms: C_30  and  O_31
REMARK                            x       y       z     vdW  Elec       q    Type
REMARK                         _______ _______ _______ _____ _____    ______ ____
ROOT
ATOM      1  N   UNL     1       1.346  -1.721   1.218  0.00  0.00    -0.242 NA
ATOM      2  C   UNL     1       2.633  -2.453   1.104  0.00  0.00    +0.205 C 
ATOM      3  N   UNL     1       3.115  -2.580   2.485  0.00  0.00    -0.289 N 
ATOM      4  N   UNL     1       2.522  -1.802   3.239  0.00  0.00    -0.184 NA
ATOM      5  C   UNL     1       1.529  -1.006   2.506  0.00  0.00    +0.257 C 
ATOM      6  H   UNL     1       3.809  -3.195   2.769  0.00  0.00    +0.184 HD
ENDROOT
BRANCH   2   7
ATOM      7  C   UNL     1       2.411  -3.814   0.496  0.00  0.00    +0.032 A 
ATOM      8  C   UNL     1       1.179  -4.428   0.607  0.00  0.00    +0.010 A 
ATOM      9  C   UNL     1       0.975  -5.677   0.050  0.00  0.00    +0.001 A 
ATOM     10  C   UNL     1       2.003  -6.314  -0.621  0.00  0.00    +0.004 A 
ATOM     11  C   UNL     1       3.237  -5.703  -0.735  0.00  0.00    +0.046 A 
ATOM     12  C   UNL     1       3.442  -4.448  -0.182  0.00  0.00    +0.123 A 
BRANCH  12  13
ATOM     13  O   UNL     1       4.654  -3.842  -0.298  0.00  0.00    -0.506 OA
ATOM     14  H   UNL     1       5.292  -4.106   0.379  0.00  0.00    +0.292 HD
ENDBRANCH  12  13
ENDBRANCH   2   7
BRANCH   1  15
ATOM     15  C   UNL     1       1.179  -0.774   0.108  0.00  0.00    +0.116 C 
BRANCH  15  17
ATOM     16  C   UNL     1      -0.217   1.224   0.258  0.00  0.00    +0.005 C 
ATOM     17  C   UNL     1      -0.156  -0.084   0.233  0.00  0.00    -0.019 C 
ENDBRANCH  15  17
ENDBRANCH   1  15
BRANCH   5  18
ATOM     18  S   UNL     1      -0.035  -0.946   3.423  0.00  0.00    -0.109 S 
BRANCH  18  19
ATOM     19  C   UNL     1      -0.461  -2.690   3.679  0.00  0.00    +0.146 C 
BRANCH  19  20
ATOM     20  C   UNL     1      -1.758  -2.784   4.440  0.00  0.00    +0.120 A 
ATOM     21  N   UNL     1      -2.244  -4.018   4.735  0.00  0.00    -0.310 N 
ATOM     22  H   UNL     1      -1.754  -4.807   4.455  0.00  0.00    +0.170 HD
ATOM     23  C   UNL     1      -3.405  -4.156   5.418  0.00  0.00    +0.259 A 
ATOM     24  O   UNL     1      -3.851  -5.256   5.689  0.00  0.00    -0.267 OA
ATOM     25  C   UNL     1      -4.105  -2.927   5.818  0.00  0.00    +0.065 A 
ATOM     26  C   UNL     1      -5.307  -2.959   6.522  0.00  0.00    +0.015 A 
ATOM     27  C   UNL     1      -5.921  -1.777   6.872  0.00  0.00    +0.001 A 
ATOM     28  C   UNL     1      -5.352  -0.557   6.528  0.00  0.00    +0.002 A 
ATOM     29  C   UNL     1      -4.166  -0.503   5.831  0.00  0.00    +0.028 A 
ATOM     30  C   UNL     1      -3.524  -1.689   5.466  0.00  0.00    +0.078 A 
ATOM     31  N   UNL     1      -2.351  -1.682   4.784  0.00  0.00    -0.233 NA
ENDBRANCH  19  20
ENDBRANCH  18  19
ENDBRANCH   5  18
TORSDOF 7
