REMARK  Name = ZINC52634705
REMARK  8 active torsions:
REMARK  status: ('A' for Active; 'I' for Inactive)
REMARK    1  A    between atoms: C_7  and  C_10
REMARK    2  A    between atoms: C_10  and  C_11
REMARK    3  A    between atoms: C_11  and  C_13
REMARK    4  A    between atoms: C_11  and  N_35
REMARK    5  A    between atoms: C_13  and  O_14
REMARK    6  A    between atoms: O_14  and  C_15
REMARK    7  A    between atoms: C_17  and  C_21
REMARK    8  A    between atoms: C_27  and  C_31
REMARK                            x       y       z     vdW  Elec       q    Type
REMARK                         _______ _______ _______ _____ _____    ______ ____
ROOT
ATOM      1  C   UNL     1      -1.252  -6.557  -2.953  0.00  0.00    +0.139 A 
ATOM      2  C   UNL     1      -1.412  -7.110  -4.217  0.00  0.00    +0.057 A 
ATOM      3  C   UNL     1      -2.174  -8.274  -4.339  0.00  0.00    +0.004 A 
ATOM      4  C   UNL     1      -2.741  -8.832  -3.195  0.00  0.00    +0.119 A 
ATOM      5  N   UNL     1      -2.564  -8.273  -2.015  0.00  0.00    -0.259 NA
ATOM      6  C   UNL     1      -1.846  -7.178  -1.863  0.00  0.00    +0.156 A 
ENDROOT
BRANCH   3   7
ATOM      7  C   UNL     1      -2.377  -8.906  -5.666  0.00  0.00    -0.016 A 
ATOM      8  C   UNL     1      -1.796  -8.338  -6.806  0.00  0.00    +0.010 A 
ATOM      9  C   UNL     1      -1.972  -8.905  -8.033  0.00  0.00    +0.028 A 
ATOM     10  C   UNL     1      -2.735 -10.064  -8.166  0.00  0.00    +0.066 A 
ATOM     11  C   UNL     1      -3.325 -10.646  -7.027  0.00  0.00    +0.032 A 
ATOM     12  C   UNL     1      -3.136 -10.061  -5.771  0.00  0.00    +0.020 A 
ATOM     13  C   UNL     1      -4.046 -11.826  -7.495  0.00  0.00    +0.173 A 
ATOM     14  N   UNL     1      -3.881 -11.906  -8.785  0.00  0.00    -0.169 NA
ATOM     15  N   UNL     1      -3.086 -10.848  -9.235  0.00  0.00    -0.276 N 
ATOM     16  H   UNL     1      -2.824 -10.693 -10.156  0.00  0.00    +0.189 HD
BRANCH  13  17
ATOM     17  C   UNL     1      -4.840 -12.780  -6.640  0.00  0.00    +0.437 C 
ATOM     18  F   UNL     1      -6.166 -12.341  -6.560  0.00  0.00    -0.164 F 
ATOM     19  F   UNL     1      -4.805 -14.057  -7.210  0.00  0.00    -0.164 F 
ATOM     20  F   UNL     1      -4.285 -12.827  -5.357  0.00  0.00    -0.164 F 
ENDBRANCH  13  17
ENDBRANCH   3   7
BRANCH   1  21
ATOM     21  O   UNL     1      -0.519  -5.425  -2.785  0.00  0.00    -0.492 OA
BRANCH  21  22
ATOM     22  C   UNL     1      -0.398  -4.923  -1.452  0.00  0.00    +0.213 C 
BRANCH  22  23
ATOM     23  C   UNL     1       0.457  -3.653  -1.462  0.00  0.00    -0.033 C 
BRANCH  23  24
ATOM     24  N   UNL     1      -0.240  -2.600  -2.212  0.00  0.00    +0.382 N 
ATOM     25  H   UNL     1      -0.394  -2.909  -3.160  0.00  0.00    -0.089 HD
ATOM     26  H   UNL     1      -1.127  -2.405  -1.773  0.00  0.00    -0.089 HD
ATOM     27  H   UNL     1       0.323  -1.763  -2.218  0.00  0.00    -0.089 HD
ENDBRANCH  23  24
BRANCH  23  28
ATOM     28  C   UNL     1       0.691  -3.186  -0.024  0.00  0.00    +0.020 C 
BRANCH  28  35
ATOM     29  C   UNL     1      -0.016   1.348   0.009  0.00  0.00    +0.001 A 
ATOM     30  C   UNL     1       1.166   2.101   0.002  0.00  0.00    +0.002 A 
ATOM     31  C   UNL     1       2.391   1.535  -0.013  0.00  0.00    +0.026 A 
ATOM     32  C   UNL     1       2.529   0.120  -0.022  0.00  0.00    +0.043 A 
ATOM     33  N   UNL     1       3.587  -0.654  -0.037  0.00  0.00    -0.380 N 
ATOM     34  C   UNL     1       3.143  -2.053  -0.041  0.00  0.00    +0.144 C 
ATOM     35  C   UNL     1       1.631  -2.008  -0.025  0.00  0.00    -0.043 C 
ATOM     36  C   UNL     1       1.295  -0.698  -0.014  0.00  0.00    -0.001 A 
ATOM     37  C   UNL     1       0.002  -0.004   0.002  0.00  0.00    +0.010 A 
ATOM     38  H   UNL     1       4.509  -0.353  -0.045  0.00  0.00    +0.160 HD
ENDBRANCH  28  35
ENDBRANCH  23  28
ENDBRANCH  22  23
ENDBRANCH  21  22
ENDBRANCH   1  21
TORSDOF 8
