REMARK  Name = ZINC39404349
REMARK  10 active torsions:
REMARK  status: ('A' for Active; 'I' for Inactive)
REMARK    1  A    between atoms: C_1  and  C_2
REMARK    2  A    between atoms: C_2  and  O_3
REMARK    3  A    between atoms: O_3  and  C_4
REMARK    4  A    between atoms: C_4  and  C_6
REMARK    5  A    between atoms: C_8  and  N_16
REMARK    6  A    between atoms: C_17  and  C_19
REMARK    7  A    between atoms: C_19  and  S_20
REMARK    8  A    between atoms: S_20  and  C_21
REMARK    9  A    between atoms: N_27  and  N_28
REMARK   10  A    between atoms: C_29  and  C_30
REMARK                            x       y       z     vdW  Elec       q    Type
REMARK                         _______ _______ _______ _____ _____    ______ ____
ROOT
ATOM      1  C   UNL     1       3.936   1.596  -3.916  0.00  0.00    +0.168 C 
ENDROOT
BRANCH   1   3
ATOM      2  N   UNL     1       3.073  -0.673  -3.444  0.00  0.00    -0.301 N 
ATOM      3  C   UNL     1       3.786   0.390  -3.025  0.00  0.00    +0.224 C 
ATOM      4  O   UNL     1       4.308   0.377  -1.930  0.00  0.00    -0.275 OA
ATOM      5  H   UNL     1       2.656  -0.663  -4.320  0.00  0.00    +0.150 HD
BRANCH   2   7
ATOM      6  C   UNL     1       1.468  -2.353  -2.550  0.00  0.00    +0.155 C 
ATOM      7  C   UNL     1       2.928  -1.846  -2.578  0.00  0.00    +0.153 C 
ATOM      8  S   UNL     1       3.725  -3.334  -3.312  0.00  0.00    -0.106 S 
ATOM      9  C   UNL     1       2.482  -4.536  -2.876  0.00  0.00    -0.013 C 
ATOM     10  C   UNL     1       1.408  -3.868  -2.501  0.00  0.00    -0.044 C 
ATOM     11  C   UNL     1       0.326  -4.876  -2.093  0.00  0.00    +0.033 C 
ATOM     12  C   UNL     1       0.760  -6.217  -2.716  0.00  0.00    +0.009 C 
ATOM     13  C   UNL     1       2.284  -6.031  -2.804  0.00  0.00    +0.042 C 
BRANCH   6  14
ATOM     14  C   UNL     1       0.775  -1.794  -1.334  0.00  0.00    +0.317 C 
ATOM     15  O   UNL     1       0.314  -2.540  -0.504  0.00  0.00    -0.250 OA
BRANCH  14  16
ATOM     16  O   UNL     1       0.671  -0.465  -1.174  0.00  0.00    -0.464 OA
BRANCH  16  18
ATOM     17  C   UNL     1      -0.019   1.526   0.010  0.00  0.00    +0.048 C 
ATOM     18  C   UNL     1       0.002  -0.004   0.002  0.00  0.00    +0.229 C 
ENDBRANCH  16  18
ENDBRANCH  14  16
ENDBRANCH   6  14
ENDBRANCH   2   7
ENDBRANCH   1   3
BRANCH   1  19
ATOM     19  S   UNL     1       4.943   2.849  -3.074  0.00  0.00    -0.104 S 
BRANCH  19  20
ATOM     20  C   UNL     1       5.026   4.216  -4.263  0.00  0.00    +0.274 C 
ATOM     21  N   UNL     1       3.671   4.689  -4.604  0.00  0.00    -0.281 N 
ATOM     22  C   UNL     1       3.570   4.465  -5.968  0.00  0.00    +0.231 C 
ATOM     23  N   UNL     1       4.723   3.919  -6.424  0.00  0.00    -0.116 NA
ATOM     24  N   UNL     1       5.576   3.752  -5.545  0.00  0.00    -0.150 NA
ATOM     25  N   UNL     1       2.516   4.740  -6.707  0.00  0.00    -0.247 N 
ATOM     26  H   UNL     1       3.004   5.068  -4.010  0.00  0.00    +0.152 HD
ATOM     27  H   UNL     1       2.528   4.552  -7.659  0.00  0.00    +0.192 HD
BRANCH  25  28
ATOM     28  N   UNL     1       1.467   5.261  -6.166  0.00  0.00    -0.179 NA
ATOM     29  C   UNL     1       0.419   5.535  -6.901  0.00  0.00    +0.140 C 
BRANCH  29  30
ATOM     30  C   UNL     1      -0.776   6.127  -6.285  0.00  0.00    -0.005 A 
ATOM     31  C   UNL     1      -0.795   6.406  -4.913  0.00  0.00    +0.011 A 
ATOM     32  C   UNL     1      -1.919   6.963  -4.342  0.00  0.00    +0.020 A 
ATOM     33  C   UNL     1      -3.029   7.246  -5.123  0.00  0.00    +0.041 A 
ATOM     34  C   UNL     1      -3.018   6.973  -6.481  0.00  0.00    +0.020 A 
ATOM     35  C   UNL     1      -1.899   6.421  -7.067  0.00  0.00    +0.011 A 
ATOM     36 CL   UNL     1      -4.441   7.946  -4.394  0.00  0.00    -0.084 Cl
ENDBRANCH  29  30
ENDBRANCH  25  28
ENDBRANCH  19  20
ENDBRANCH   1  19
TORSDOF 9
