REMARK  Name = ZINC11020188
REMARK  9 active torsions:
REMARK  status: ('A' for Active; 'I' for Inactive)
REMARK    1  A    between atoms: C_1  and  C_2
REMARK    2  A    between atoms: C_2  and  C_3
REMARK    3  A    between atoms: C_2  and  C_4
REMARK    4  A    between atoms: C_2  and  C_5
REMARK    5  A    between atoms: C_8  and  C_11
REMARK    6  A    between atoms: C_14  and  S_23
REMARK    7  A    between atoms: N_15  and  C_16
REMARK    8  A    between atoms: S_23  and  C_24
REMARK    9  A    between atoms: C_24  and  C_25
REMARK                            x       y       z     vdW  Elec       q    Type
REMARK                         _______ _______ _______ _____ _____    ______ ____
ROOT
ATOM      1  C   UNL     1       1.242  -0.437  -0.012  0.00  0.00    +0.169 A 
ATOM      2  N   UNL     1       0.002  -0.004   0.002  0.00  0.00    -0.128 NA
ATOM      3  N   UNL     1      -0.015   1.281   0.009  0.00  0.00    -0.122 NA
ATOM      4  C   UNL     1       1.212   1.750  -0.000  0.00  0.00    +0.197 A 
ATOM      5  N   UNL     1       2.057   0.674  -0.014  0.00  0.00    -0.269 N 
ENDROOT
BRANCH   5   6
ATOM      6  C   UNL     1       3.459   0.696  -0.028  0.00  0.00    +0.069 A 
ATOM      7  C   UNL     1       4.143   0.714  -1.236  0.00  0.00    +0.028 A 
ATOM      8  C   UNL     1       5.524   0.737  -1.246  0.00  0.00    +0.002 A 
ATOM      9  C   UNL     1       6.226   0.742  -0.055  0.00  0.00    +0.002 A 
ATOM     10  C   UNL     1       5.549   0.725   1.150  0.00  0.00    +0.022 A 
ATOM     11  C   UNL     1       4.167   0.707   1.168  0.00  0.00    +0.065 A 
ATOM     12 CL   UNL     1       3.316   0.692   2.681  0.00  0.00    -0.081 Cl
ENDBRANCH   5   6
BRANCH   1  16
ATOM     13  C   UNL     1       2.500  -4.493  -0.046  0.00  0.00    -0.042 A 
ATOM     14  C   UNL     1       1.186  -4.177  -0.342  0.00  0.00    +0.005 A 
ATOM     15  C   UNL     1       0.771  -2.862  -0.333  0.00  0.00    +0.012 A 
ATOM     16  C   UNL     1       1.679  -1.848  -0.024  0.00  0.00    +0.020 A 
ATOM     17  C   UNL     1       3.005  -2.174   0.268  0.00  0.00    +0.012 A 
ATOM     18  C   UNL     1       3.406  -3.493   0.260  0.00  0.00    +0.005 A 
BRANCH  13  20
ATOM     19  C   UNL     1       2.727  -6.523  -1.453  0.00  0.00    +0.015 C 
ATOM     20  C   UNL     1       2.947  -5.932  -0.058  0.00  0.00    -0.013 C 
ATOM     21  C   UNL     1       4.432  -6.008   0.300  0.00  0.00    +0.015 C 
ATOM     22  C   UNL     1       2.134  -6.727   0.966  0.00  0.00    +0.015 C 
ENDBRANCH  13  20
ENDBRANCH   1  16
BRANCH   4  23
ATOM     23  S   UNL     1       1.683   3.448   0.004  0.00  0.00    -0.076 S 
BRANCH  23  24
ATOM     24  C   UNL     1       0.049   4.227   0.024  0.00  0.00    +0.173 C 
BRANCH  24  25
ATOM     25  C   UNL     1       0.207   5.725   0.030  0.00  0.00    +0.231 C 
ATOM     26  O   UNL     1       1.314   6.218   0.022  0.00  0.00    -0.274 OA
ATOM     27  N   UNL     1      -0.883   6.518   0.045  0.00  0.00    -0.240 N 
ATOM     28  C   UNL     1      -0.742   7.858   0.051  0.00  0.00    +0.303 C 
ATOM     29  O   UNL     1       0.368   8.352   0.042  0.00  0.00    -0.253 OA
ATOM     30  N   UNL     1      -1.832   8.650   0.065  0.00  0.00    -0.313 N 
ATOM     31  H   UNL     1      -1.770   6.123   0.052  0.00  0.00    +0.159 HD
ATOM     32  H   UNL     1      -2.719   8.256   0.072  0.00  0.00    +0.146 HD
ATOM     33  H   UNL     1      -1.731   9.615   0.069  0.00  0.00    +0.146 HD
ENDBRANCH  24  25
ENDBRANCH  23  24
ENDBRANCH   4  23
TORSDOF 6
