REMARK  Name = ZINC38656180
REMARK  6 active torsions:
REMARK  status: ('A' for Active; 'I' for Inactive)
REMARK    1  A    between atoms: C_5  and  C_7
REMARK    2  A    between atoms: C_7  and  O_9
REMARK    3  A    between atoms: O_9  and  C_10
REMARK    4  A    between atoms: C_17  and  N_28
REMARK    5  A    between atoms: C_18  and  C_26
REMARK    6  A    between atoms: C_19  and  C_21
REMARK                            x       y       z     vdW  Elec       q    Type
REMARK                         _______ _______ _______ _____ _____    ______ ____
ROOT
ATOM      1  C   UNL     1       0.269  -4.202   0.009  0.00  0.00    +0.135 A 
ATOM      2  C   UNL     1       1.547  -4.739   0.070  0.00  0.00    +0.047 A 
ATOM      3  C   UNL     1       1.720  -6.109   0.094  0.00  0.00    +0.012 A 
ATOM      4  C   UNL     1       0.623  -6.951   0.058  0.00  0.00    +0.008 A 
ATOM      5  C   UNL     1      -0.656  -6.421  -0.003  0.00  0.00    +0.138 A 
ATOM      6  C   UNL     1      -0.832  -5.043  -0.022  0.00  0.00    +0.093 A 
ATOM      7  O   UNL     1      -1.744  -7.230  -0.040  0.00  0.00    -0.441 OA
ATOM      8  C   UNL     1      -1.642  -8.507   0.363  0.00  0.00    +0.199 C 
ATOM      9  C   UNL     1      -0.448  -9.141   0.444  0.00  0.00    +0.098 C 
ATOM     10  C   UNL     1       0.833  -8.442   0.084  0.00  0.00    +0.105 C 
ENDROOT
BRANCH  10  11
ATOM     11  C   UNL     1       1.291  -8.906  -1.274  0.00  0.00    +0.002 A 
ATOM     12  C   UNL     1       2.437  -9.543  -1.617  0.00  0.00    +0.012 A 
ATOM     13  C   UNL     1       2.647  -9.877  -2.942  0.00  0.00    +0.008 A 
ATOM     14  C   UNL     1       1.701  -9.558  -3.859  0.00  0.00    +0.045 A 
ATOM     15  S   UNL     1       0.460  -8.767  -2.849  0.00  0.00    -0.101 S 
ENDBRANCH  10  11
BRANCH   8  16
ATOM     16  N   UNL     1      -2.783  -9.191   0.702  0.00  0.00    -0.328 N 
ATOM     17  H   UNL     1      -3.646  -8.751   0.650  0.00  0.00    +0.145 HD
ATOM     18  H   UNL     1      -2.726 -10.114   0.995  0.00  0.00    +0.145 HD
ENDBRANCH   8  16
BRANCH   9  19
ATOM     19  C   UNL     1      -0.405 -10.504   0.881  0.00  0.00    +0.101 C 
ATOM     20  N   UNL     1      -0.371 -11.585   1.228  0.00  0.00    -0.191 NA
ENDBRANCH   9  19
BRANCH   1  21
ATOM     21  O   UNL     1       0.097  -2.855  -0.015  0.00  0.00    -0.422 OA
BRANCH  21  22
ATOM     22  C   UNL     1      -0.294  -2.247   1.122  0.00  0.00    +0.346 C 
ATOM     23  O   UNL     1      -0.567  -2.910   2.102  0.00  0.00    -0.244 OA
BRANCH  22  28
ATOM     24  C   UNL     1      -0.165   1.366   0.110  0.00  0.00    +0.001 A 
ATOM     25  C   UNL     1      -0.567   1.989   1.279  0.00  0.00    +0.001 A 
ATOM     26  C   UNL     1      -0.880   1.238   2.397  0.00  0.00    +0.021 A 
ATOM     27  C   UNL     1      -0.794  -0.140   2.354  0.00  0.00    +0.055 A 
ATOM     28  C   UNL     1      -0.389  -0.774   1.177  0.00  0.00    +0.078 A 
ATOM     29  C   UNL     1      -0.074  -0.008   0.052  0.00  0.00    +0.016 A 
ATOM     30 CL   UNL     1      -1.186  -1.081   3.759  0.00  0.00    -0.083 Cl
ENDBRANCH  22  28
ENDBRANCH  21  22
ENDBRANCH   1  21
TORSDOF 6
