REMARK  Name = ZINC33937114
REMARK  14 active torsions:
REMARK  status: ('A' for Active; 'I' for Inactive)
REMARK    1  A    between atoms: C_1  and  C_2
REMARK    2  A    between atoms: C_2  and  C_3
REMARK    3  A    between atoms: C_3  and  C_5
REMARK    4  A    between atoms: C_3  and  N_17
REMARK    5  A    between atoms: N_9  and  C_10
REMARK    6  A    between atoms: C_10  and  C_11
REMARK    7  A    between atoms: N_17  and  C_18
REMARK    8  A    between atoms: N_17  and  C_27
REMARK    9  A    between atoms: C_18  and  C_19
REMARK   10  A    between atoms: C_22  and  O_25
REMARK   11  A    between atoms: O_25  and  C_26
REMARK   12  A    between atoms: C_27  and  C_28
REMARK   13  A    between atoms: C_32  and  C_41
REMARK   14  A    between atoms: C_34  and  C_40
REMARK                            x       y       z     vdW  Elec       q    Type
REMARK                         _______ _______ _______ _____ _____    ______ ____
ROOT
ATOM      1  N   UNL     1       0.901   0.338   1.653  0.00  0.00    +0.392 N 
ATOM      2  H   UNL     1      -0.091   0.300   1.831  0.00  0.00    -0.080 HD
ENDROOT
BRANCH   1   3
ATOM      3  C   UNL     1       1.287  -0.784   0.787  0.00  0.00    +0.003 C 
BRANCH   3   4
ATOM      4  C   UNL     1       0.223  -1.001  -0.258  0.00  0.00    +0.138 A 
ATOM      5  N   UNL     1      -0.835  -0.255  -0.464  0.00  0.00    -0.115 NA
ATOM      6  N   UNL     1      -1.498  -0.768  -1.443  0.00  0.00    -0.023 NA
ATOM      7  N   UNL     1      -0.891  -1.821  -1.866  0.00  0.00    -0.044 NA
ATOM      8  N   UNL     1       0.177  -1.995  -1.164  0.00  0.00    -0.228 N 
BRANCH   8   9
ATOM      9  C   UNL     1       1.156  -3.074  -1.322  0.00  0.00    +0.178 C 
BRANCH   9  10
ATOM     10  C   UNL     1       0.632  -4.341  -0.643  0.00  0.00    +0.140 C 
ATOM     11  C   UNL     1       1.657  -5.494  -0.790  0.00  0.00    +0.035 C 
ATOM     12  C   UNL     1       1.283  -6.378   0.431  0.00  0.00    +0.031 C 
ATOM     13  C   UNL     1       0.856  -5.327   1.478  0.00  0.00    +0.160 C 
ATOM     14  O   UNL     1       0.502  -4.131   0.772  0.00  0.00    -0.375 OA
ENDBRANCH   9  10
ENDBRANCH   8   9
ENDBRANCH   3   4
BRANCH   3  16
ATOM     15  C   UNL     1       3.771  -0.797   1.051  0.00  0.00    +0.002 C 
ATOM     16  C   UNL     1       2.617  -0.466   0.102  0.00  0.00    -0.011 C 
ENDBRANCH   3  16
ENDBRANCH   1   3
BRANCH   1  17
ATOM     17  C   UNL     1       1.231   1.605   0.988  0.00  0.00    -0.042 C 
BRANCH  17  18
ATOM     18  C   UNL     1       0.340   1.788  -0.214  0.00  0.00    -0.064 A 
ATOM     19  C   UNL     1       0.654   1.163  -1.407  0.00  0.00    +0.005 A 
ATOM     20  C   UNL     1      -0.161   1.329  -2.510  0.00  0.00    +0.046 A 
ATOM     21  C   UNL     1      -1.294   2.124  -2.421  0.00  0.00    +0.120 A 
ATOM     22  C   UNL     1      -1.607   2.749  -1.223  0.00  0.00    +0.046 A 
ATOM     23  C   UNL     1      -0.792   2.576  -0.121  0.00  0.00    +0.005 A 
BRANCH  21  24
ATOM     24  O   UNL     1      -2.097   2.289  -3.505  0.00  0.00    -0.495 OA
ATOM     25  C   UNL     1      -3.247   3.121  -3.340  0.00  0.00    +0.277 C 
ENDBRANCH  21  24
ENDBRANCH  17  18
ENDBRANCH   1  17
BRANCH   1  26
ATOM     26  C   UNL     1       1.631   0.248   2.925  0.00  0.00    -0.036 C 
BRANCH  26  27
ATOM     27  C   UNL     1       1.080  -0.893   3.741  0.00  0.00    +0.001 A 
ATOM     28  C   UNL     1       1.768  -2.059   3.822  0.00  0.00    +0.017 A 
ATOM     29  C   UNL     1       1.206  -3.148   4.623  0.00  0.00    -0.001 A 
ATOM     30  C   UNL     1       1.869  -4.373   4.744  0.00  0.00    +0.013 A 
ATOM     31  C   UNL     1       1.319  -5.369   5.500  0.00  0.00    -0.050 A 
ATOM     32  C   UNL     1       0.106  -5.176   6.148  0.00  0.00    +0.008 A 
ATOM     33  C   UNL     1      -0.565  -3.977   6.042  0.00  0.00    -0.026 A 
ATOM     34  C   UNL     1      -0.023  -2.948   5.279  0.00  0.00    +0.052 A 
ATOM     35  N   UNL     1      -0.672  -1.738   5.156  0.00  0.00    -0.322 N 
ATOM     36  H   UNL     1      -1.519  -1.602   5.609  0.00  0.00    +0.169 HD
ATOM     37  C   UNL     1      -0.146  -0.742   4.423  0.00  0.00    +0.251 A 
ATOM     38  O   UNL     1      -0.745   0.316   4.341  0.00  0.00    -0.268 OA
ATOM     39  C   UNL     1      -1.881  -3.782   6.750  0.00  0.00    +0.046 C 
ATOM     40  C   UNL     1       2.033  -6.690   5.630  0.00  0.00    +0.044 C 
ENDBRANCH  26  27
ENDBRANCH   1  26
TORSDOF 10
