REMARK  Name = ZINC13759087
REMARK  1 active torsions:
REMARK  status: ('A' for Active; 'I' for Inactive)
REMARK    1  A    between atoms: N_11  and  N_12
REMARK                            x       y       z     vdW  Elec       q    Type
REMARK                         _______ _______ _______ _____ _____    ______ ____
ROOT
ATOM      1  N   UNL     1       4.968  -3.176  -0.063  0.00  0.00    -0.174 NA
ATOM      2  C   UNL     1       5.677  -4.281  -0.075  0.00  0.00    +0.153 C 
ATOM      3  C   UNL     1       7.151  -4.401  -0.084  0.00  0.00    +0.029 A 
ATOM      4  C   UNL     1       8.232  -3.525  -0.086  0.00  0.00    +0.012 A 
ATOM      5  C   UNL     1       9.519  -4.032  -0.096  0.00  0.00    +0.001 A 
ATOM      6  C   UNL     1       9.759  -5.402  -0.103  0.00  0.00    +0.005 A 
ATOM      7  C   UNL     1       8.701  -6.275  -0.101  0.00  0.00    -0.025 A 
ATOM      8  C   UNL     1       7.406  -5.765  -0.094  0.00  0.00    +0.049 A 
ATOM      9  N   UNL     1       6.217  -6.500  -0.096  0.00  0.00    -0.265 N 
ATOM     10  C   UNL     1       5.170  -5.673  -0.076  0.00  0.00    +0.271 C 
ATOM     11  O   UNL     1       3.999  -6.006  -0.064  0.00  0.00    -0.268 OA
ATOM     12  C   UNL     1       6.282  -7.971  -0.117  0.00  0.00    +0.114 C 
ATOM     13  C   UNL     1       7.594  -8.386  -0.793  0.00  0.00    +0.024 C 
ATOM     14  C   UNL     1       8.818  -7.776  -0.105  0.00  0.00    +0.038 C 
ENDROOT
BRANCH   1  25
ATOM     15  C   UNL     1      -0.017   1.375   0.010  0.00  0.00    +0.002 A 
ATOM     16  C   UNL     1       1.170   2.094   0.002  0.00  0.00    +0.002 A 
ATOM     17  C   UNL     1       2.382   1.443  -0.013  0.00  0.00    +0.030 A 
ATOM     18  C   UNL     1       2.419   0.045  -0.021  0.00  0.00    +0.091 A 
ATOM     19  C   UNL     1       1.214  -0.678  -0.013  0.00  0.00    +0.067 A 
ATOM     20  C   UNL     1       0.002  -0.004   0.002  0.00  0.00    +0.028 A 
ATOM     21  N   UNL     1       1.569  -2.015  -0.024  0.00  0.00    -0.325 N 
ATOM     22  H   UNL     1       0.961  -2.772  -0.022  0.00  0.00    +0.169 HD
ATOM     23  C   UNL     1       2.933  -2.072  -0.037  0.00  0.00    +0.214 A 
ATOM     24  N   UNL     1       3.429  -0.861  -0.036  0.00  0.00    -0.213 NA
ATOM     25  N   UNL     1       3.679  -3.236  -0.050  0.00  0.00    -0.206 N 
ATOM     26  H   UNL     1       3.234  -4.098  -0.050  0.00  0.00    +0.177 HD
ENDBRANCH   1  25
TORSDOF 1
