REMARK  Name = ZINC63213151
REMARK  4 active torsions:
REMARK  status: ('A' for Active; 'I' for Inactive)
REMARK    1  A    between atoms: C_3  and  S_9
REMARK    2  A    between atoms: S_9  and  N_12
REMARK    3  A    between atoms: N_12  and  C_13
REMARK    4  A    between atoms: C_20  and  N_22
REMARK                            x       y       z     vdW  Elec       q    Type
REMARK                         _______ _______ _______ _____ _____    ______ ____
ROOT
ATOM      1  N   UNL     1       4.602   2.095   1.456  0.00  0.00    -0.188 NA
ATOM      2  H   UNL     1       4.584   2.809   2.112  0.00  0.00    +0.148 HD
ENDROOT
BRANCH   1   3
ATOM      3  C   UNL     1       5.155   0.786   1.814  0.00  0.00    +0.062 C 
ATOM      4  C   UNL     1       6.677   0.805   1.574  0.00  0.00    +0.019 C 
ATOM      5  C   UNL     1       7.411  -0.336   2.303  0.00  0.00    +0.001 C 
ATOM      6  C   UNL     1       6.671  -1.644   2.218  0.00  0.00    -0.000 C 
ATOM      7  C   UNL     1       5.791  -1.792   3.475  0.00  0.00    -0.002 C 
ATOM      8  C   UNL     1       4.553  -1.033   3.378  0.00  0.00    -0.015 C 
ATOM      9  C   UNL     1       4.804   0.484   3.246  0.00  0.00    -0.056 C 
BRANCH   9  10
ATOM     10  N   UNL     1       3.588   1.220   3.621  0.00  0.00    +0.381 N 
ATOM     11  H   UNL     1       2.827   0.938   3.023  0.00  0.00    -0.090 HD
ATOM     12  H   UNL     1       3.355   1.016   4.581  0.00  0.00    -0.090 HD
ATOM     13  H   UNL     1       3.749   2.210   3.517  0.00  0.00    -0.090 HD
ENDBRANCH   9  10
ENDBRANCH   1   3
BRANCH   1  14
ATOM     14  S   UNL     1       4.009   2.354  -0.068  0.00  0.00    +0.060 S 
ATOM     15  O   UNL     1       4.985   1.857  -0.974  0.00  0.00    -0.153 OA
ATOM     16  O   UNL     1       3.553   3.700  -0.103  0.00  0.00    -0.153 OA
BRANCH  14  19
ATOM     17  C   UNL     1       1.476  -0.507  -1.308  0.00  0.00    +0.040 A 
ATOM     18  C   UNL     1       2.593   0.293  -1.161  0.00  0.00    +0.032 A 
ATOM     19  C   UNL     1       2.584   1.335  -0.253  0.00  0.00    +0.119 A 
ATOM     20  C   UNL     1       1.457   1.577   0.512  0.00  0.00    +0.047 A 
ATOM     21  C   UNL     1       0.338   0.777   0.367  0.00  0.00    +0.055 A 
ATOM     22  C   UNL     1       0.347  -0.266  -0.543  0.00  0.00    +0.125 A 
ATOM     23  F   UNL     1      -0.746  -1.048  -0.686  0.00  0.00    -0.205 F 
ATOM     24 BR   UNL     1       1.446   3.002   1.755  0.00  0.00    -0.048 Br
ENDBRANCH  14  19
ENDBRANCH   1  14
TORSDOF 4
