REMARK  Name = ZINC06057902
REMARK  10 active torsions:
REMARK  status: ('A' for Active; 'I' for Inactive)
REMARK    1  A    between atoms: C_1  and  C_2
REMARK    2  A    between atoms: C_5  and  C_8
REMARK    3  A    between atoms: C_11  and  S_14
REMARK    4  A    between atoms: N_12  and  N_13
REMARK    5  A    between atoms: S_14  and  C_15
REMARK    6  A    between atoms: C_15  and  C_17
REMARK    7  A    between atoms: C_15  and  C_18
REMARK    8  A    between atoms: N_20  and  C_21
REMARK    9  A    between atoms: C_25  and  C_27
REMARK   10  A    between atoms: C_27  and  C_29
REMARK                            x       y       z     vdW  Elec       q    Type
REMARK                         _______ _______ _______ _____ _____    ______ ____
ROOT
ATOM      1  S   UNL     1      -2.786   1.606   0.416  0.00  0.00    -0.072 S 
ENDROOT
BRANCH   1   5
ATOM      2  C   UNL     1       1.080   2.171   0.362  0.00  0.00    +0.182 A 
ATOM      3  N   UNL     1       0.609   3.384   0.189  0.00  0.00    -0.127 NA
ATOM      4  N   UNL     1      -0.676   3.360   0.188  0.00  0.00    -0.121 NA
ATOM      5  C   UNL     1      -1.105   2.129   0.356  0.00  0.00    +0.209 A 
ATOM      6  N   UNL     1      -0.003   1.330   0.478  0.00  0.00    -0.224 N 
BRANCH   2  11
ATOM      7  C   UNL     1       6.626   0.656   0.594  0.00  0.00    +0.044 C 
ATOM      8  C   UNL     1       5.174   1.053   0.533  0.00  0.00    -0.050 A 
ATOM      9  C   UNL     1       4.819   2.297   0.042  0.00  0.00    +0.004 A 
ATOM     10  C   UNL     1       3.491   2.666  -0.017  0.00  0.00    +0.012 A 
ATOM     11  C   UNL     1       2.505   1.782   0.421  0.00  0.00    +0.021 A 
ATOM     12  C   UNL     1       2.869   0.531   0.921  0.00  0.00    +0.012 A 
ATOM     13  C   UNL     1       4.200   0.172   0.969  0.00  0.00    +0.004 A 
ENDBRANCH   2  11
BRANCH   6  14
ATOM     14  N   UNL     1       0.019  -0.022   0.670  0.00  0.00    -0.295 N 
ATOM     15  H   UNL     1       0.022  -0.248   1.653  0.00  0.00    +0.163 HD
ATOM     16  H   UNL     1      -0.755  -0.467   0.199  0.00  0.00    +0.163 HD
ENDBRANCH   6  14
ENDBRANCH   1   5
BRANCH   1  17
ATOM     17  C   UNL     1      -3.618   3.197   0.184  0.00  0.00    +0.137 C 
ATOM     18  C   UNL     1      -3.300   3.740  -1.210  0.00  0.00    +0.029 C 
BRANCH  17  19
ATOM     19  C   UNL     1      -5.107   3.010   0.323  0.00  0.00    +0.230 C 
ATOM     20  O   UNL     1      -5.595   1.907   0.193  0.00  0.00    -0.274 OA
ATOM     21  N   UNL     1      -5.897   4.068   0.593  0.00  0.00    -0.285 N 
ATOM     22  H   UNL     1      -5.501   4.935   0.773  0.00  0.00    +0.155 HD
BRANCH  21  23
ATOM     23  C   UNL     1      -7.288   3.916   0.613  0.00  0.00    +0.034 A 
ATOM     24  C   UNL     1      -8.057   4.672   1.490  0.00  0.00    +0.023 A 
ATOM     25  C   UNL     1      -9.432   4.527   1.515  0.00  0.00    +0.002 A 
ATOM     26  C   UNL     1     -10.051   3.630   0.669  0.00  0.00    +0.011 A 
ATOM     27  C   UNL     1      -9.288   2.865  -0.218  0.00  0.00    +0.019 A 
ATOM     28  C   UNL     1      -7.899   3.017  -0.246  0.00  0.00    +0.034 A 
BRANCH  27  29
ATOM     29  C   UNL     1      -9.945   1.908  -1.123  0.00  0.00    +0.160 C 
ATOM     30  O   UNL     1      -9.280   1.245  -1.891  0.00  0.00    -0.292 OA
ATOM     31  C   UNL     1     -11.443   1.751  -1.095  0.00  0.00    +0.091 C 
ENDBRANCH  27  29
ENDBRANCH  21  23
ENDBRANCH  17  19
ENDBRANCH   1  17
TORSDOF 7
