REMARK  Name = ZINC12150909
REMARK  8 active torsions:
REMARK  status: ('A' for Active; 'I' for Inactive)
REMARK    1  A    between atoms: C_1  and  C_2
REMARK    2  A    between atoms: C_6  and  C_10
REMARK    3  A    between atoms: C_10  and  N_11
REMARK    4  A    between atoms: C_12  and  C_18
REMARK    5  A    between atoms: C_18  and  C_19
REMARK    6  A    between atoms: C_19  and  N_52
REMARK    7  A    between atoms: C_20  and  C_21
REMARK    8  A    between atoms: C_20  and  N_52
REMARK                            x       y       z     vdW  Elec       q    Type
REMARK                         _______ _______ _______ _____ _____    ______ ____
ROOT
ATOM      1  N   UNL     1      -0.618   5.620  -1.783  0.00  0.00    -0.293 N 
ATOM      2  C   UNL     1       0.540   6.274  -2.403  0.00  0.00    +0.075 C 
ATOM      3  C   UNL     1       0.161   6.453  -3.892  0.00  0.00    +0.031 C 
ATOM      4  C   UNL     1      -1.383   6.490  -3.820  0.00  0.00    +0.098 C 
ATOM      5  C   UNL     1      -1.714   5.733  -2.553  0.00  0.00    +0.216 C 
ATOM      6  O   UNL     1      -2.808   5.293  -2.273  0.00  0.00    -0.276 OA
ENDROOT
BRANCH   1   7
ATOM      7  C   UNL     1      -0.585   4.935  -0.488  0.00  0.00    +0.165 C 
BRANCH   7  13
ATOM      8  C   UNL     1       1.237  -2.235  -1.463  0.00  0.00    +0.053 C 
ATOM      9  C   UNL     1       0.647  -0.858  -1.300  0.00  0.00    +0.007 A 
ATOM     10  C   UNL     1       1.265   0.296  -1.052  0.00  0.00    +0.103 A 
ATOM     11  N   UNL     1       0.550   1.468  -0.934  0.00  0.00    -0.300 N 
ATOM     12  C   UNL     1       0.798   2.817  -0.692  0.00  0.00    +0.118 A 
ATOM     13  C   UNL     1      -0.382   3.458  -0.705  0.00  0.00    +0.078 A 
ATOM     14  N   UNL     1      -1.350   2.559  -0.943  0.00  0.00    -0.225 NA
ATOM     15  C   UNL     1      -0.809   1.383  -1.083  0.00  0.00    +0.178 A 
ATOM     16  S   UNL     1      -1.063  -0.349  -1.388  0.00  0.00    -0.055 S 
ENDBRANCH   7  13
ENDBRANCH   1   7
BRANCH   2  17
ATOM     17  C   UNL     1       1.780   5.388  -2.276  0.00  0.00    +0.003 C 
BRANCH  17  18
ATOM     18  C   UNL     1       3.003   6.144  -2.800  0.00  0.00    -0.080 C 
BRANCH  18  19
ATOM     19  N   UNL     1       4.211   5.331  -2.565  0.00  0.00    +0.382 N 
ATOM     20  H   UNL     1       4.157   4.473  -3.127  0.00  0.00    -0.085 HD
ATOM     21  H   UNL     1       4.266   5.085  -1.570  0.00  0.00    -0.085 HD
BRANCH  19  22
ATOM     22  C   UNL     1       5.419   6.087  -2.947  0.00  0.00    -0.045 C 
BRANCH  22  23
ATOM     23  C   UNL     1       6.627   5.199  -2.790  0.00  0.00    -0.042 A 
ATOM     24  C   UNL     1       7.225   4.643  -3.906  0.00  0.00    +0.052 A 
ATOM     25  C   UNL     1       8.338   3.831  -3.764  0.00  0.00    +0.167 A 
ATOM     26  C   UNL     1       8.847   3.568  -2.495  0.00  0.00    +0.168 A 
ATOM     27  C   UNL     1       8.241   4.123  -1.380  0.00  0.00    +0.069 A 
ATOM     28  C   UNL     1       7.132   4.938  -1.529  0.00  0.00    +0.046 A 
ATOM     29 CL   UNL     1       6.374   5.633  -0.131  0.00  0.00    -0.083 Cl
ATOM     30  O   UNL     1       9.930   2.746  -2.621  0.00  0.00    -0.453 OA
ATOM     31  C   UNL     1       9.832   2.181  -3.942  0.00  0.00    +0.466 C 
ATOM     32  O   UNL     1       9.102   3.175  -4.686  0.00  0.00    -0.453 OA
ENDBRANCH  22  23
ENDBRANCH  19  22
ENDBRANCH  18  19
ENDBRANCH  17  18
ENDBRANCH   2  17
TORSDOF 7
