REMARK  Name = ZINC13520690
REMARK  6 active torsions:
REMARK  status: ('A' for Active; 'I' for Inactive)
REMARK    1  A    between atoms: C_2  and  C_3
REMARK    2  A    between atoms: C_3  and  N_4
REMARK    3  A    between atoms: C_11  and  N_14
REMARK    4  A    between atoms: C_12  and  O_13
REMARK    5  A    between atoms: N_15  and  C_16
REMARK    6  A    between atoms: N_17  and  C_18
REMARK                            x       y       z     vdW  Elec       q    Type
REMARK                         _______ _______ _______ _____ _____    ______ ____
ROOT
ATOM      1  N   UNL     1      -0.735  -1.531  -1.411  0.00  0.00    -0.306 N 
ATOM      2  C   UNL     1      -1.514  -1.307  -2.534  0.00  0.00    +0.055 A 
ATOM      3  C   UNL     1      -2.111  -0.165  -3.056  0.00  0.00    +0.026 A 
ATOM      4  C   UNL     1      -2.848  -0.242  -4.219  0.00  0.00    +0.002 A 
ATOM      5  C   UNL     1      -3.003  -1.452  -4.877  0.00  0.00    +0.001 A 
ATOM      6  C   UNL     1      -2.420  -2.596  -4.375  0.00  0.00    +0.012 A 
ATOM      7  C   UNL     1      -1.673  -2.530  -3.202  0.00  0.00    +0.031 A 
ATOM      8  C   UNL     1      -0.931  -3.531  -2.407  0.00  0.00    +0.155 A 
ATOM      9  C   UNL     1      -0.381  -2.837  -1.328  0.00  0.00    +0.222 A 
ENDROOT
BRANCH   9  10
ATOM     10  O   UNL     1       0.381  -3.381  -0.355  0.00  0.00    -0.492 OA
ATOM     11  H   UNL     1      -0.123  -3.706   0.403  0.00  0.00    +0.294 HD
ENDBRANCH   9  10
BRANCH   8  12
ATOM     12  N   UNL     1      -0.809  -4.837  -2.671  0.00  0.00    -0.141 NA
ATOM     13  N   UNL     1      -0.125  -5.593  -1.880  0.00  0.00    -0.123 NA
BRANCH  13  14
ATOM     14  C   UNL     1      -0.002  -6.909  -2.146  0.00  0.00    +0.199 C 
ATOM     15  N   UNL     1       0.726  -7.714  -1.304  0.00  0.00    -0.330 N 
ATOM     16  S   UNL     1      -0.729  -7.556  -3.490  0.00  0.00    -0.009 SA
ATOM     17  H   UNL     1       1.072  -7.358  -0.470  0.00  0.00    +0.168 HD
BRANCH  15  18
ATOM     18  C   UNL     1       0.970  -9.048  -1.648  0.00  0.00    +0.077 A 
ATOM     19  C   UNL     1       1.339  -9.375  -2.946  0.00  0.00    +0.028 A 
ATOM     20  C   UNL     1       1.579 -10.693  -3.283  0.00  0.00    +0.002 A 
ATOM     21  C   UNL     1       1.452 -11.687  -2.330  0.00  0.00    +0.003 A 
ATOM     22  C   UNL     1       1.085 -11.367  -1.036  0.00  0.00    +0.040 A 
ATOM     23  C   UNL     1       0.849 -10.049  -0.690  0.00  0.00    +0.147 A 
ATOM     24  F   UNL     1       0.495  -9.735   0.575  0.00  0.00    -0.203 F 
ENDBRANCH  15  18
ENDBRANCH  13  14
ENDBRANCH   8  12
BRANCH   1  25
ATOM     25  C   UNL     1      -0.343  -0.498  -0.449  0.00  0.00    +0.152 C 
BRANCH  25  27
ATOM     26  C   UNL     1       1.044   1.422  -1.044  0.00  0.00    +0.005 C 
ATOM     27  C   UNL     1       0.959   0.124  -0.883  0.00  0.00    -0.013 C 
ENDBRANCH  25  27
ENDBRANCH   1  25
TORSDOF 6
