REMARK  Name = ZINC17304331
REMARK  7 active torsions:
REMARK  status: ('A' for Active; 'I' for Inactive)
REMARK    1  A    between atoms: N_11  and  C_12
REMARK    2  A    between atoms: C_12  and  C_14
REMARK    3  A    between atoms: C_14  and  C_15
REMARK    4  A    between atoms: C_15  and  N_16
REMARK    5  A    between atoms: N_16  and  C_17
REMARK    6  A    between atoms: C_20  and  C_26
REMARK    7  A    between atoms: C_22  and  N_23
REMARK                            x       y       z     vdW  Elec       q    Type
REMARK                         _______ _______ _______ _____ _____    ______ ____
ROOT
ATOM      1  C   UNL     1       7.172  -4.214  -0.571  0.00  0.00    +0.111 C 
ENDROOT
BRANCH   1   2
ATOM      2  N   UNL     1       7.918  -5.473  -0.644  0.00  0.00    -0.342 N 
ATOM      3  H   UNL     1       7.442  -6.319  -0.650  0.00  0.00    +0.146 HD
BRANCH   2   4
ATOM      4  C   UNL     1       9.313  -5.456  -0.704  0.00  0.00    +0.058 A 
ATOM      5  C   UNL     1      10.000  -4.254  -0.595  0.00  0.00    +0.026 A 
ATOM      6  C   UNL     1      11.379  -4.240  -0.655  0.00  0.00    +0.014 A 
ATOM      7  C   UNL     1      12.077  -5.423  -0.823  0.00  0.00    +0.057 A 
ATOM      8  C   UNL     1      11.396  -6.621  -0.933  0.00  0.00    +0.047 A 
ATOM      9  C   UNL     1      10.017  -6.642  -0.868  0.00  0.00    +0.147 A 
BRANCH   7  10
ATOM     10  C   UNL     1      13.583  -5.404  -0.888  0.00  0.00    +0.417 C 
ATOM     11  F   UNL     1      14.039  -4.089  -0.755  0.00  0.00    -0.166 F 
ATOM     12  F   UNL     1      14.103  -6.186   0.149  0.00  0.00    -0.166 F 
ATOM     13  F   UNL     1      14.003  -5.922  -2.118  0.00  0.00    -0.166 F 
ENDBRANCH   7  10
BRANCH   9  14
ATOM     14  N   UNL     1       9.289  -7.926  -0.979  0.00  0.00    +0.058 N 
ATOM     15  O   UNL     1       8.304  -8.123  -0.307  0.00  0.00    -0.126 OA
ATOM     16  O   UNL     1       9.681  -8.779  -1.742  0.00  0.00    -0.126 OA
ENDBRANCH   9  14
ENDBRANCH   2   4
ENDBRANCH   1   2
BRANCH   1  17
ATOM     17  C   UNL     1       5.672  -4.512  -0.515  0.00  0.00    +0.116 C 
BRANCH  17  18
ATOM     18  C   UNL     1       4.906  -3.217  -0.440  0.00  0.00    +0.241 C 
ATOM     19  O   UNL     1       5.502  -2.157  -0.432  0.00  0.00    -0.274 OA
BRANCH  18  30
ATOM     20  C   UNL     1      -0.009   1.428  -0.562  0.00  0.00    +0.002 A 
ATOM     21  C   UNL     1       1.179   2.138  -0.510  0.00  0.00    +0.002 A 
ATOM     22  C   UNL     1       2.387   1.472  -0.453  0.00  0.00    +0.028 A 
ATOM     23  C   UNL     1       2.411   0.085  -0.447  0.00  0.00    +0.065 A 
ATOM     24  C   UNL     1       1.214  -0.632  -0.499  0.00  0.00    +0.065 A 
ATOM     25  C   UNL     1       0.005   0.048  -0.556  0.00  0.00    +0.028 A 
ATOM     26  N   UNL     1       1.543  -1.983  -0.480  0.00  0.00    -0.326 N 
ATOM     27  H   UNL     1       0.915  -2.721  -0.506  0.00  0.00    +0.169 HD
ATOM     28  C   UNL     1       2.896  -2.091  -0.418  0.00  0.00    +0.198 A 
ATOM     29  N   UNL     1       3.443  -0.847  -0.397  0.00  0.00    -0.326 N 
ATOM     30  N   UNL     1       3.578  -3.233  -0.382  0.00  0.00    -0.147 NA
ATOM     31  H   UNL     1       4.391  -0.643  -0.355  0.00  0.00    +0.169 HD
ENDBRANCH  18  30
ENDBRANCH  17  18
ENDBRANCH   1  17
TORSDOF 7
