REMARK  Name = ZINC06104028
REMARK  4 active torsions:
REMARK  status: ('A' for Active; 'I' for Inactive)
REMARK    1  A    between atoms: C_5  and  C_11
REMARK    2  A    between atoms: C_11  and  S_12
REMARK    3  A    between atoms: S_12  and  C_13
REMARK    4  A    between atoms: C_16  and  C_18
REMARK                            x       y       z     vdW  Elec       q    Type
REMARK                         _______ _______ _______ _____ _____    ______ ____
ROOT
ATOM      1  S   UNL     1       1.710   3.424   0.003  0.00  0.00    -0.059 S 
ENDROOT
BRANCH   1   2
ATOM      2  C   UNL     1       1.216   1.733  -0.000  0.00  0.00    +0.278 A 
ATOM      3  N   UNL     1      -0.015   1.282   0.009  0.00  0.00    -0.101 NA
ATOM      4  N   UNL     1       0.002  -0.004   0.002  0.00  0.00    -0.111 NA
ATOM      5  C   UNL     1       1.234  -0.423  -0.012  0.00  0.00    +0.221 A 
ATOM      6  O   UNL     1       2.033   0.662  -0.014  0.00  0.00    -0.415 OA
BRANCH   5   7
ATOM      7  C   UNL     1       1.685  -1.861  -0.024  0.00  0.00    +0.077 C 
ATOM      8  C   UNL     1       1.138  -2.557  -1.271  0.00  0.00    +0.013 C 
ATOM      9  C   UNL     1       1.596  -4.017  -1.283  0.00  0.00    +0.001 C 
ATOM     10  C   UNL     1       1.072  -4.726  -0.033  0.00  0.00    +0.000 C 
ATOM     11  C   UNL     1       1.619  -4.029   1.215  0.00  0.00    +0.001 C 
ATOM     12  C   UNL     1       1.161  -2.570   1.227  0.00  0.00    +0.013 C 
ENDBRANCH   5   7
ENDBRANCH   1   2
BRANCH   1  13
ATOM     13  C   UNL     1       0.088   4.226   0.023  0.00  0.00    +0.136 C 
BRANCH  13  18
ATOM     14  C   UNL     1       0.785  10.134  -0.721  0.00  0.00    +0.025 A 
ATOM     15  C   UNL     1       0.638   8.962  -1.395  0.00  0.00    +0.048 A 
ATOM     16  C   UNL     1       0.503   7.761  -0.671  0.00  0.00    +0.138 A 
ATOM     17  N   UNL     1       0.348   6.501  -1.053  0.00  0.00    -0.232 NA
ATOM     18  C   UNL     1       0.267   5.722   0.029  0.00  0.00    +0.070 A 
ATOM     19  C   UNL     1       0.366   6.500   1.129  0.00  0.00    +0.116 A 
ATOM     20  N   UNL     1       0.521   7.790   0.699  0.00  0.00    -0.305 N 
ATOM     21  C   UNL     1       0.669   8.973   1.364  0.00  0.00    +0.112 A 
ATOM     22  C   UNL     1       0.800  10.132   0.684  0.00  0.00    +0.058 A 
ATOM     23 CL   UNL     1       0.986  11.626   1.549  0.00  0.00    -0.082 Cl
ENDBRANCH  13  18
ENDBRANCH   1  13
TORSDOF 4
