REMARK  Name = ZINC36605399
REMARK  16 active torsions:
REMARK  status: ('A' for Active; 'I' for Inactive)
REMARK    1  A    between atoms: C_1  and  C_2
REMARK    2  A    between atoms: C_2  and  C_3
REMARK    3  A    between atoms: C_2  and  C_4
REMARK    4  A    between atoms: C_2  and  C_5
REMARK    5  A    between atoms: C_5  and  C_6
REMARK    6  A    between atoms: C_6  and  C_7
REMARK    7  A    between atoms: C_6  and  C_8
REMARK    8  A    between atoms: C_6  and  N_9
REMARK    9  A    between atoms: C_10  and  C_12
REMARK   10  A    between atoms: C_12  and  C_14
REMARK   11  A    between atoms: C_12  and  N_23
REMARK   12  A    between atoms: N_23  and  C_24
REMARK   13  A    between atoms: C_30  and  C_32
REMARK   14  A    between atoms: C_32  and  C_34
REMARK   15  A    between atoms: C_32  and  O_40
REMARK   16  A    between atoms: O_40  and  C_41
REMARK                            x       y       z     vdW  Elec       q    Type
REMARK                         _______ _______ _______ _____ _____    ______ ____
ROOT
ATOM      1  C   UNL     1       5.157  -0.349  -4.343  0.00  0.00    +0.197 C 
ENDROOT
BRANCH   1   2
ATOM      2  C   UNL     1       5.407  -1.777  -4.754  0.00  0.00    -0.014 A 
ATOM      3  C   UNL     1       6.449  -2.486  -4.185  0.00  0.00    +0.010 A 
ATOM      4  C   UNL     1       6.683  -3.796  -4.558  0.00  0.00    +0.050 A 
ATOM      5  C   UNL     1       5.872  -4.403  -5.503  0.00  0.00    +0.166 A 
ATOM      6  C   UNL     1       4.823  -3.689  -6.077  0.00  0.00    +0.167 A 
ATOM      7  C   UNL     1       4.591  -2.378  -5.694  0.00  0.00    +0.055 A 
ATOM      8  O   UNL     1       4.181  -4.499  -6.969  0.00  0.00    -0.453 OA
ATOM      9  C   UNL     1       5.096  -5.578  -7.236  0.00  0.00    +0.466 C 
ATOM     10  O   UNL     1       5.888  -5.660  -6.037  0.00  0.00    -0.453 OA
ENDBRANCH   1   2
BRANCH   1  12
ATOM     11  N   UNL     1       3.599  -0.959  -2.521  0.00  0.00    -0.308 N 
ATOM     12  C   UNL     1       4.717  -0.310  -2.902  0.00  0.00    +0.239 C 
ATOM     13  O   UNL     1       5.369   0.305  -2.086  0.00  0.00    -0.273 OA
ATOM     14  H   UNL     1       3.078  -1.452  -3.174  0.00  0.00    +0.149 HD
BRANCH  11  15
ATOM     15  C   UNL     1       3.172  -0.921  -1.121  0.00  0.00    +0.030 C 
ATOM     16  C   UNL     1       3.176   0.526  -0.625  0.00  0.00    +0.031 C 
ATOM     17  C   UNL     1       4.134  -1.754  -0.271  0.00  0.00    +0.031 C 
BRANCH  15  18
ATOM     18  C   UNL     1       1.759  -1.497  -1.003  0.00  0.00    +0.031 C 
BRANCH  18  20
ATOM     19  C   UNL     1       1.138  -1.761  -3.408  0.00  0.00    +0.010 C 
ATOM     20  C   UNL     1       0.889  -0.949  -2.135  0.00  0.00    -0.036 C 
ATOM     21  C   UNL     1       1.245   0.517  -2.388  0.00  0.00    +0.010 C 
ATOM     22  C   UNL     1      -0.586  -1.055  -1.743  0.00  0.00    +0.010 C 
ENDBRANCH  18  20
ENDBRANCH  15  18
ENDBRANCH  11  15
ENDBRANCH   1  12
BRANCH   1  23
ATOM     23  N   UNL     1       6.390   0.427  -4.499  0.00  0.00    -0.253 N 
ATOM     24  C   UNL     1       6.380   1.758  -4.286  0.00  0.00    +0.254 C 
ATOM     25  O   UNL     1       7.376   2.414  -4.502  0.00  0.00    -0.272 OA
BRANCH  23  26
ATOM     26  C   UNL     1       7.577  -0.213  -4.869  0.00  0.00    +0.038 A 
ATOM     27  C   UNL     1       7.705  -0.765  -6.137  0.00  0.00    +0.023 A 
ATOM     28  C   UNL     1       8.879  -1.395  -6.500  0.00  0.00    +0.002 A 
ATOM     29  C   UNL     1       9.927  -1.478  -5.601  0.00  0.00    +0.000 A 
ATOM     30  C   UNL     1       9.803  -0.930  -4.338  0.00  0.00    +0.002 A 
ATOM     31  C   UNL     1       8.634  -0.293  -3.971  0.00  0.00    +0.023 A 
ENDBRANCH  23  26
BRANCH  24  32
ATOM     32  C   UNL     1       5.130   2.430  -3.778  0.00  0.00    +0.234 C 
BRANCH  32  33
ATOM     33  C   UNL     1       4.114   2.507  -4.889  0.00  0.00    -0.010 A 
ATOM     34  C   UNL     1       4.304   3.385  -5.939  0.00  0.00    +0.006 A 
ATOM     35  C   UNL     1       3.373   3.456  -6.958  0.00  0.00    +0.000 A 
ATOM     36  C   UNL     1       2.252   2.648  -6.927  0.00  0.00    +0.000 A 
ATOM     37  C   UNL     1       2.062   1.769  -5.877  0.00  0.00    +0.000 A 
ATOM     38  C   UNL     1       2.996   1.696  -4.860  0.00  0.00    +0.006 A 
ENDBRANCH  32  33
BRANCH  32  39
ATOM     39  O   UNL     1       5.447   3.750  -3.330  0.00  0.00    -0.366 OA
ATOM     40  C   UNL     1       5.813   3.823  -1.951  0.00  0.00    +0.195 C 
ENDBRANCH  32  39
ENDBRANCH  24  32
ENDBRANCH   1  23
TORSDOF 10
