REMARK  Name = ZINC01452133
REMARK  4 active torsions:
REMARK  status: ('A' for Active; 'I' for Inactive)
REMARK    1  A    between atoms: C_1  and  C_2
REMARK    2  A    between atoms: C_5  and  C_8
REMARK    3  A    between atoms: C_18  and  C_24
REMARK    4  A    between atoms: C_20  and  C_22
REMARK                            x       y       z     vdW  Elec       q    Type
REMARK                         _______ _______ _______ _____ _____    ______ ____
ROOT
ATOM      1  C   UNL     1      -0.076   5.774   0.034  0.00  0.00    +0.069 C 
ATOM      2  C   UNL     1      -0.752   6.258  -1.203  0.00  0.00    +0.033 A 
ATOM      3  C   UNL     1      -1.609   7.288  -1.363  0.00  0.00    +0.087 A 
ATOM      4  N   UNL     1      -2.071   7.500  -2.640  0.00  0.00    -0.311 N 
ATOM      5  H   UNL     1      -2.687   8.228  -2.816  0.00  0.00    +0.170 HD
ATOM      6  C   UNL     1      -1.671   6.701  -3.649  0.00  0.00    +0.289 A 
ATOM      7  O   UNL     1      -1.979   6.745  -4.827  0.00  0.00    -0.260 OA
ATOM      8  S   UNL     1      -0.605   5.593  -2.844  0.00  0.00    -0.030 S 
ATOM      9  S   UNL     1      -2.088   8.289   0.031  0.00  0.00    -0.103 S 
ATOM     10  C   UNL     1      -0.877   7.786   1.292  0.00  0.00    +0.061 C 
ATOM     11  C   UNL     1      -0.793   6.255   1.293  0.00  0.00    +0.077 C 
ATOM     12  C   UNL     1      -1.331   8.278   2.668  0.00  0.00    +0.020 C 
ENDROOT
BRANCH   1  17
ATOM     13  C   UNL     1       0.002  -0.004   0.002  0.00  0.00    +0.044 C 
ATOM     14  C   UNL     1      -0.018   1.503   0.010  0.00  0.00    -0.050 A 
ATOM     15  C   UNL     1      -1.225   2.178   0.020  0.00  0.00    +0.003 A 
ATOM     16  C   UNL     1      -1.244   3.560   0.031  0.00  0.00    +0.004 A 
ATOM     17  C   UNL     1      -0.056   4.267   0.025  0.00  0.00    -0.039 A 
ATOM     18  C   UNL     1       1.151   3.592   0.010  0.00  0.00    +0.004 A 
ATOM     19  C   UNL     1       1.169   2.210   0.003  0.00  0.00    +0.003 A 
ENDBRANCH   1  17
BRANCH  11  20
ATOM     20  C   UNL     1      -0.031   5.796   2.509  0.00  0.00    +0.228 C 
ATOM     21  O   UNL     1      -0.564   5.078   3.321  0.00  0.00    -0.301 OA
ENDBRANCH  11  20
TORSDOF 2
