REMARK  Name = ZINC04205343
REMARK  10 active torsions:
REMARK  status: ('A' for Active; 'I' for Inactive)
REMARK    1  A    between atoms: C_1  and  C_2
REMARK    2  A    between atoms: C_2  and  C_3
REMARK    3  A    between atoms: C_2  and  C_4
REMARK    4  A    between atoms: C_2  and  C_5
REMARK    5  A    between atoms: C_8  and  O_11
REMARK    6  A    between atoms: O_11  and  C_12
REMARK    7  A    between atoms: C_13  and  C_23
REMARK    8  A    between atoms: C_24  and  C_25
REMARK    9  A    between atoms: C_24  and  C_27
REMARK   10  A    between atoms: N_29  and  C_30
REMARK                            x       y       z     vdW  Elec       q    Type
REMARK                         _______ _______ _______ _____ _____    ______ ____
ROOT
ATOM      1  C   UNL     1      -0.905  -1.887   0.193  0.00  0.00    +0.235 A 
ATOM      2  C   UNL     1       0.204  -2.758   0.068  0.00  0.00    +0.103 A 
ATOM      3  C   UNL     1       1.504  -2.188   0.023  0.00  0.00    +0.269 A 
ATOM      4  O   UNL     1       2.488  -2.898  -0.085  0.00  0.00    -0.266 OA
ATOM      5  N   UNL     1       1.630  -0.846   0.100  0.00  0.00    -0.268 N 
ATOM      6  C   UNL     1       2.873  -0.290   0.057  0.00  0.00    +0.096 A 
ATOM      7  C   UNL     1       3.035   1.051   0.133  0.00  0.00    +0.018 A 
ATOM      8  C   UNL     1       1.918   1.887   0.257  0.00  0.00    +0.005 A 
ATOM      9  C   UNL     1       0.669   1.339   0.300  0.00  0.00    +0.047 A 
ATOM     10  C   UNL     1       0.521  -0.056   0.221  0.00  0.00    +0.144 A 
ATOM     11  N   UNL     1      -0.705  -0.582   0.264  0.00  0.00    -0.194 NA
ENDROOT
BRANCH   2  12
ATOM     12  C   UNL     1       0.023  -4.150  -0.010  0.00  0.00    +0.042 C 
ATOM     13  C   UNL     1      -0.779  -4.691  -1.005  0.00  0.00    +0.114 C 
BRANCH  13  14
ATOM     14  C   UNL     1      -1.075  -6.128  -1.008  0.00  0.00    +0.254 C 
ATOM     15  O   UNL     1      -0.618  -6.845  -0.138  0.00  0.00    -0.269 OA
ATOM     16  N   UNL     1      -1.854  -6.653  -1.974  0.00  0.00    -0.314 N 
ATOM     17  C   UNL     1      -2.150  -8.088  -1.978  0.00  0.00    +0.128 C 
ATOM     18  H   UNL     1      -2.219  -6.081  -2.668  0.00  0.00    +0.149 HD
ENDBRANCH  13  14
BRANCH  13  19
ATOM     19  C   UNL     1      -1.317  -3.847  -2.029  0.00  0.00    +0.104 C 
ATOM     20  N   UNL     1      -1.744  -3.177  -2.841  0.00  0.00    -0.191 NA
ENDBRANCH  13  19
ENDBRANCH   2  12
BRANCH   1  21
ATOM     21  O   UNL     1      -2.161  -2.386   0.240  0.00  0.00    -0.437 OA
BRANCH  21  25
ATOM     22  C   UNL     1      -5.266   0.243   0.919  0.00  0.00    -0.042 A 
ATOM     23  C   UNL     1      -4.534   0.328  -0.250  0.00  0.00    +0.008 A 
ATOM     24  C   UNL     1      -3.494  -0.552  -0.480  0.00  0.00    +0.046 A 
ATOM     25  C   UNL     1      -3.184  -1.520   0.464  0.00  0.00    +0.130 A 
ATOM     26  C   UNL     1      -3.924  -1.606   1.635  0.00  0.00    +0.046 A 
ATOM     27  C   UNL     1      -4.959  -0.720   1.862  0.00  0.00    +0.008 A 
BRANCH  22  29
ATOM     28  C   UNL     1      -7.448   1.053   0.063  0.00  0.00    +0.015 C 
ATOM     29  C   UNL     1      -6.401   1.204   1.168  0.00  0.00    -0.013 C 
ATOM     30  C   UNL     1      -7.040   0.898   2.523  0.00  0.00    +0.015 C 
ATOM     31  C   UNL     1      -5.864   2.637   1.169  0.00  0.00    +0.015 C 
ENDBRANCH  22  29
ENDBRANCH  21  25
ENDBRANCH   1  21
TORSDOF 6
