REMARK  Name = ZINC13979912
REMARK  8 active torsions:
REMARK  status: ('A' for Active; 'I' for Inactive)
REMARK    1  A    between atoms: C_1  and  C_2
REMARK    2  A    between atoms: N_13  and  N_14
REMARK    3  A    between atoms: C_15  and  C_17
REMARK    4  A    between atoms: C_17  and  O_18
REMARK    5  A    between atoms: O_18  and  C_19
REMARK    6  A    between atoms: C_24  and  C_25
REMARK    7  A    between atoms: C_25  and  C_26
REMARK    8  A    between atoms: C_25  and  C_27
REMARK                            x       y       z     vdW  Elec       q    Type
REMARK                         _______ _______ _______ _____ _____    ______ ____
ROOT
ATOM      1  N   UNL     1       0.035  -3.959  -4.463  0.00  0.00    -0.203 N 
ATOM      2  C   UNL     1       0.025  -3.740  -5.793  0.00  0.00    +0.270 C 
ATOM      3  O   UNL     1       0.007  -2.606  -6.221  0.00  0.00    -0.270 OA
ATOM      4  H   UNL     1       0.049  -4.867  -4.122  0.00  0.00    +0.177 HD
ENDROOT
BRANCH   1  17
ATOM      5  C   UNL     1      -0.018   1.503   0.010  0.00  0.00    +0.045 C 
ATOM      6  C   UNL     1       0.002  -0.004   0.002  0.00  0.00    -0.036 A 
ATOM      7  C   UNL     1       0.006  -0.687  -1.198  0.00  0.00    +0.016 A 
ATOM      8  C   UNL     1       0.025  -2.077  -1.200  0.00  0.00    +0.028 A 
ATOM      9  C   UNL     1       0.040  -2.788   0.007  0.00  0.00    +0.044 A 
ATOM     10  C   UNL     1       0.036  -2.084   1.206  0.00  0.00    +0.039 A 
ATOM     11  C   UNL     1       0.023  -0.702   1.198  0.00  0.00    +0.023 A 
ATOM     12 BR   UNL     1       0.026   0.244   2.836  0.00  0.00    -0.050 Br
ATOM     13  N   UNL     1       0.057  -4.152  -0.262  0.00  0.00    -0.280 N 
ATOM     14  C   UNL     1       0.054  -4.392  -1.585  0.00  0.00    +0.269 C 
ATOM     15  O   UNL     1       0.067  -5.487  -2.114  0.00  0.00    -0.268 OA
ATOM     16  C   UNL     1       0.033  -3.090  -2.282  0.00  0.00    +0.153 C 
ATOM     17  N   UNL     1       0.024  -2.876  -3.575  0.00  0.00    -0.174 NA
ATOM     18  H   UNL     1       0.070  -4.843   0.418  0.00  0.00    +0.155 HD
ENDBRANCH   1  17
BRANCH   2  19
ATOM     19  C   UNL     1       0.036  -4.905  -6.749  0.00  0.00    +0.326 C 
BRANCH  19  20
ATOM     20  O   UNL     1       0.023  -4.419  -8.093  0.00  0.00    -0.482 OA
BRANCH  20  21
ATOM     21  C   UNL     1       0.031  -5.348  -9.085  0.00  0.00    +0.125 A 
ATOM     22  C   UNL     1       0.045  -6.699  -8.772  0.00  0.00    +0.046 A 
ATOM     23  C   UNL     1       0.053  -7.641  -9.782  0.00  0.00    +0.004 A 
ATOM     24  C   UNL     1       0.046  -7.238 -11.105  0.00  0.00    +0.001 A 
ATOM     25  C   UNL     1       0.032  -5.892 -11.420  0.00  0.00    +0.007 A 
ATOM     26  C   UNL     1       0.019  -4.946 -10.413  0.00  0.00    -0.003 A 
BRANCH  26  27
ATOM     27  C   UNL     1      -0.003  -3.479 -10.757  0.00  0.00    +0.016 C 
ATOM     28  C   UNL     1       1.238  -3.130 -11.581  0.00  0.00    +0.012 C 
ATOM     29  C   UNL     1      -1.261  -3.164 -11.569  0.00  0.00    +0.012 C 
ENDBRANCH  26  27
ENDBRANCH  20  21
ENDBRANCH  19  20
ENDBRANCH   2  19
TORSDOF 5
