REMARK  Name = ZINC39755081
REMARK  10 active torsions:
REMARK  status: ('A' for Active; 'I' for Inactive)
REMARK    1  A    between atoms: C_1  and  C_2
REMARK    2  A    between atoms: C_2  and  N_3
REMARK    3  A    between atoms: C_4  and  C_19
REMARK    4  A    between atoms: C_7  and  S_8
REMARK    5  A    between atoms: S_8  and  C_9
REMARK    6  A    between atoms: C_9  and  C_10
REMARK    7  A    between atoms: C_13  and  N_16
REMARK    8  A    between atoms: C_19  and  C_21
REMARK    9  A    between atoms: C_19  and  O_22
REMARK   10  A    between atoms: O_22  and  C_23
REMARK                            x       y       z     vdW  Elec       q    Type
REMARK                         _______ _______ _______ _____ _____    ______ ____
ROOT
ATOM      1  N   UNL     1      -1.632  -0.165  -0.119  0.00  0.00    -0.303 N 
ATOM      2  C   UNL     1      -2.239  -0.608   1.024  0.00  0.00    +0.175 A 
ATOM      3  N   UNL     1      -3.351  -1.188   0.673  0.00  0.00    -0.130 NA
ATOM      4  N   UNL     1      -3.488  -1.143  -0.605  0.00  0.00    -0.122 NA
ATOM      5  C   UNL     1      -2.463  -0.522  -1.141  0.00  0.00    +0.192 A 
ENDROOT
BRANCH   1   7
ATOM      6  C   UNL     1      -0.607   2.055  -0.135  0.00  0.00    +0.027 C 
ATOM      7  C   UNL     1      -0.357   0.548  -0.224  0.00  0.00    +0.122 C 
ENDBRANCH   1   7
BRANCH   2   8
ATOM      8  C   UNL     1      -1.717  -0.453   2.429  0.00  0.00    +0.238 C 
ATOM      9  C   UNL     1      -1.172  -1.795   2.921  0.00  0.00    +0.060 C 
BRANCH   8  10
ATOM     10  O   UNL     1      -2.778  -0.027   3.287  0.00  0.00    -0.481 OA
BRANCH  10  11
ATOM     11  C   UNL     1      -2.428   0.646   4.415  0.00  0.00    +0.122 A 
ATOM     12  C   UNL     1      -1.089   0.797   4.746  0.00  0.00    +0.045 A 
ATOM     13  C   UNL     1      -0.735   1.482   5.892  0.00  0.00    +0.004 A 
ATOM     14  C   UNL     1      -1.714   2.015   6.710  0.00  0.00    +0.000 A 
ATOM     15  C   UNL     1      -3.049   1.866   6.382  0.00  0.00    +0.004 A 
ATOM     16  C   UNL     1      -3.408   1.187   5.234  0.00  0.00    +0.045 A 
ENDBRANCH  10  11
ENDBRANCH   8  10
ENDBRANCH   2   8
BRANCH   5  17
ATOM     17  S   UNL     1      -2.209  -0.210  -2.857  0.00  0.00    -0.081 S 
BRANCH  17  18
ATOM     18  C   UNL     1      -3.667  -0.934  -3.656  0.00  0.00    +0.112 C 
BRANCH  18  19
ATOM     19  C   UNL     1      -3.574  -0.734  -5.147  0.00  0.00    -0.037 A 
ATOM     20  C   UNL     1      -4.103   0.405  -5.725  0.00  0.00    +0.007 A 
ATOM     21  C   UNL     1      -4.018   0.588  -7.093  0.00  0.00    +0.033 A 
ATOM     22  C   UNL     1      -3.404  -0.367  -7.881  0.00  0.00    +0.126 A 
ATOM     23  C   UNL     1      -2.875  -1.505  -7.303  0.00  0.00    +0.033 A 
ATOM     24  C   UNL     1      -2.956  -1.687  -5.935  0.00  0.00    +0.007 A 
BRANCH  22  25
ATOM     25  N   UNL     1      -3.314  -0.171  -9.346  0.00  0.00    +0.056 N 
ATOM     26  O   UNL     1      -3.777   0.824  -9.852  0.00  0.00    -0.126 OA
ATOM     27  O   UNL     1      -2.777  -1.006 -10.036  0.00  0.00    -0.126 OA
ENDBRANCH  22  25
ENDBRANCH  18  19
ENDBRANCH  17  18
ENDBRANCH   5  17
TORSDOF 8
