REMARK  Name = ZINC36068460
REMARK  12 active torsions:
REMARK  status: ('A' for Active; 'I' for Inactive)
REMARK    1  A    between atoms: C_1  and  C_2
REMARK    2  A    between atoms: C_2  and  C_3
REMARK    3  A    between atoms: C_3  and  C_5
REMARK    4  A    between atoms: C_3  and  N_6
REMARK    5  A    between atoms: C_7  and  C_9
REMARK    6  A    between atoms: C_12  and  C_14
REMARK    7  A    between atoms: C_14  and  N_15
REMARK    8  A    between atoms: N_15  and  C_16
REMARK    9  A    between atoms: N_15  and  C_26
REMARK   10  A    between atoms: C_16  and  C_17
REMARK   11  A    between atoms: C_26  and  C_27
REMARK   12  A    between atoms: C_32  and  C_33
REMARK                            x       y       z     vdW  Elec       q    Type
REMARK                         _______ _______ _______ _____ _____    ______ ____
ROOT
ATOM      1  N   UNL     1      -2.600   3.361  -6.610  0.00  0.00    +0.391 N 
ATOM      2  H   UNL     1      -2.674   3.552  -5.622  0.00  0.00    -0.080 HD
ENDROOT
BRANCH   1   3
ATOM      3  C   UNL     1      -1.950   2.060  -6.811  0.00  0.00    +0.020 C 
BRANCH   3   7
ATOM      4  C   UNL     1       0.888   1.795  -4.575  0.00  0.00    +0.163 A 
ATOM      5  C   UNL     1       1.501   2.272  -5.692  0.00  0.00    +0.230 A 
ATOM      6  O   UNL     1       0.549   2.422  -6.627  0.00  0.00    -0.449 OA
ATOM      7  C   UNL     1      -0.623   2.046  -6.096  0.00  0.00    +0.179 A 
ATOM      8  N   UNL     1      -0.434   1.663  -4.869  0.00  0.00    -0.210 NA
BRANCH   4  10
ATOM      9  N   UNL     1       0.801   1.001  -2.264  0.00  0.00    -0.307 N 
ATOM     10  C   UNL     1       1.536   1.475  -3.290  0.00  0.00    +0.266 C 
ATOM     11  O   UNL     1       2.733   1.639  -3.155  0.00  0.00    -0.268 OA
ATOM     12  H   UNL     1      -0.154   0.870  -2.372  0.00  0.00    +0.149 HD
BRANCH   9  13
ATOM     13  C   UNL     1       1.444   0.683  -0.987  0.00  0.00    +0.070 C 
ATOM     14  C   UNL     1       2.014  -0.736  -1.042  0.00  0.00    +0.028 C 
BRANCH  13  16
ATOM     15  C   UNL     1      -0.064   2.222   0.277  0.00  0.00    +0.005 C 
ATOM     16  C   UNL     1       0.414   0.775   0.140  0.00  0.00    +0.018 C 
ENDBRANCH  13  16
ENDBRANCH   9  13
ENDBRANCH   4  10
ENDBRANCH   3   7
ENDBRANCH   1   3
BRANCH   1  17
ATOM     17  C   UNL     1      -3.943   3.334  -7.204  0.00  0.00    -0.042 C 
BRANCH  17  18
ATOM     18  C   UNL     1      -4.806   2.354  -6.452  0.00  0.00    -0.060 A 
ATOM     19  C   UNL     1      -4.945   1.059  -6.915  0.00  0.00    +0.005 A 
ATOM     20  C   UNL     1      -5.735   0.157  -6.228  0.00  0.00    +0.050 A 
ATOM     21  C   UNL     1      -6.391   0.549  -5.073  0.00  0.00    +0.166 A 
ATOM     22  C   UNL     1      -6.252   1.853  -4.606  0.00  0.00    +0.166 A 
ATOM     23  C   UNL     1      -5.454   2.751  -5.296  0.00  0.00    +0.051 A 
ATOM     24  O   UNL     1      -6.988   1.989  -3.465  0.00  0.00    -0.453 OA
ATOM     25  C   UNL     1      -7.903   0.877  -3.463  0.00  0.00    +0.466 C 
ATOM     26  O   UNL     1      -7.215  -0.133  -4.224  0.00  0.00    -0.453 OA
ENDBRANCH  17  18
ENDBRANCH   1  17
BRANCH   1  27
ATOM     27  C   UNL     1      -1.801   4.413  -7.253  0.00  0.00    -0.041 C 
BRANCH  27  28
ATOM     28  C   UNL     1      -2.403   5.760  -6.946  0.00  0.00    -0.052 A 
ATOM     29  C   UNL     1      -3.263   6.355  -7.851  0.00  0.00    +0.002 A 
ATOM     30  C   UNL     1      -3.815   7.590  -7.569  0.00  0.00    +0.000 A 
ATOM     31  C   UNL     1      -3.508   8.231  -6.383  0.00  0.00    +0.001 A 
ATOM     32  C   UNL     1      -2.650   7.636  -5.478  0.00  0.00    +0.012 A 
ATOM     33  C   UNL     1      -2.100   6.398  -5.758  0.00  0.00    +0.056 A 
BRANCH  33  34
ATOM     34  C   UNL     1      -1.168   5.746  -4.769  0.00  0.00    +0.418 C 
ATOM     35  F   UNL     1      -0.918   6.629  -3.713  0.00  0.00    -0.166 F 
ATOM     36  F   UNL     1      -1.758   4.579  -4.272  0.00  0.00    -0.166 F 
ATOM     37  F   UNL     1       0.036   5.426  -5.405  0.00  0.00    -0.166 F 
ENDBRANCH  33  34
ENDBRANCH  27  28
ENDBRANCH   1  27
TORSDOF 10
