REMARK  Name = ZINC64503204
REMARK  7 active torsions:
REMARK  status: ('A' for Active; 'I' for Inactive)
REMARK    1  A    between atoms: C_1  and  C_2
REMARK    2  A    between atoms: C_7  and  C_8
REMARK    3  A    between atoms: C_11  and  C_14
REMARK    4  A    between atoms: C_17  and  C_20
REMARK    5  A    between atoms: C_23  and  C_26
REMARK    6  A    between atoms: C_26  and  C_27
REMARK    7  A    between atoms: C_26  and  C_28
REMARK                            x       y       z     vdW  Elec       q    Type
REMARK                         _______ _______ _______ _____ _____    ______ ____
ROOT
ATOM      1  C   UNL     1      -0.592   0.310   5.745  0.00  0.00    +0.215 C 
ATOM      2  C   UNL     1      -0.570   1.434   6.766  0.00  0.00    +0.037 C 
ATOM      3  C   UNL     1      -0.328   0.806   7.932  0.00  0.00    +0.091 C 
ATOM      4  N   UNL     1      -0.206  -0.533   7.734  0.00  0.00    -0.154 NA
ATOM      5  N   UNL     1      -0.340  -0.892   6.558  0.00  0.00    -0.174 NA
ENDROOT
BRANCH   1   9
ATOM      6  C   UNL     1       0.242   0.024   2.481  0.00  0.00    +0.168 C 
ATOM      7  N   UNL     1       0.137   1.307   2.602  0.00  0.00    -0.067 NA
ATOM      8  O   UNL     1       0.292   1.702   3.952  0.00  0.00    -0.367 OA
ATOM      9  C   UNL     1       0.515   0.501   4.707  0.00  0.00    +0.322 C 
ATOM     10  N   UNL     1       0.469  -0.577   3.706  0.00  0.00    -0.287 N 
ATOM     11  H   UNL     1       0.579  -1.526   3.873  0.00  0.00    +0.151 HD
BRANCH   6  18
ATOM     12  C   UNL     1      -0.502   1.454   0.079  0.00  0.00    +0.044 C 
ATOM     13  C   UNL     1      -0.230  -0.027   0.035  0.00  0.00    -0.040 A 
ATOM     14  C   UNL     1      -0.329  -0.714  -1.158  0.00  0.00    +0.004 A 
ATOM     15  C   UNL     1      -0.079  -2.073  -1.200  0.00  0.00    +0.000 A 
ATOM     16  C   UNL     1       0.272  -2.754  -0.048  0.00  0.00    +0.001 A 
ATOM     17  C   UNL     1       0.373  -2.079   1.151  0.00  0.00    +0.012 A 
ATOM     18  C   UNL     1       0.128  -0.707   1.199  0.00  0.00    +0.021 A 
ENDBRANCH   6  18
ENDBRANCH   1   9
BRANCH   3  19
ATOM     19  C   UNL     1      -0.212   1.481   9.249  0.00  0.00    +0.002 A 
ATOM     20  C   UNL     1      -0.359   2.863   9.341  0.00  0.00    +0.010 A 
ATOM     21  C   UNL     1      -0.250   3.486  10.568  0.00  0.00    +0.004 A 
ATOM     22  C   UNL     1       0.005   2.740  11.705  0.00  0.00    -0.045 A 
ATOM     23  C   UNL     1       0.153   1.367  11.619  0.00  0.00    +0.004 A 
ATOM     24  C   UNL     1       0.040   0.734  10.398  0.00  0.00    +0.010 A 
BRANCH  22  25
ATOM     25  C   UNL     1       0.124   3.425  13.041  0.00  0.00    +0.013 C 
ATOM     26  C   UNL     1      -0.943   2.878  13.992  0.00  0.00    +0.012 C 
ATOM     27  C   UNL     1       1.512   3.163  13.628  0.00  0.00    +0.012 C 
ENDBRANCH  22  25
ENDBRANCH   3  19
TORSDOF 4
