REMARK  Name = ZINC14676315
REMARK  7 active torsions:
REMARK  status: ('A' for Active; 'I' for Inactive)
REMARK    1  A    between atoms: C_3  and  N_18
REMARK    2  A    between atoms: C_5  and  S_7
REMARK    3  A    between atoms: S_7  and  N_10
REMARK    4  A    between atoms: C_19  and  C_21
REMARK    5  A    between atoms: C_21  and  S_22
REMARK    6  A    between atoms: S_22  and  C_23
REMARK    7  A    between atoms: N_27  and  C_28
REMARK                            x       y       z     vdW  Elec       q    Type
REMARK                         _______ _______ _______ _____ _____    ______ ____
ROOT
ATOM      1  C   UNL     1       4.242   5.947   3.945  0.00  0.00    +0.004 A 
ATOM      2  C   UNL     1       3.964   7.266   4.244  0.00  0.00    +0.023 A 
ATOM      3  C   UNL     1       2.710   7.791   3.960  0.00  0.00    +0.035 A 
ATOM      4  C   UNL     1       1.739   6.986   3.377  0.00  0.00    +0.052 A 
ATOM      5  C   UNL     1       2.024   5.668   3.081  0.00  0.00    +0.114 A 
ATOM      6  C   UNL     1       3.273   5.147   3.369  0.00  0.00    +0.029 A 
ENDROOT
BRANCH   3   7
ATOM      7  N   UNL     1       2.424   9.127   4.262  0.00  0.00    -0.285 N 
ATOM      8  C   UNL     1       1.179   9.482   4.638  0.00  0.00    +0.227 C 
ATOM      9  O   UNL     1       0.331   8.631   4.806  0.00  0.00    -0.275 OA
ATOM     10  H   UNL     1       3.122   9.798   4.201  0.00  0.00    +0.155 HD
BRANCH   8  11
ATOM     11  C   UNL     1       0.841  10.935   4.848  0.00  0.00    +0.173 C 
BRANCH  11  12
ATOM     12  S   UNL     1      -0.894  11.085   5.343  0.00  0.00    -0.075 S 
BRANCH  12  13
ATOM     13  C   UNL     1      -1.012  12.835   5.515  0.00  0.00    +0.210 A 
ATOM     14  N   UNL     1      -0.046  13.707   5.321  0.00  0.00    -0.101 NA
ATOM     15  N   UNL     1      -0.470  14.901   5.528  0.00  0.00    -0.022 NA
ATOM     16  N   UNL     1      -1.712  14.882   5.873  0.00  0.00    -0.043 NA
ATOM     17  N   UNL     1      -2.113  13.535   5.878  0.00  0.00    -0.217 N 
BRANCH  17  18
ATOM     18  C   UNL     1      -3.438  13.002   6.206  0.00  0.00    +0.112 C 
ATOM     19  C   UNL     1      -4.474  13.581   5.240  0.00  0.00    +0.027 C 
ATOM     20  C   UNL     1      -5.857  13.025   5.582  0.00  0.00    +0.002 C 
ATOM     21  C   UNL     1      -6.223  13.414   7.016  0.00  0.00    +0.000 C 
ATOM     22  C   UNL     1      -5.187  12.835   7.982  0.00  0.00    +0.002 C 
ATOM     23  C   UNL     1      -3.804  13.392   7.639  0.00  0.00    +0.027 C 
ENDBRANCH  17  18
ENDBRANCH  12  13
ENDBRANCH  11  12
ENDBRANCH   8  11
ENDBRANCH   3   7
BRANCH   5  24
ATOM     24  S   UNL     1       0.794   4.646   2.342  0.00  0.00    +0.100 S 
ATOM     25  O   UNL     1      -0.464   5.216   2.679  0.00  0.00    -0.146 OA
ATOM     26  O   UNL     1       1.133   3.304   2.664  0.00  0.00    -0.146 OA
BRANCH  24  27
ATOM     27  N   UNL     1       0.956   4.794   0.700  0.00  0.00    -0.118 NA
ATOM     28  C   UNL     1       0.167   4.141  -0.089  0.00  0.00    +0.117 C 
ATOM     29  C   UNL     1      -0.890   3.255   0.445  0.00  0.00    +0.073 C 
ATOM     30  C   UNL     1      -0.490   1.782   0.628  0.00  0.00    +0.008 C 
ATOM     31  C   UNL     1       0.366   1.313  -0.576  0.00  0.00    +0.002 C 
ATOM     32  C   UNL     1      -0.139   1.861  -1.883  0.00  0.00    +0.019 C 
ATOM     33  C   UNL     1       0.705   3.105  -2.184  0.00  0.00    +0.102 C 
ATOM     34  N   UNL     1       0.281   4.247  -1.484  0.00  0.00    -0.331 N 
ATOM     35  H   UNL     1       0.077   5.075  -1.946  0.00  0.00    +0.147 HD
ENDBRANCH  24  27
ENDBRANCH   5  24
TORSDOF 7
