REMARK  Name = ZINC25702930
REMARK  13 active torsions:
REMARK  status: ('A' for Active; 'I' for Inactive)
REMARK    1  A    between atoms: C_1  and  C_2
REMARK    2  A    between atoms: C_2  and  O_3
REMARK    3  A    between atoms: O_3  and  C_4
REMARK    4  A    between atoms: C_11  and  C_18
REMARK    5  A    between atoms: C_13  and  O_14
REMARK    6  A    between atoms: C_18  and  O_19
REMARK    7  A    between atoms: O_19  and  C_20
REMARK    8  A    between atoms: C_20  and  C_22
REMARK    9  A    between atoms: C_24  and  O_33
REMARK   10  A    between atoms: C_25  and  O_31
REMARK   11  A    between atoms: C_27  and  N_28
REMARK   12  A    between atoms: O_31  and  C_32
REMARK   13  A    between atoms: O_33  and  C_34
REMARK                            x       y       z     vdW  Elec       q    Type
REMARK                         _______ _______ _______ _____ _____    ______ ____
ROOT
ATOM      1  C   UNL     1      -1.153   3.084   1.464  0.00  0.00    +0.405 C 
ATOM      2  O   UNL     1      -2.144   3.499   2.031  0.00  0.00    -0.226 OA
ATOM      3  N   UNL     1      -1.208   1.932   0.767  0.00  0.00    -0.251 N 
ATOM      4  C   UNL     1      -2.374   1.165   0.778  0.00  0.00    +0.040 A 
ATOM      5  C   UNL     1      -2.286  -0.228   0.752  0.00  0.00    +0.024 A 
ATOM      6  C   UNL     1      -3.417  -0.991   0.768  0.00  0.00    +0.014 A 
ATOM      7  C   UNL     1      -4.673  -0.374   0.801  0.00  0.00    +0.024 A 
ATOM      8  C   UNL     1      -5.902  -1.169   0.813  0.00  0.00    +0.007 A 
ATOM      9  C   UNL     1      -7.091  -0.512   0.846  0.00  0.00    +0.095 A 
ATOM     10  C   UNL     1      -7.113   0.897   0.866  0.00  0.00    +0.285 A 
ATOM     11  O   UNL     1      -5.982   1.620   0.855  0.00  0.00    -0.425 OA
ATOM     12  C   UNL     1      -4.768   1.030   0.822  0.00  0.00    +0.141 A 
ATOM     13  C   UNL     1      -3.610   1.792   0.811  0.00  0.00    +0.070 A 
ATOM     14  H   UNL     1      -0.335   1.596   0.188  0.00  0.00    +0.158 HD
ENDROOT
BRANCH  10  15
ATOM     15  O   UNL     1      -8.186   1.474   0.896  0.00  0.00    -0.480 OA
ATOM     16  H   UNL     1      -8.219   2.573   0.912  0.00  0.00    +0.295 HD
ENDBRANCH  10  15
BRANCH   1  17
ATOM     17  O   UNL     1       0.002   3.772   1.536  0.00  0.00    -0.450 OA
BRANCH  17  19
ATOM     18  C   UNL     1       1.380   5.638   2.277  0.00  0.00    +0.048 C 
ATOM     19  C   UNL     1      -0.011   5.001   2.309  0.00  0.00    +0.230 C 
ENDBRANCH  17  19
ENDBRANCH   1  17
BRANCH   8  20
ATOM     20  C   UNL     1      -5.851  -2.675   0.790  0.00  0.00    +0.269 C 
BRANCH  20  21
ATOM     21  O   UNL     1      -7.202  -3.206   0.809  0.00  0.00    -0.456 OA
BRANCH  21  22
ATOM     22  C   UNL     1      -7.332  -4.547   0.792  0.00  0.00    +0.342 C 
ATOM     23  O   UNL     1      -6.344  -5.253   0.762  0.00  0.00    -0.245 OA
BRANCH  22  24
ATOM     24  C   UNL     1      -8.675  -5.158   0.809  0.00  0.00    +0.093 A 
ATOM     25  C   UNL     1      -9.812  -4.352   0.697  0.00  0.00    +0.066 A 
ATOM     26  C   UNL     1     -11.067  -4.929   0.709  0.00  0.00    +0.162 A 
ATOM     27  C   UNL     1     -11.197  -6.311   0.843  0.00  0.00    +0.164 A 
ATOM     28  C   UNL     1     -10.068  -7.110   0.959  0.00  0.00    +0.083 A 
ATOM     29  C   UNL     1      -8.813  -6.542   0.942  0.00  0.00    +0.144 A 
BRANCH  29  30
ATOM     30  N   UNL     1      -7.611  -7.397   1.066  0.00  0.00    +0.057 N 
ATOM     31  O   UNL     1      -7.471  -8.359   0.332  0.00  0.00    -0.126 OA
ATOM     32  O   UNL     1      -6.763  -7.139   1.901  0.00  0.00    -0.126 OA
ENDBRANCH  29  30
BRANCH  27  33
ATOM     33  O   UNL     1     -12.432  -6.877   0.859  0.00  0.00    -0.491 OA
ATOM     34  C   UNL     1     -12.493  -8.297   0.999  0.00  0.00    +0.277 C 
ENDBRANCH  27  33
BRANCH  26  35
ATOM     35  O   UNL     1     -12.175  -4.149   0.594  0.00  0.00    -0.491 OA
ATOM     36  C   UNL     1     -11.967  -2.742   0.460  0.00  0.00    +0.277 C 
ENDBRANCH  26  35
ENDBRANCH  22  24
ENDBRANCH  21  22
ENDBRANCH  20  21
ENDBRANCH   8  20
TORSDOF 10
