REMARK  Name = ZINC12007096
REMARK  9 active torsions:
REMARK  status: ('A' for Active; 'I' for Inactive)
REMARK    1  A    between atoms: C_1  and  C_2
REMARK    2  A    between atoms: C_2  and  C_3
REMARK    3  A    between atoms: C_3  and  C_4
REMARK    4  A    between atoms: C_13  and  N_22
REMARK    5  A    between atoms: C_15  and  C_17
REMARK    6  A    between atoms: C_23  and  C_25
REMARK    7  A    between atoms: C_25  and  C_26
REMARK    8  A    between atoms: C_25  and  C_27
REMARK    9  A    between atoms: C_25  and  C_28
REMARK                            x       y       z     vdW  Elec       q    Type
REMARK                         _______ _______ _______ _____ _____    ______ ____
ROOT
ATOM      1  C   UNL     1      -3.657   5.159   0.064  0.00  0.00    +0.050 A 
ATOM      2  C   UNL     1      -3.156   6.428   0.065  0.00  0.00    +0.093 A 
ATOM      3  C   UNL     1      -1.760   6.607   0.052  0.00  0.00    +0.253 A 
ATOM      4  O   UNL     1      -1.276   7.727   0.054  0.00  0.00    -0.268 OA
ATOM      5  N   UNL     1      -0.967   5.514   0.044  0.00  0.00    -0.291 N 
ATOM      6  H   UNL     1      -0.002   5.613   0.039  0.00  0.00    +0.172 HD
ATOM      7  C   UNL     1      -1.525   4.274   0.038  0.00  0.00    +0.234 A 
ATOM      8  N   UNL     1      -2.831   4.115   0.050  0.00  0.00    -0.217 NA
ATOM      9  N   UNL     1      -0.706   3.162   0.025  0.00  0.00    -0.184 N 
ATOM     10  C   UNL     1      -1.120   1.860   0.017  0.00  0.00    +0.132 A 
ATOM     11  C   UNL     1      -0.013   1.076   0.008  0.00  0.00    +0.077 A 
ATOM     12  C   UNL     1       1.116   1.923   0.002  0.00  0.00    +0.130 A 
ATOM     13  N   UNL     1       0.695   3.171   0.012  0.00  0.00    -0.159 NA
ENDROOT
BRANCH  12  14
ATOM     14  C   UNL     1       2.528   1.485  -0.013  0.00  0.00    +0.155 A 
ATOM     15  C   UNL     1       3.616   2.300  -0.025  0.00  0.00    +0.051 A 
ATOM     16  C   UNL     1       4.750   1.463  -0.033  0.00  0.00    +0.042 A 
ATOM     17  C   UNL     1       4.303   0.192  -0.036  0.00  0.00    +0.196 A 
ATOM     18  O   UNL     1       2.960   0.209  -0.024  0.00  0.00    -0.461 OA
ENDBRANCH  12  14
BRANCH  10  19
ATOM     19  N   UNL     1      -2.441   1.417   0.020  0.00  0.00    -0.270 N 
ATOM     20  C   UNL     1      -2.709   0.097   0.014  0.00  0.00    +0.224 C 
ATOM     21  O   UNL     1      -1.800  -0.707   0.006  0.00  0.00    -0.275 OA
ATOM     22  H   UNL     1      -3.167   2.060   0.026  0.00  0.00    +0.156 HD
BRANCH  20  23
ATOM     23  C   UNL     1      -4.138  -0.382   0.017  0.00  0.00    +0.039 C 
ATOM     24  C   UNL     1      -4.163  -1.912   0.009  0.00  0.00    +0.020 C 
ATOM     25  C   UNL     1      -4.846   0.133   1.272  0.00  0.00    +0.020 C 
ATOM     26  C   UNL     1      -4.855   0.146  -1.227  0.00  0.00    +0.020 C 
ENDBRANCH  20  23
ENDBRANCH  10  19
BRANCH   1  27
ATOM     27  C   UNL     1      -5.148   4.939   0.077  0.00  0.00    +0.055 C 
BRANCH  27  29
ATOM     28  C   UNL     1      -7.162   4.523  -1.342  0.00  0.00    +0.004 C 
ATOM     29  C   UNL     1      -5.648   4.747  -1.356  0.00  0.00    +0.003 C 
ENDBRANCH  27  29
ENDBRANCH   1  27
TORSDOF 5
