REMARK  Name = ZINC66791067
REMARK  7 active torsions:
REMARK  status: ('A' for Active; 'I' for Inactive)
REMARK    1  A    between atoms: C_1  and  C_2
REMARK    2  A    between atoms: C_2  and  C_3
REMARK    3  A    between atoms: C_2  and  C_4
REMARK    4  A    between atoms: C_4  and  C_5
REMARK    5  A    between atoms: C_5  and  C_6
REMARK    6  A    between atoms: N_8  and  N_9
REMARK    7  A    between atoms: C_10  and  C_12
REMARK                            x       y       z     vdW  Elec       q    Type
REMARK                         _______ _______ _______ _____ _____    ______ ____
ROOT
ATOM      1  N   UNL     1      -4.375  -4.388  -0.207  0.00  0.00    -0.230 N 
ATOM      2  C   UNL     1      -4.605  -5.711  -0.314  0.00  0.00    +0.260 C 
ATOM      3  O   UNL     1      -3.673  -6.485  -0.419  0.00  0.00    -0.269 OA
ATOM      4  H   UNL     1      -5.119  -3.771  -0.124  0.00  0.00    +0.173 HD
ENDROOT
BRANCH   2   5
ATOM      5  C   UNL     1      -5.989  -6.222  -0.303  0.00  0.00    +0.040 A 
ATOM      6  C   UNL     1      -7.061  -5.332  -0.189  0.00  0.00    +0.014 A 
ATOM      7  C   UNL     1      -8.355  -5.806  -0.177  0.00  0.00    +0.017 A 
ATOM      8  C   UNL     1      -8.592  -7.171  -0.281  0.00  0.00    +0.029 A 
ATOM      9  C   UNL     1      -7.526  -8.066  -0.398  0.00  0.00    +0.048 A 
ATOM     10  C   UNL     1      -6.228  -7.596  -0.414  0.00  0.00    +0.037 A 
ATOM     11  N   UNL     1      -7.789  -9.441  -0.506  0.00  0.00    -0.285 N 
ATOM     12  C   UNL     1      -8.669  -9.892  -1.408  0.00  0.00    +0.218 C 
ATOM     13  O   UNL     1      -9.029 -11.049  -1.360  0.00  0.00    -0.275 OA
ATOM     14  C   UNL     1      -9.218  -8.994  -2.476  0.00  0.00    +0.107 C 
ATOM     15  C   UNL     1     -10.510  -8.311  -1.994  0.00  0.00    +0.083 C 
ATOM     16  S   UNL     1     -10.241  -7.797  -0.265  0.00  0.00    -0.123 S 
ATOM     17  H   UNL     1      -7.330 -10.067   0.076  0.00  0.00    +0.155 HD
ENDBRANCH   2   5
BRANCH   1  20
ATOM     18  C   UNL     1      -2.829  -2.579  -0.111  0.00  0.00    +0.229 C 
ATOM     19  O   UNL     1      -3.760  -1.808  -0.006  0.00  0.00    -0.274 OA
ATOM     20  N   UNL     1      -3.060  -3.903  -0.217  0.00  0.00    -0.234 N 
ATOM     21  H   UNL     1      -2.316  -4.520  -0.301  0.00  0.00    +0.173 HD
BRANCH  18  22
ATOM     22  C   UNL     1      -1.416  -2.058  -0.121  0.00  0.00    +0.097 C 
BRANCH  22  23
ATOM     23  C   UNL     1      -1.433  -0.534   0.013  0.00  0.00    +0.012 C 
BRANCH  23  25
ATOM     24  C   UNL     1      -0.019   1.526   0.010  0.00  0.00    +0.007 C 
ATOM     25  C   UNL     1       0.002  -0.004   0.002  0.00  0.00    -0.017 C 
ATOM     26  C   UNL     1       0.742  -0.511   1.242  0.00  0.00    +0.007 C 
ENDBRANCH  23  25
ENDBRANCH  22  23
ENDBRANCH  18  22
ENDBRANCH   1  20
TORSDOF 5
