REMARK  Name = ZINC37034016
REMARK  7 active torsions:
REMARK  status: ('A' for Active; 'I' for Inactive)
REMARK    1  A    between atoms: C_1  and  C_2
REMARK    2  A    between atoms: C_6  and  C_19
REMARK    3  A    between atoms: C_8  and  N_11
REMARK    4  A    between atoms: N_11  and  C_12
REMARK    5  A    between atoms: C_12  and  C_13
REMARK    6  A    between atoms: C_19  and  C_20
REMARK    7  A    between atoms: C_19  and  C_21
REMARK                            x       y       z     vdW  Elec       q    Type
REMARK                         _______ _______ _______ _____ _____    ______ ____
ROOT
ATOM      1  C   UNL     1      -0.101   1.346  -0.020  0.00  0.00    +0.007 C 
ATOM      2  C   UNL     1       0.063  -0.174  -0.070  0.00  0.00    -0.016 C 
ATOM      3  C   UNL     1       0.863  -0.560  -1.315  0.00  0.00    +0.003 C 
ATOM      4  C   UNL     1       2.242   0.100  -1.260  0.00  0.00    +0.002 C 
ATOM      5  C   UNL     1       2.985  -0.374  -0.009  0.00  0.00    -0.022 C 
ATOM      6  C   UNL     1       2.184   0.012   1.236  0.00  0.00    -0.068 C 
ATOM      7  C   UNL     1       0.805  -0.648   1.181  0.00  0.00    -0.012 C 
ENDROOT
BRANCH   6   8
ATOM      8  N   UNL     1       2.897  -0.443   2.438  0.00  0.00    +0.384 N 
ATOM      9  H   UNL     1       2.923  -1.452   2.451  0.00  0.00    -0.085 HD
ATOM     10  H   UNL     1       3.840  -0.083   2.426  0.00  0.00    -0.085 HD
BRANCH   8  11
ATOM     11  C   UNL     1       2.201   0.045   3.635  0.00  0.00    -0.039 C 
BRANCH  11  12
ATOM     12  C   UNL     1       2.932  -0.421   4.867  0.00  0.00    -0.026 A 
ATOM     13  C   UNL     1       3.929   0.192   5.552  0.00  0.00    +0.024 A 
ATOM     14  C   UNL     1       4.456  -0.431   6.668  0.00  0.00    +0.025 A 
ATOM     15  C   UNL     1       3.962  -1.636   7.044  0.00  0.00    +0.060 A 
ATOM     16  S   UNL     1       2.706  -1.922   5.808  0.00  0.00    -0.102 S 
ATOM     17 BR   UNL     1       5.848   0.386   7.655  0.00  0.00    -0.050 Br
ENDBRANCH  11  12
ENDBRANCH   8  11
ENDBRANCH   6   8
BRANCH   5  18
ATOM     18  C   UNL     1       4.364   0.286   0.046  0.00  0.00    -0.016 C 
ATOM     19  C   UNL     1       5.205  -0.189  -1.141  0.00  0.00    +0.007 C 
ATOM     20  C   UNL     1       4.205   1.806  -0.017  0.00  0.00    +0.007 C 
ENDBRANCH   5  18
TORSDOF 4
