REMARK  Name = ZINC33119409
REMARK  6 active torsions:
REMARK  status: ('A' for Active; 'I' for Inactive)
REMARK    1  A    between atoms: C_1  and  C_2
REMARK    2  A    between atoms: C_2  and  C_4
REMARK    3  A    between atoms: C_2  and  N_15
REMARK    4  A    between atoms: C_16  and  C_18
REMARK    5  A    between atoms: C_23  and  C_24
REMARK    6  A    between atoms: C_27  and  C_29
REMARK                            x       y       z     vdW  Elec       q    Type
REMARK                         _______ _______ _______ _____ _____    ______ ____
ROOT
ATOM      1  N   UNL     1      -2.342   5.325   0.667  0.00  0.00    -0.305 N 
ATOM      2  C   UNL     1      -2.421   3.998   0.450  0.00  0.00    +0.245 C 
ATOM      3  O   UNL     1      -3.504   3.446   0.438  0.00  0.00    -0.270 OA
ATOM      4  H   UNL     1      -1.362   5.824   0.677  0.00  0.00    +0.150 HD
ENDROOT
BRANCH   2   5
ATOM      5  C   UNL     1      -1.191   3.212   0.227  0.00  0.00    +0.049 A 
ATOM      6  C   UNL     1      -0.144   3.271   1.147  0.00  0.00    +0.014 A 
ATOM      7  C   UNL     1       1.003   2.535   0.934  0.00  0.00    +0.001 A 
ATOM      8  C   UNL     1       1.126   1.735  -0.191  0.00  0.00    +0.001 A 
ATOM      9  C   UNL     1       0.103   1.663  -1.113  0.00  0.00    +0.014 A 
ATOM     10  C   UNL     1      -1.063   2.404  -0.920  0.00  0.00    +0.049 A 
BRANCH  10  11
ATOM     11  C   UNL     1      -2.159   2.336  -1.906  0.00  0.00    +0.229 A 
ATOM     12  N   UNL     1      -3.247   3.073  -1.892  0.00  0.00    -0.217 NA
ATOM     13  C   UNL     1      -4.009   2.737  -2.937  0.00  0.00    +0.161 A 
ATOM     14  C   UNL     1      -3.363   1.752  -3.621  0.00  0.00    +0.156 A 
ATOM     15  O   UNL     1      -2.204   1.514  -2.970  0.00  0.00    -0.435 OA
BRANCH  14  16
ATOM     16  C   UNL     1      -3.838   1.077  -4.846  0.00  0.00    +0.019 A 
ATOM     17  C   UNL     1      -5.065   1.431  -5.411  0.00  0.00    +0.011 A 
ATOM     18  C   UNL     1      -5.499   0.800  -6.559  0.00  0.00    +0.001 A 
ATOM     19  C   UNL     1      -4.727  -0.188  -7.143  0.00  0.00    +0.000 A 
ATOM     20  C   UNL     1      -3.513  -0.547  -6.586  0.00  0.00    +0.001 A 
ATOM     21  C   UNL     1      -3.064   0.079  -5.442  0.00  0.00    +0.011 A 
ENDBRANCH  14  16
ENDBRANCH  10  11
ENDBRANCH   2   5
BRANCH   1  23
ATOM     22  C   UNL     1      -4.162   6.508  -0.461  0.00  0.00    +0.033 C 
ATOM     23  C   UNL     1      -3.563   6.105   0.888  0.00  0.00    +0.100 C 
BRANCH  23  24
ATOM     24  C   UNL     1      -3.232   7.343   1.681  0.00  0.00    -0.025 A 
ATOM     25  C   UNL     1      -2.070   8.043   1.413  0.00  0.00    +0.009 A 
ATOM     26  C   UNL     1      -1.759   9.180   2.136  0.00  0.00    +0.048 A 
ATOM     27  C   UNL     1      -2.614   9.619   3.132  0.00  0.00    +0.142 A 
ATOM     28  C   UNL     1      -3.785   8.913   3.403  0.00  0.00    +0.076 A 
ATOM     29  C   UNL     1      -4.094   7.778   2.671  0.00  0.00    +0.032 A 
ATOM     30  N   UNL     1      -4.641   9.368   4.415  0.00  0.00    -0.280 N 
ATOM     31  C   UNL     1      -4.490  10.625   4.885  0.00  0.00    +0.255 C 
ATOM     32  O   UNL     1      -5.200  11.030   5.781  0.00  0.00    -0.272 OA
ATOM     33  C   UNL     1      -3.436  11.524   4.289  0.00  0.00    +0.325 C 
ATOM     34  O   UNL     1      -2.326  10.737   3.851  0.00  0.00    -0.481 OA
ATOM     35  H   UNL     1      -5.421   8.703   4.816  0.00  0.00    +0.155 HD
ENDBRANCH  23  24
ENDBRANCH   1  23
TORSDOF 5
