REMARK  Name = ZINC27532746
REMARK  5 active torsions:
REMARK  status: ('A' for Active; 'I' for Inactive)
REMARK    1  A    between atoms: C_1  and  C_2
REMARK    2  A    between atoms: C_9  and  C_11
REMARK    3  A    between atoms: C_12  and  C_33
REMARK    4  A    between atoms: C_16  and  C_18
REMARK    5  A    between atoms: C_20  and  N_25
REMARK                            x       y       z     vdW  Elec       q    Type
REMARK                         _______ _______ _______ _____ _____    ______ ____
ROOT
ATOM      1  C   UNL     1      -1.351  -1.678  -1.253  0.00  0.00    +0.043 C 
ATOM      2  C   UNL     1      -1.131  -2.998  -1.135  0.00  0.00    +0.014 C 
ATOM      3  N   UNL     1      -0.833  -3.545   0.082  0.00  0.00    -0.321 N 
ATOM      4  C   UNL     1      -1.132  -2.878   1.239  0.00  0.00    +0.015 C 
ATOM      5  C   UNL     1      -1.360  -1.547   1.224  0.00  0.00    +0.024 C 
ATOM      6  C   UNL     1      -1.272  -0.766  -0.064  0.00  0.00    +0.092 C 
ATOM      7  C   UNL     1      -1.685  -0.853   2.402  0.00  0.00    +0.162 C 
ATOM      8  O   UNL     1      -1.877   0.346   2.354  0.00  0.00    -0.292 OA
ATOM      9  C   UNL     1      -1.799  -1.567   3.721  0.00  0.00    +0.080 C 
ATOM     10  C   UNL     1      -2.218  -3.018   3.468  0.00  0.00    +0.014 C 
ATOM     11  C   UNL     1      -1.198  -3.662   2.526  0.00  0.00    +0.051 C 
ATOM     12  C   UNL     1      -1.212  -3.881  -2.353  0.00  0.00    +0.061 C 
ATOM     13  H   UNL     1      -0.347  -4.531   0.138  0.00  0.00    +0.152 HD
ENDROOT
BRANCH   1  22
ATOM     14  C   UNL     1      -3.774   3.888  -5.322  0.00  0.00    +0.044 C 
ATOM     15  C   UNL     1      -3.276   2.472  -5.184  0.00  0.00    -0.046 A 
ATOM     16  C   UNL     1      -3.210   1.632  -6.287  0.00  0.00    +0.023 A 
ATOM     17  C   UNL     1      -2.748   0.340  -6.127  0.00  0.00    +0.113 A 
ATOM     18  N   UNL     1      -2.365  -0.099  -4.944  0.00  0.00    -0.240 NA
ATOM     19  C   UNL     1      -2.418   0.669  -3.867  0.00  0.00    +0.125 A 
ATOM     20  C   UNL     1      -2.872   1.981  -3.955  0.00  0.00    +0.047 A 
ATOM     21  N   UNL     1      -2.009   0.162  -2.636  0.00  0.00    -0.267 N 
ATOM     22  C   UNL     1      -1.665  -1.137  -2.523  0.00  0.00    +0.248 C 
ATOM     23  O   UNL     1      -1.625  -1.844  -3.513  0.00  0.00    -0.270 OA
ATOM     24  H   UNL     1      -1.966   0.821  -1.757  0.00  0.00    +0.157 HD
ENDBRANCH   1  22
BRANCH   6  25
ATOM     25  C   UNL     1       0.035  -0.018  -0.100  0.00  0.00    -0.015 A 
ATOM     26  C   UNL     1       1.230  -0.712  -0.075  0.00  0.00    +0.038 A 
ATOM     27  C   UNL     1       2.430  -0.026  -0.109  0.00  0.00    +0.127 A 
ATOM     28  C   UNL     1       2.435   1.355  -0.168  0.00  0.00    +0.034 A 
ATOM     29  C   UNL     1       1.241   2.050  -0.193  0.00  0.00    +0.022 A 
ATOM     30  C   UNL     1       0.040   1.364  -0.159  0.00  0.00    +0.045 A 
ATOM     31 CL   UNL     1      -1.460   2.237  -0.199  0.00  0.00    -0.083 Cl
BRANCH  27  32
ATOM     32  N   UNL     1       3.709  -0.770  -0.082  0.00  0.00    +0.056 N 
ATOM     33  O   UNL     1       3.704  -1.987  -0.029  0.00  0.00    -0.126 OA
ATOM     34  O   UNL     1       4.766  -0.166  -0.112  0.00  0.00    -0.126 OA
ENDBRANCH  27  32
ENDBRANCH   6  25
TORSDOF 3
