REMARK  Name = ZINC49559104
REMARK  4 active torsions:
REMARK  status: ('A' for Active; 'I' for Inactive)
REMARK    1  A    between atoms: C_1  and  C_2
REMARK    2  A    between atoms: C_5  and  C_8
REMARK    3  A    between atoms: C_8  and  C_10
REMARK    4  A    between atoms: C_8  and  N_11
REMARK                            x       y       z     vdW  Elec       q    Type
REMARK                         _______ _______ _______ _____ _____    ______ ____
ROOT
ATOM      1  N   UNL     1       1.353  -4.801   0.576  0.00  0.00    -0.305 N 
ATOM      2  C   UNL     1       1.486  -5.650   1.662  0.00  0.00    +0.073 A 
ATOM      3  C   UNL     1       0.585  -6.242   2.535  0.00  0.00    +0.028 A 
ATOM      4  C   UNL     1       1.044  -7.061   3.546  0.00  0.00    +0.005 A 
ATOM      5  C   UNL     1       2.402  -7.297   3.697  0.00  0.00    +0.040 A 
ATOM      6  C   UNL     1       3.312  -6.716   2.839  0.00  0.00    +0.151 A 
ATOM      7  C   UNL     1       2.862  -5.884   1.809  0.00  0.00    +0.126 A 
ATOM      8  N   UNL     1       3.494  -5.185   0.829  0.00  0.00    -0.212 NA
ATOM      9  C   UNL     1       2.609  -4.553   0.100  0.00  0.00    +0.195 A 
ATOM     10  N   UNL     1       2.902  -3.752  -0.985  0.00  0.00    -0.329 N 
ATOM     11  F   UNL     1       4.634  -6.950   2.993  0.00  0.00    -0.203 F 
ATOM     12  H   UNL     1       2.184  -3.381  -1.521  0.00  0.00    +0.145 HD
ATOM     13  H   UNL     1       3.825  -3.560  -1.210  0.00  0.00    +0.145 HD
ENDROOT
BRANCH   1  14
ATOM     14  C   UNL     1       0.098  -4.274   0.033  0.00  0.00    +0.117 C 
ATOM     15  C   UNL     1      -1.083  -4.927   0.753  0.00  0.00    +0.036 C 
BRANCH  14  20
ATOM     16  C   UNL     1      -0.090   1.448   0.823  0.00  0.00    +0.044 C 
ATOM     17  C   UNL     1      -0.041  -0.044   0.617  0.00  0.00    -0.050 A 
ATOM     18  C   UNL     1      -0.056  -0.566  -0.663  0.00  0.00    +0.004 A 
ATOM     19  C   UNL     1      -0.011  -1.935  -0.852  0.00  0.00    +0.006 A 
ATOM     20  C   UNL     1       0.050  -2.782   0.239  0.00  0.00    -0.025 A 
ATOM     21  C   UNL     1       0.066  -2.260   1.519  0.00  0.00    +0.006 A 
ATOM     22  C   UNL     1       0.025  -0.891   1.708  0.00  0.00    +0.004 A 
ENDBRANCH  14  20
ENDBRANCH   1  14
TORSDOF 2
