REMARK  Name = ZINC36642908
REMARK  13 active torsions:
REMARK  status: ('A' for Active; 'I' for Inactive)
REMARK    1  A    between atoms: C_1  and  C_2
REMARK    2  A    between atoms: C_2  and  N_3
REMARK    3  A    between atoms: N_3  and  C_4
REMARK    4  A    between atoms: N_3  and  C_6
REMARK    5  A    between atoms: C_4  and  C_5
REMARK    6  A    between atoms: C_6  and  C_7
REMARK    7  A    between atoms: C_7  and  N_8
REMARK    8  A    between atoms: C_12  and  O_19
REMARK    9  A    between atoms: C_15  and  C_18
REMARK   10  A    between atoms: O_19  and  C_20
REMARK   11  A    between atoms: C_21  and  C_23
REMARK   12  A    between atoms: C_26  and  N_32
REMARK   13  A    between atoms: C_27  and  N_29
REMARK                            x       y       z     vdW  Elec       q    Type
REMARK                         _______ _______ _______ _____ _____    ______ ____
ROOT
ATOM      1  N   UNL     1       1.086  -4.221  -2.971  0.00  0.00    -0.248 N 
ATOM      2  C   UNL     1       0.276  -4.834  -3.913  0.00  0.00    +0.168 A 
ATOM      3  N   UNL     1      -0.184  -4.350  -5.042  0.00  0.00    -0.221 NA
ATOM      4  C   UNL     1      -0.972  -5.069  -5.872  0.00  0.00    +0.122 A 
ATOM      5  C   UNL     1      -1.533  -4.668  -7.112  0.00  0.00    +0.147 A 
ATOM      6  C   UNL     1      -2.321  -5.532  -7.836  0.00  0.00    +0.048 A 
ATOM      7  C   UNL     1      -2.592  -6.816  -7.385  0.00  0.00    +0.008 A 
ATOM      8  C   UNL     1      -2.060  -7.237  -6.180  0.00  0.00    -0.034 A 
ATOM      9  C   UNL     1      -1.272  -6.382  -5.448  0.00  0.00    +0.047 A 
ATOM     10  S   UNL     1      -0.401  -6.488  -3.903  0.00  0.00    -0.051 S 
ATOM     11  C   UNL     1      -2.343  -8.627  -5.672  0.00  0.00    +0.045 C 
ATOM     12  C   UNL     1       1.462  -4.894  -1.866  0.00  0.00    +0.252 C 
ATOM     13  O   UNL     1       1.137  -6.056  -1.721  0.00  0.00    -0.270 OA
ENDROOT
BRANCH  12  14
ATOM     14  C   UNL     1       2.269  -4.220  -0.831  0.00  0.00    +0.040 A 
ATOM     15  C   UNL     1       2.137  -2.843  -0.626  0.00  0.00    +0.015 A 
ATOM     16  C   UNL     1       2.891  -2.217   0.340  0.00  0.00    +0.026 A 
ATOM     17  C   UNL     1       3.784  -2.954   1.113  0.00  0.00    +0.060 A 
ATOM     18  C   UNL     1       3.918  -4.325   0.911  0.00  0.00    +0.148 A 
ATOM     19  C   UNL     1       3.163  -4.957  -0.049  0.00  0.00    +0.047 A 
BRANCH  17  20
ATOM     20  N   UNL     1       4.545  -2.318   2.087  0.00  0.00    -0.328 N 
ATOM     21  C   UNL     1       5.864  -1.758   1.761  0.00  0.00    +0.105 C 
ATOM     22  C   UNL     1       5.895  -0.288   2.193  0.00  0.00    +0.019 C 
ATOM     23  C   UNL     1       5.519  -0.187   3.673  0.00  0.00    +0.003 C 
ATOM     24  C   UNL     1       4.099  -0.720   3.877  0.00  0.00    +0.019 C 
ATOM     25  C   UNL     1       4.044  -2.189   3.463  0.00  0.00    +0.105 C 
ENDBRANCH  17  20
BRANCH  18  26
ATOM     26  N   UNL     1       4.870  -5.104   1.736  0.00  0.00    +0.058 N 
ATOM     27  O   UNL     1       4.986  -6.294   1.561  0.00  0.00    -0.126 OA
ATOM     28  O   UNL     1       5.530  -4.549   2.583  0.00  0.00    -0.126 OA
ENDBRANCH  18  26
ENDBRANCH  12  14
BRANCH   5  29
ATOM     29  O   UNL     1      -1.290  -3.419  -7.588  0.00  0.00    -0.493 OA
ATOM     30  C   UNL     1      -1.884  -3.076  -8.842  0.00  0.00    +0.277 C 
ENDBRANCH   5  29
BRANCH   1  31
ATOM     31  C   UNL     1       1.534  -2.842  -3.177  0.00  0.00    +0.097 C 
BRANCH  31  32
ATOM     32  C   UNL     1       0.392  -1.879  -2.847  0.00  0.00    -0.059 C 
BRANCH  32  33
ATOM     33  N   UNL     1       0.876  -0.495  -2.932  0.00  0.00    +0.380 N 
ATOM     34  H   UNL     1       1.675  -0.381  -2.326  0.00  0.00    -0.082 HD
BRANCH  33  36
ATOM     35  C   UNL     1       1.886   1.199  -4.384  0.00  0.00    -0.017 C 
ATOM     36  C   UNL     1       1.266  -0.198  -4.317  0.00  0.00    -0.082 C 
ENDBRANCH  33  36
BRANCH  33  37
ATOM     37  C   UNL     1      -0.191   0.424  -2.516  0.00  0.00    -0.082 C 
ATOM     38  C   UNL     1      -0.478   0.230  -1.025  0.00  0.00    -0.017 C 
ENDBRANCH  33  37
ENDBRANCH  32  33
ENDBRANCH  31  32
ENDBRANCH   1  31
TORSDOF 9
