REMARK  Name = ZINC37425158
REMARK  10 active torsions:
REMARK  status: ('A' for Active; 'I' for Inactive)
REMARK    1  A    between atoms: C_1  and  C_2
REMARK    2  A    between atoms: C_5  and  N_9
REMARK    3  A    between atoms: C_6  and  C_8
REMARK    4  A    between atoms: C_12  and  C_14
REMARK    5  A    between atoms: C_14  and  C_15
REMARK    6  A    between atoms: C_14  and  C_16
REMARK    7  A    between atoms: C_14  and  C_17
REMARK    8  A    between atoms: C_18  and  C_29
REMARK    9  A    between atoms: N_24  and  C_25
REMARK   10  A    between atoms: C_25  and  C_26
REMARK                            x       y       z     vdW  Elec       q    Type
REMARK                         _______ _______ _______ _____ _____    ______ ____
ROOT
ATOM      1  N   UNL     1       0.633  -3.934   2.009  0.00  0.00    -0.217 N 
ATOM      2  C   UNL     1       1.637  -4.113   1.118  0.00  0.00    +0.136 A 
ATOM      3  C   UNL     1       1.677  -5.425   0.788  0.00  0.00    +0.034 A 
ATOM      4  C   UNL     1       0.664  -6.076   1.493  0.00  0.00    +0.075 A 
ATOM      5  N   UNL     1       0.041  -5.187   2.230  0.00  0.00    -0.169 NA
ATOM      6  C   UNL     1       2.662  -6.041  -0.173  0.00  0.00    +0.115 C 
ATOM      7  S   UNL     1       2.199  -5.552  -1.874  0.00  0.00    -0.138 S 
ATOM      8  C   UNL     1       1.734  -3.803  -1.649  0.00  0.00    +0.166 C 
ATOM      9  C   UNL     1       2.696  -3.112  -0.732  0.00  0.00    +0.231 C 
ATOM     10  O   UNL     1       3.647  -2.516  -1.191  0.00  0.00    -0.274 OA
ATOM     11  N   UNL     1       2.509  -3.148   0.592  0.00  0.00    -0.246 N 
ENDROOT
BRANCH   1  16
ATOM     12  C   UNL     1      -0.885   0.973   4.422  0.00  0.00    +0.044 C 
ATOM     13  C   UNL     1      -0.482  -0.330   3.781  0.00  0.00    -0.050 A 
ATOM     14  C   UNL     1      -0.366  -0.416   2.406  0.00  0.00    +0.005 A 
ATOM     15  C   UNL     1       0.003  -1.608   1.816  0.00  0.00    +0.028 A 
ATOM     16  C   UNL     1       0.259  -2.722   2.605  0.00  0.00    +0.070 A 
ATOM     17  C   UNL     1       0.143  -2.632   3.985  0.00  0.00    -0.025 A 
ATOM     18  C   UNL     1      -0.222  -1.435   4.570  0.00  0.00    +0.008 A 
ATOM     19  C   UNL     1       0.420  -3.839   4.845  0.00  0.00    +0.046 C 
ENDBRANCH   1  16
BRANCH   6  20
ATOM     20  C   UNL     1       2.622  -7.542  -0.045  0.00  0.00    +0.005 A 
ATOM     21  C   UNL     1       1.850  -8.290  -0.915  0.00  0.00    +0.008 A 
ATOM     22  C   UNL     1       1.813  -9.666  -0.798  0.00  0.00    +0.000 A 
ATOM     23  C   UNL     1       2.549 -10.297   0.189  0.00  0.00    +0.003 A 
ATOM     24  C   UNL     1       3.322  -9.552   1.058  0.00  0.00    +0.038 A 
ATOM     25  C   UNL     1       3.363  -8.173   0.939  0.00  0.00    +0.128 A 
ATOM     26  F   UNL     1       4.122  -7.443   1.786  0.00  0.00    -0.205 F 
ENDBRANCH   6  20
BRANCH   4  27
ATOM     27  C   UNL     1       0.345  -7.547   1.425  0.00  0.00    +0.007 C 
ATOM     28  C   UNL     1       1.526  -8.351   1.973  0.00  0.00    +0.017 C 
ATOM     29  C   UNL     1      -0.902  -7.838   2.262  0.00  0.00    +0.017 C 
ATOM     30  C   UNL     1       0.088  -7.946  -0.029  0.00  0.00    +0.017 C 
ENDBRANCH   4  27
BRANCH  11  31
ATOM     31  C   UNL     1       3.200  -2.203   1.472  0.00  0.00    +0.210 C 
BRANCH  31  32
ATOM     32  C   UNL     1       4.571  -2.733   1.804  0.00  0.00    +0.228 C 
ATOM     33  O   UNL     1       4.935  -3.797   1.349  0.00  0.00    -0.274 OA
ATOM     34  N   UNL     1       5.391  -2.026   2.605  0.00  0.00    -0.328 N 
ATOM     35  H   UNL     1       5.100  -1.175   2.969  0.00  0.00    +0.145 HD
ATOM     36  H   UNL     1       6.274  -2.368   2.818  0.00  0.00    +0.145 HD
ENDBRANCH  31  32
ENDBRANCH  11  31
TORSDOF 5
