REMARK  Name = ZINC11119063
REMARK  8 active torsions:
REMARK  status: ('A' for Active; 'I' for Inactive)
REMARK    1  A    between atoms: C_1  and  C_2
REMARK    2  A    between atoms: C_2  and  C_3
REMARK    3  A    between atoms: C_3  and  N_4
REMARK    4  A    between atoms: C_14  and  S_15
REMARK    5  A    between atoms: S_15  and  C_16
REMARK    6  A    between atoms: C_16  and  C_17
REMARK    7  A    between atoms: N_22  and  C_23
REMARK    8  A    between atoms: C_29  and  C_31
REMARK                            x       y       z     vdW  Elec       q    Type
REMARK                         _______ _______ _______ _____ _____    ______ ____
ROOT
ATOM      1  S   UNL     1      -1.535  -0.865   0.013  0.00  0.00    -0.078 S 
ENDROOT
BRANCH   1  12
ATOM      2  N   UNL     1       1.157  -0.733  -0.013  0.00  0.00    -0.287 N 
ATOM      3  C   UNL     1       2.360  -0.115  -0.021  0.00  0.00    +0.262 A 
ATOM      4  O   UNL     1       3.397  -0.753  -0.036  0.00  0.00    -0.267 OA
ATOM      5  C   UNL     1       2.370   1.354  -0.014  0.00  0.00    +0.065 A 
ATOM      6  C   UNL     1       3.560   2.081  -0.022  0.00  0.00    +0.017 A 
ATOM      7  C   UNL     1       3.518   3.447  -0.013  0.00  0.00    +0.021 A 
ATOM      8  C   UNL     1       2.302   4.121   0.001  0.00  0.00    +0.043 A 
ATOM      9  C   UNL     1       1.111   3.427   0.009  0.00  0.00    +0.048 A 
ATOM     10  C   UNL     1       1.129   2.029   0.002  0.00  0.00    +0.080 A 
ATOM     11  N   UNL     1      -0.016   1.306   0.009  0.00  0.00    -0.223 NA
ATOM     12  C   UNL     1       0.002  -0.004   0.002  0.00  0.00    +0.173 A 
ATOM     13 CL   UNL     1       2.283   5.856   0.010  0.00  0.00    -0.083 Cl
BRANCH   2  14
ATOM     14  C   UNL     1       1.092  -2.197  -0.020  0.00  0.00    +0.127 C 
BRANCH  14  16
ATOM     15  C   UNL     1       0.987  -4.227  -1.473  0.00  0.00    +0.005 C 
ATOM     16  C   UNL     1       1.055  -2.699  -1.465  0.00  0.00    +0.018 C 
ENDBRANCH  14  16
ENDBRANCH   2  14
ENDBRANCH   1  12
BRANCH   1  17
ATOM     17  C   UNL     1      -2.680   0.536   0.032  0.00  0.00    +0.173 C 
BRANCH  17  18
ATOM     18  C   UNL     1      -4.098   0.026   0.043  0.00  0.00    +0.231 C 
ATOM     19  O   UNL     1      -4.313  -1.167   0.039  0.00  0.00    -0.274 OA
ATOM     20  N   UNL     1      -5.127   0.896   0.058  0.00  0.00    -0.239 N 
ATOM     21  C   UNL     1      -6.396   0.440   0.068  0.00  0.00    +0.306 C 
ATOM     22  O   UNL     1      -6.611  -0.756   0.064  0.00  0.00    -0.252 OA
ATOM     23  N   UNL     1      -7.425   1.311   0.083  0.00  0.00    -0.296 N 
ATOM     24  H   UNL     1      -4.955   1.851   0.061  0.00  0.00    +0.159 HD
ATOM     25  H   UNL     1      -7.253   2.265   0.086  0.00  0.00    +0.151 HD
BRANCH  23  26
ATOM     26  C   UNL     1      -8.803   0.815   0.094  0.00  0.00    +0.077 C 
ATOM     27  C   UNL     1      -9.255   0.531  -1.340  0.00  0.00    +0.022 C 
ATOM     28  C   UNL     1      -9.183   1.820  -2.162  0.00  0.00    +0.002 C 
ATOM     29  C   UNL     1     -10.099   2.875  -1.537  0.00  0.00    +0.000 C 
ATOM     30  C   UNL     1      -9.648   3.158  -0.103  0.00  0.00    +0.005 C 
ATOM     31  C   UNL     1      -9.719   1.869   0.718  0.00  0.00    +0.006 C 
ATOM     32  C   UNL     1      -9.268   2.152   2.152  0.00  0.00    +0.009 C 
ENDBRANCH  23  26
ENDBRANCH  17  18
ENDBRANCH   1  17
TORSDOF 6
