REMARK  Name = ZINC09134415
REMARK  9 active torsions:
REMARK  status: ('A' for Active; 'I' for Inactive)
REMARK    1  A    between atoms: C_1  and  C_2
REMARK    2  A    between atoms: N_4  and  C_5
REMARK    3  A    between atoms: C_8  and  N_11
REMARK    4  A    between atoms: C_19  and  C_25
REMARK    5  A    between atoms: N_27  and  C_28
REMARK    6  A    between atoms: C_30  and  C_35
REMARK    7  A    between atoms: C_30  and  C_36
REMARK    8  A    between atoms: C_31  and  C_33
REMARK    9  A    between atoms: C_31  and  C_34
REMARK                            x       y       z     vdW  Elec       q    Type
REMARK                         _______ _______ _______ _____ _____    ______ ____
ROOT
ATOM      1  N   UNL     1       2.551   0.761  -1.322  0.00  0.00    -0.268 N 
ATOM      2  C   UNL     1       2.629   1.442   0.009  0.00  0.00    +0.153 C 
ATOM      3  C   UNL     1       1.295   2.117   0.089  0.00  0.00    +0.116 C 
ATOM      4  C   UNL     1       0.153   1.141   0.304  0.00  0.00    +0.008 C 
ATOM      5  C   UNL     1      -0.946   1.880   0.356  0.00  0.00    +0.004 C 
ATOM      6  C   UNL     1      -0.478   3.306   0.113  0.00  0.00    +0.155 C 
ATOM      7  O   UNL     1       0.878   3.290   0.747  0.00  0.00    -0.359 OA
ATOM      8  C   UNL     1      -0.121   3.284  -1.424  0.00  0.00    +0.122 C 
ATOM      9  C   UNL     1       1.241   2.637  -1.404  0.00  0.00    +0.127 C 
ATOM     10  C   UNL     1       1.645   1.415  -2.122  0.00  0.00    +0.227 C 
ATOM     11  O   UNL     1       1.252   1.054  -3.212  0.00  0.00    -0.275 OA
ENDROOT
BRANCH   1  15
ATOM     12  C   UNL     1       4.750  -2.603  -2.433  0.00  0.00    +0.033 A 
ATOM     13  C   UNL     1       3.860  -2.028  -3.330  0.00  0.00    +0.025 A 
ATOM     14  C   UNL     1       3.132  -0.914  -2.962  0.00  0.00    +0.025 A 
ATOM     15  C   UNL     1       3.290  -0.369  -1.695  0.00  0.00    +0.036 A 
ATOM     16  C   UNL     1       4.184  -0.941  -0.799  0.00  0.00    +0.025 A 
ATOM     17  C   UNL     1       4.908  -2.058  -1.165  0.00  0.00    +0.025 A 
BRANCH  12  21
ATOM     18  C   UNL     1       6.697  -5.821  -2.260  0.00  0.00    +0.109 C 
ATOM     19  C   UNL     1       5.806  -4.665  -1.885  0.00  0.00    +0.214 C 
ATOM     20  O   UNL     1       5.373  -4.574  -0.756  0.00  0.00    -0.276 OA
ATOM     21  N   UNL     1       5.489  -3.733  -2.806  0.00  0.00    -0.286 N 
ATOM     22  H   UNL     1       5.773  -3.845  -3.727  0.00  0.00    +0.155 HD
ENDBRANCH  12  21
ENDBRANCH   1  15
BRANCH   8  23
ATOM     23  C   UNL     1      -1.106   2.447  -2.198  0.00  0.00    +0.220 C 
ATOM     24  O   UNL     1      -1.027   1.237  -2.170  0.00  0.00    -0.275 OA
ATOM     25  N   UNL     1      -2.076   3.042  -2.920  0.00  0.00    -0.312 N 
ATOM     26  H   UNL     1      -2.139   4.010  -2.942  0.00  0.00    +0.149 HD
BRANCH  25  27
ATOM     27  C   UNL     1      -3.036   2.227  -3.674  0.00  0.00    +0.070 C 
ATOM     28  C   UNL     1      -2.446   1.891  -5.044  0.00  0.00    +0.009 C 
ATOM     29  C   UNL     1      -3.436   1.070  -5.867  0.00  0.00    -0.072 C 
ATOM     30  C   UNL     1      -5.333   2.195  -4.668  0.00  0.00    -0.072 C 
ATOM     31  C   UNL     1      -4.320   3.031  -3.888  0.00  0.00    +0.009 C 
ATOM     32  C   UNL     1      -5.911   1.104  -3.762  0.00  0.00    -0.010 C 
ATOM     33  C   UNL     1      -6.498   3.128  -5.065  0.00  0.00    -0.010 C 
ATOM     34  C   UNL     1      -3.450  -0.376  -5.357  0.00  0.00    -0.010 C 
ATOM     35  C   UNL     1      -2.914   1.036  -7.321  0.00  0.00    -0.010 C 
ATOM     36  N   UNL     1      -4.810   1.634  -5.944  0.00  0.00    +0.386 N 
ATOM     37  H   UNL     1      -5.444   0.886  -6.247  0.00  0.00    -0.084 HD
ATOM     38  H   UNL     1      -4.807   2.385  -6.644  0.00  0.00    -0.084 HD
ENDBRANCH  25  27
ENDBRANCH   8  23
TORSDOF 4
