REMARK  Name = ZINC11106760
REMARK  9 active torsions:
REMARK  status: ('A' for Active; 'I' for Inactive)
REMARK    1  A    between atoms: C_3  and  N_16
REMARK    2  A    between atoms: C_5  and  S_7
REMARK    3  A    between atoms: S_7  and  N_10
REMARK    4  A    between atoms: C_17  and  C_19
REMARK    5  A    between atoms: C_19  and  S_20
REMARK    6  A    between atoms: S_20  and  C_21
REMARK    7  A    between atoms: N_25  and  C_26
REMARK    8  A    between atoms: C_26  and  C_27
REMARK    9  A    between atoms: C_27  and  C_28
REMARK                            x       y       z     vdW  Elec       q    Type
REMARK                         _______ _______ _______ _____ _____    ______ ____
ROOT
ATOM      1  N   UNL     1       0.881   7.584  -3.190  0.00  0.00    -0.285 N 
ATOM      2  C   UNL     1       0.992   6.531  -2.356  0.00  0.00    +0.227 C 
ATOM      3  O   UNL     1       1.766   6.574  -1.424  0.00  0.00    -0.275 OA
ATOM      4  H   UNL     1       0.312   7.525  -3.973  0.00  0.00    +0.155 HD
ENDROOT
BRANCH   1   7
ATOM      5  C   UNL     1       1.724  11.157  -2.970  0.00  0.00    +0.004 A 
ATOM      6  C   UNL     1       1.027   9.995  -3.238  0.00  0.00    +0.023 A 
ATOM      7  C   UNL     1       1.587   8.763  -2.925  0.00  0.00    +0.035 A 
ATOM      8  C   UNL     1       2.851   8.704  -2.353  0.00  0.00    +0.052 A 
ATOM      9  C   UNL     1       3.545   9.869  -2.093  0.00  0.00    +0.114 A 
ATOM     10  C   UNL     1       2.982  11.094  -2.401  0.00  0.00    +0.029 A 
BRANCH   9  11
ATOM     11  S   UNL     1       5.149   9.795  -1.366  0.00  0.00    +0.100 S 
ATOM     12  O   UNL     1       5.361  11.044  -0.722  0.00  0.00    -0.146 OA
ATOM     13  O   UNL     1       5.224   8.557  -0.672  0.00  0.00    -0.146 OA
BRANCH  11  14
ATOM     14  N   UNL     1       6.244   9.710  -2.606  0.00  0.00    -0.118 NA
ATOM     15  C   UNL     1       7.509   9.645  -2.347  0.00  0.00    +0.117 C 
ATOM     16  C   UNL     1       8.116   9.645  -0.961  0.00  0.00    +0.074 C 
ATOM     17  C   UNL     1       9.559   9.130  -1.177  0.00  0.00    +0.026 C 
ATOM     18  C   UNL     1       9.822   9.521  -2.647  0.00  0.00    +0.103 C 
ATOM     19  N   UNL     1       8.502   9.572  -3.285  0.00  0.00    -0.331 N 
ATOM     20  H   UNL     1       8.352   9.555  -4.244  0.00  0.00    +0.147 HD
ENDBRANCH  11  14
ENDBRANCH   9  11
ENDBRANCH   1   7
BRANCH   2  21
ATOM     21  C   UNL     1       0.153   5.300  -2.583  0.00  0.00    +0.173 C 
BRANCH  21  22
ATOM     22  S   UNL     1       0.528   4.072  -1.307  0.00  0.00    -0.077 S 
BRANCH  22  23
ATOM     23  C   UNL     1      -0.560   2.776  -1.800  0.00  0.00    +0.192 A 
ATOM     24  N   UNL     1      -1.378   2.793  -2.827  0.00  0.00    -0.123 NA
ATOM     25  N   UNL     1      -2.021   1.682  -2.891  0.00  0.00    -0.137 NA
ATOM     26  C   UNL     1      -1.651   0.894  -1.921  0.00  0.00    +0.225 A 
ATOM     27  N   UNL     1      -0.711   1.565  -1.188  0.00  0.00    -0.308 N 
BRANCH  27  28
ATOM     28  C   UNL     1      -0.009   1.083   0.004  0.00  0.00    +0.130 C 
BRANCH  28  29
ATOM     29  C   UNL     1      -0.735   1.574   1.258  0.00  0.00    +0.064 C 
BRANCH  29  30
ATOM     30  C   UNL     1      -0.011   1.078   2.483  0.00  0.00    -0.009 A 
ATOM     31  C   UNL     1       0.991   1.667   3.180  0.00  0.00    +0.011 A 
ATOM     32  C   UNL     1       1.508   1.020   4.287  0.00  0.00    +0.008 A 
ATOM     33  C   UNL     1       0.997  -0.184   4.643  0.00  0.00    +0.045 A 
ATOM     34  S   UNL     1      -0.258  -0.435   3.399  0.00  0.00    -0.102 S 
ENDBRANCH  29  30
ENDBRANCH  28  29
ENDBRANCH  27  28
ENDBRANCH  22  23
ENDBRANCH  21  22
ENDBRANCH   2  21
TORSDOF 9
