REMARK  Name = ZINC28527357
REMARK  7 active torsions:
REMARK  status: ('A' for Active; 'I' for Inactive)
REMARK    1  A    between atoms: C_5  and  C_7
REMARK    2  A    between atoms: C_7  and  C_8
REMARK    3  A    between atoms: C_8  and  N_9
REMARK    4  A    between atoms: N_9  and  C_10
REMARK    5  A    between atoms: C_17  and  C_19
REMARK    6  A    between atoms: C_19  and  C_20
REMARK    7  A    between atoms: C_25  and  N_26
REMARK                            x       y       z     vdW  Elec       q    Type
REMARK                         _______ _______ _______ _____ _____    ______ ____
ROOT
ATOM      1  C   UNL     1      -3.828   5.610  -4.551  0.00  0.00    +0.057 A 
ATOM      2  C   UNL     1      -2.974   5.841  -5.615  0.00  0.00    +0.025 A 
ATOM      3  C   UNL     1      -1.623   5.554  -5.503  0.00  0.00    +0.006 A 
ATOM      4  C   UNL     1      -1.111   5.036  -4.331  0.00  0.00    +0.048 A 
ATOM      5  C   UNL     1      -1.951   4.797  -3.253  0.00  0.00    +0.157 A 
ATOM      6  C   UNL     1      -3.319   5.083  -3.357  0.00  0.00    +0.130 A 
ATOM      7  N   UNL     1      -3.877   4.751  -2.161  0.00  0.00    -0.211 NA
ATOM      8  C   UNL     1      -2.947   4.297  -1.377  0.00  0.00    +0.201 A 
ATOM      9  O   UNL     1      -1.760   4.315  -2.005  0.00  0.00    -0.439 OA
ENDROOT
BRANCH   1  10
ATOM     10  N   UNL     1      -5.189   5.900  -4.668  0.00  0.00    -0.336 N 
ATOM     11  H   UNL     1      -5.865   5.715  -3.820  0.00  0.00    +0.146 HD
BRANCH  10  12
ATOM     12  C   UNL     1      -5.716   6.450  -5.919  0.00  0.00    +0.183 C 
BRANCH  12  13
ATOM     13  C   UNL     1      -7.224   6.675  -5.782  0.00  0.00    +0.305 C 
ATOM     14  F   UNL     1      -7.854   5.457  -5.506  0.00  0.00    -0.197 F 
ATOM     15  F   UNL     1      -7.468   7.573  -4.738  0.00  0.00    -0.197 F 
BRANCH  13  20
ATOM     16  C   UNL     1      -9.603   8.046  -8.363  0.00  0.00    +0.003 A 
ATOM     17  C   UNL     1      -8.713   8.263  -9.405  0.00  0.00    +0.020 A 
ATOM     18  C   UNL     1      -7.379   7.954  -9.225  0.00  0.00    +0.111 A 
ATOM     19  N   UNL     1      -6.948   7.465  -8.078  0.00  0.00    -0.254 NA
ATOM     20  C   UNL     1      -7.766   7.241  -7.069  0.00  0.00    +0.111 A 
ATOM     21  C   UNL     1      -9.115   7.525  -7.175  0.00  0.00    +0.029 A 
ENDBRANCH  13  20
ENDBRANCH  12  13
ENDBRANCH  10  12
ENDBRANCH   1  10
BRANCH   8  22
ATOM     22  C   UNL     1      -3.167   3.823   0.037  0.00  0.00    +0.133 C 
BRANCH  22  23
ATOM     23  C   UNL     1      -3.479   2.349   0.030  0.00  0.00    -0.012 A 
ATOM     24  C   UNL     1      -4.792   1.921   0.033  0.00  0.00    +0.026 A 
ATOM     25  C   UNL     1      -5.080   0.567   0.027  0.00  0.00    +0.041 A 
ATOM     26  C   UNL     1      -4.053  -0.361   0.018  0.00  0.00    +0.022 A 
ATOM     27  C   UNL     1      -2.738   0.063   0.009  0.00  0.00    +0.029 A 
ATOM     28  C   UNL     1      -2.447   1.420   0.021  0.00  0.00    +0.071 A 
ATOM     29 CL   UNL     1      -6.731   0.032   0.030  0.00  0.00    -0.084 Cl
BRANCH  28  30
ATOM     30  N   UNL     1      -1.113   1.852   0.017  0.00  0.00    -0.220 N 
ATOM     31  C   UNL     1      -0.013   1.076   0.008  0.00  0.00    +0.225 A 
ATOM     32  N   UNL     1       1.036   1.859   0.002  0.00  0.00    -0.222 NA
ATOM     33  C   UNL     1       0.648   3.134   0.012  0.00  0.00    +0.245 A 
ATOM     34  N   UNL     1      -0.659   3.181   0.024  0.00  0.00    -0.154 NA
ENDBRANCH  28  30
ENDBRANCH  22  23
ENDBRANCH   8  22
TORSDOF 7
