REMARK  Name = ZINC54600751
REMARK  4 active torsions:
REMARK  status: ('A' for Active; 'I' for Inactive)
REMARK    1  A    between atoms: C_1  and  C_2
REMARK    2  A    between atoms: C_2  and  C_3
REMARK    3  A    between atoms: N_6  and  C_8
REMARK    4  A    between atoms: C_15  and  O_17
REMARK                            x       y       z     vdW  Elec       q    Type
REMARK                         _______ _______ _______ _____ _____    ______ ____
ROOT
ATOM      1  C   UNL     1       0.731  -0.503   1.223  0.00  0.00    +0.153 A 
ATOM      2  N   UNL     1       2.042  -0.738   1.299  0.00  0.00    -0.198 NA
ATOM      3  C   UNL     1       2.346  -1.164   2.506  0.00  0.00    +0.211 A 
ATOM      4  N   UNL     1       1.208  -1.207   3.230  0.00  0.00    -0.228 N 
ATOM      5  N   UNL     1       0.181  -0.769   2.377  0.00  0.00    -0.153 NA
ATOM      6  N   UNL     1       3.609  -1.508   2.954  0.00  0.00    -0.328 N 
ATOM      7  H   UNL     1       4.370  -1.444   2.356  0.00  0.00    +0.145 HD
ATOM      8  H   UNL     1       3.734  -1.813   3.866  0.00  0.00    +0.145 HD
ENDROOT
BRANCH   4   9
ATOM      9  C   UNL     1       1.071  -1.622   4.628  0.00  0.00    +0.139 C 
ATOM     10  C   UNL     1       0.146  -2.853   4.692  0.00  0.00    +0.029 C 
ATOM     11  C   UNL     1      -0.389  -3.099   6.077  0.00  0.00    +0.002 C 
ATOM     12  C   UNL     1      -1.766  -2.415   6.198  0.00  0.00    +0.000 C 
ATOM     13  C   UNL     1      -1.656  -0.985   6.446  0.00  0.00    +0.003 C 
ATOM     14  C   UNL     1      -0.945  -0.243   5.295  0.00  0.00    +0.033 C 
ATOM     15  C   UNL     1       0.537  -0.433   5.449  0.00  0.00    +0.139 C 
BRANCH  15  16
ATOM     16  O   UNL     1       1.200   0.759   5.022  0.00  0.00    -0.390 OA
ATOM     17  H   UNL     1       0.919   1.555   5.493  0.00  0.00    +0.210 HD
ENDBRANCH  15  16
ENDBRANCH   4   9
BRANCH   1  19
ATOM     18  C   UNL     1      -0.019   1.526   0.010  0.00  0.00    +0.012 C 
ATOM     19  C   UNL     1       0.002  -0.004   0.002  0.00  0.00    +0.075 C 
ENDBRANCH   1  19
TORSDOF 3
