REMARK  Name = ZINC64015257
REMARK  6 active torsions:
REMARK  status: ('A' for Active; 'I' for Inactive)
REMARK    1  A    between atoms: C_1  and  C_2
REMARK    2  A    between atoms: C_2  and  C_3
REMARK    3  A    between atoms: C_2  and  C_4
REMARK    4  A    between atoms: C_4  and  C_5
REMARK    5  A    between atoms: C_7  and  C_12
REMARK    6  A    between atoms: C_27  and  C_29
REMARK                            x       y       z     vdW  Elec       q    Type
REMARK                         _______ _______ _______ _____ _____    ______ ____
ROOT
ATOM      1  C   UNL     1      -3.295  -5.114   1.271  0.00  0.00    +0.266 C 
ATOM      2  O   UNL     1      -3.709  -4.615   2.298  0.00  0.00    -0.268 OA
ATOM      3  N   UNL     1      -3.079  -6.443   1.207  0.00  0.00    -0.287 N 
ATOM      4  C   UNL     1      -2.428  -7.016   0.025  0.00  0.00    +0.113 C 
ATOM      5  C   UNL     1      -3.350  -8.079  -0.604  0.00  0.00    +0.052 C 
ATOM      6  C   UNL     1      -3.864  -8.930   0.531  0.00  0.00    -0.035 C 
ATOM      7  C   UNL     1      -3.872 -10.245   0.708  0.00  0.00    -0.001 A 
ATOM      8  C   UNL     1      -3.484 -11.355  -0.178  0.00  0.00    +0.010 A 
ATOM      9  C   UNL     1      -3.603 -12.606   0.342  0.00  0.00    +0.001 A 
ATOM     10  C   UNL     1      -4.064 -12.860   1.637  0.00  0.00    +0.002 A 
ATOM     11  C   UNL     1      -4.449 -11.901   2.516  0.00  0.00    +0.026 A 
ATOM     12  C   UNL     1      -4.377 -10.546   2.082  0.00  0.00    +0.043 A 
ATOM     13  N   UNL     1      -4.700  -9.447   2.698  0.00  0.00    -0.375 N 
ATOM     14  C   UNL     1      -4.500  -8.326   1.778  0.00  0.00    +0.131 C 
ATOM     15  C   UNL     1      -3.494  -7.303   2.327  0.00  0.00    +0.136 C 
ATOM     16  H   UNL     1      -5.018  -9.381   3.612  0.00  0.00    +0.160 HD
ENDROOT
BRANCH   1  19
ATOM     17  C   UNL     1      -3.107  -2.153  -1.039  0.00  0.00    +0.047 A 
ATOM     18  C   UNL     1      -3.378  -2.912   0.091  0.00  0.00    +0.056 A 
ATOM     19  C   UNL     1      -3.026  -4.261   0.086  0.00  0.00    +0.131 A 
ATOM     20  N   UNL     1      -2.446  -4.772  -0.997  0.00  0.00    -0.210 NA
ATOM     21  C   UNL     1      -2.205  -4.014  -2.054  0.00  0.00    +0.213 A 
ATOM     22  N   UNL     1      -2.533  -2.730  -2.080  0.00  0.00    -0.220 NA
ATOM     23  N   UNL     1      -1.599  -4.578  -3.163  0.00  0.00    -0.327 N 
ATOM     24  H   UNL     1      -1.357  -5.518  -3.159  0.00  0.00    +0.145 HD
ATOM     25  H   UNL     1      -1.416  -4.034  -3.945  0.00  0.00    +0.145 HD
BRANCH  17  26
ATOM     26  C   UNL     1      -3.469  -0.691  -1.082  0.00  0.00    +0.058 C 
BRANCH  26  28
ATOM     27  C   UNL     1      -2.620   1.601  -1.596  0.00  0.00    +0.007 C 
ATOM     28  C   UNL     1      -2.228   0.132  -1.431  0.00  0.00    -0.011 C 
ATOM     29  C   UNL     1      -1.197   0.002  -0.307  0.00  0.00    +0.007 C 
ENDBRANCH  26  28
ENDBRANCH  17  26
ENDBRANCH   1  19
BRANCH  15  30
ATOM     30  C   UNL     1      -4.146  -6.466   3.398  0.00  0.00    +0.010 A 
ATOM     31  C   UNL     1      -5.518  -6.301   3.407  0.00  0.00    +0.008 A 
ATOM     32  C   UNL     1      -6.116  -5.535   4.389  0.00  0.00    +0.000 A 
ATOM     33  C   UNL     1      -5.343  -4.931   5.363  0.00  0.00    +0.003 A 
ATOM     34  C   UNL     1      -3.971  -5.095   5.357  0.00  0.00    +0.039 A 
ATOM     35  C   UNL     1      -3.371  -5.868   4.377  0.00  0.00    +0.128 A 
ATOM     36  F   UNL     1      -2.030  -6.033   4.372  0.00  0.00    -0.205 F 
ENDBRANCH  15  30
TORSDOF 4
