REMARK  Name = ZINC09385692
REMARK  10 active torsions:
REMARK  status: ('A' for Active; 'I' for Inactive)
REMARK    1  A    between atoms: C_1  and  N_53
REMARK    2  A    between atoms: C_2  and  N_53
REMARK    3  A    between atoms: C_3  and  C_4
REMARK    4  A    between atoms: C_3  and  N_53
REMARK    5  A    between atoms: C_4  and  C_5
REMARK    6  A    between atoms: C_5  and  N_6
REMARK    7  A    between atoms: C_12  and  N_16
REMARK    8  A    between atoms: C_19  and  C_21
REMARK    9  A    between atoms: C_21  and  S_22
REMARK   10  A    between atoms: S_22  and  C_25
REMARK                            x       y       z     vdW  Elec       q    Type
REMARK                         _______ _______ _______ _____ _____    ______ ____
ROOT
ATOM      1  N   UNL     1       6.046   1.775  -0.048  0.00  0.00    -0.249 N 
ATOM      2  C   UNL     1       4.733   1.335  -0.037  0.00  0.00    +0.168 A 
ATOM      3  N   UNL     1       3.627   2.042  -0.022  0.00  0.00    -0.224 NA
ATOM      4  C   UNL     1       2.402   1.474  -0.013  0.00  0.00    +0.080 A 
ATOM      5  C   UNL     1       1.142   2.115   0.003  0.00  0.00    +0.031 A 
ATOM      6  C   UNL     1      -0.017   1.383   0.010  0.00  0.00    +0.035 A 
ATOM      7  C   UNL     1       0.002  -0.004   0.002  0.00  0.00    +0.127 A 
ATOM      8  C   UNL     1       1.217  -0.665  -0.013  0.00  0.00    +0.050 A 
ATOM      9  C   UNL     1       2.382   0.060  -0.021  0.00  0.00    +0.043 A 
ATOM     10  S   UNL     1       4.113  -0.342  -0.040  0.00  0.00    -0.052 S 
ATOM     11  C   UNL     1       7.056   0.883  -0.063  0.00  0.00    +0.243 C 
ATOM     12  O   UNL     1       6.815  -0.305  -0.067  0.00  0.00    -0.273 OA
ENDROOT
BRANCH   7  13
ATOM     13  N   UNL     1      -1.265  -0.769   0.011  0.00  0.00    +0.056 N 
ATOM     14  O   UNL     1      -2.332  -0.181   0.024  0.00  0.00    -0.126 OA
ATOM     15  O   UNL     1      -1.242  -1.987   0.004  0.00  0.00    -0.126 OA
ENDBRANCH   7  13
BRANCH   1  16
ATOM     16  C   UNL     1       6.337   3.211  -0.044  0.00  0.00    +0.114 C 
BRANCH  16  17
ATOM     17  C   UNL     1       6.453   3.703   1.400  0.00  0.00    +0.001 C 
BRANCH  17  18
ATOM     18  C   UNL     1       6.757   5.203   1.405  0.00  0.00    -0.078 C 
BRANCH  18  21
ATOM     19  C   UNL     1       7.390   7.048   2.839  0.00  0.00    -0.097 C 
ATOM     20  C   UNL     1       5.578   5.578   3.486  0.00  0.00    -0.097 C 
ATOM     21  N   UNL     1       6.887   5.659   2.805  0.00  0.00    +0.376 N 
ATOM     22  H   UNL     1       7.555   5.050   3.293  0.00  0.00    -0.083 HD
ENDBRANCH  18  21
ENDBRANCH  17  18
ENDBRANCH  16  17
ENDBRANCH   1  16
BRANCH  11  23
ATOM     23  C   UNL     1       8.485   1.363  -0.076  0.00  0.00    +0.267 C 
BRANCH  23  24
ATOM     24  S   UNL     1       9.602  -0.066  -0.095  0.00  0.00    +0.005 S 
ATOM     25  O   UNL     1       9.518  -0.770   1.137  0.00  0.00    -0.169 OA
ATOM     26  O   UNL     1       9.493  -0.757  -1.332  0.00  0.00    -0.169 OA
BRANCH  24  27
ATOM     27  C   UNL     1      11.222   0.626  -0.108  0.00  0.00    +0.089 A 
ATOM     28  C   UNL     1      11.847   0.898  -1.310  0.00  0.00    +0.028 A 
ATOM     29  C   UNL     1      13.116   1.447  -1.321  0.00  0.00    +0.022 A 
ATOM     30  C   UNL     1      13.765   1.712  -0.129  0.00  0.00    +0.041 A 
ATOM     31  C   UNL     1      13.141   1.434   1.074  0.00  0.00    +0.022 A 
ATOM     32  C   UNL     1      11.870   0.891   1.084  0.00  0.00    +0.028 A 
ATOM     33 CL   UNL     1      15.361   2.395  -0.142  0.00  0.00    -0.084 Cl
ENDBRANCH  24  27
ENDBRANCH  23  24
ENDBRANCH  11  23
TORSDOF 8
