REMARK  Name = ZINC39916664
REMARK  6 active torsions:
REMARK  status: ('A' for Active; 'I' for Inactive)
REMARK    1  A    between atoms: C_2  and  C_3
REMARK    2  A    between atoms: C_3  and  N_4
REMARK    3  A    between atoms: N_4  and  C_5
REMARK    4  A    between atoms: C_5  and  N_7
REMARK    5  A    between atoms: N_7  and  N_8
REMARK    6  A    between atoms: C_10  and  C_19
REMARK                            x       y       z     vdW  Elec       q    Type
REMARK                         _______ _______ _______ _____ _____    ______ ____
ROOT
ATOM      1  N   UNL     1       1.528  -3.292   3.281  0.00  0.00    -0.274 N 
ATOM      2  C   UNL     1       1.470  -4.233   4.184  0.00  0.00    +0.220 A 
ATOM      3  C   UNL     1       2.604  -5.159   4.394  0.00  0.00    +0.044 A 
ATOM      4  C   UNL     1       2.738  -5.716   5.639  0.00  0.00    +0.025 A 
ATOM      5  C   UNL     1       1.746  -5.349   6.660  0.00  0.00    +0.018 A 
ATOM      6  C   UNL     1       1.961  -5.655   8.006  0.00  0.00    +0.011 A 
ATOM      7  C   UNL     1       1.017  -5.299   8.945  0.00  0.00    +0.001 A 
ATOM      8  C   UNL     1      -0.140  -4.639   8.560  0.00  0.00    +0.004 A 
ATOM      9  C   UNL     1      -0.364  -4.331   7.231  0.00  0.00    +0.047 A 
ATOM     10  C   UNL     1       0.572  -4.683   6.273  0.00  0.00    +0.137 A 
ATOM     11  O   UNL     1       0.364  -4.389   4.966  0.00  0.00    -0.438 OA
ATOM     12  H   UNL     1       0.740  -2.765   3.079  0.00  0.00    +0.187 HD
ENDROOT
BRANCH   3  13
ATOM     13  C   UNL     1       3.557  -5.471   3.304  0.00  0.00    -0.013 A 
ATOM     14  C   UNL     1       4.899  -5.110   3.422  0.00  0.00    +0.010 A 
ATOM     15  C   UNL     1       5.782  -5.404   2.404  0.00  0.00    +0.016 A 
ATOM     16  C   UNL     1       5.337  -6.055   1.265  0.00  0.00    +0.018 A 
ATOM     17  C   UNL     1       4.006  -6.415   1.142  0.00  0.00    +0.016 A 
ATOM     18  C   UNL     1       3.115  -6.131   2.157  0.00  0.00    +0.010 A 
ATOM     19 BR   UNL     1       6.553  -6.453  -0.127  0.00  0.00    -0.050 Br
ENDBRANCH   3  13
BRANCH   1  20
ATOM     20  N   UNL     1       2.729  -3.044   2.604  0.00  0.00    -0.239 N 
ATOM     21  H   UNL     1       3.542  -3.497   2.877  0.00  0.00    +0.174 HD
BRANCH  20  22
ATOM     22  C   UNL     1       2.756  -2.174   1.575  0.00  0.00    +0.149 C 
ATOM     23  S   UNL     1       4.224  -1.871   0.748  0.00  0.00    -0.017 S 
BRANCH  22  24
ATOM     24  N   UNL     1       1.626  -1.544   1.196  0.00  0.00    -0.322 N 
ATOM     25  H   UNL     1       0.794  -1.716   1.665  0.00  0.00    +0.148 HD
BRANCH  24  26
ATOM     26  C   UNL     1       1.655  -0.599   0.077  0.00  0.00    +0.130 C 
BRANCH  26  28
ATOM     27  C   UNL     1       0.086   1.260  -0.140  0.00  0.00    +0.005 C 
ATOM     28  C   UNL     1       0.273  -0.037  -0.141  0.00  0.00    -0.016 C 
ENDBRANCH  26  28
ENDBRANCH  24  26
ENDBRANCH  22  24
ENDBRANCH  20  22
ENDBRANCH   1  20
TORSDOF 6
