REMARK  Name = ZINC49671923
REMARK  3 active torsions:
REMARK  status: ('A' for Active; 'I' for Inactive)
REMARK    1  A    between atoms: C_5  and  C_7
REMARK    2  A    between atoms: C_8  and  C_13
REMARK    3  A    between atoms: C_11  and  N_12
REMARK                            x       y       z     vdW  Elec       q    Type
REMARK                         _______ _______ _______ _____ _____    ______ ____
ROOT
ATOM      1  C   UNL     1       1.247  -2.164  -0.022  0.00  0.00    +0.074 A 
ATOM      2  C   UNL     1       1.268  -3.045   1.148  0.00  0.00    +0.123 A 
ATOM      3  N   UNL     1       1.287  -4.279   0.703  0.00  0.00    -0.075 NA
ATOM      4  O   UNL     1       1.280  -4.255  -0.711  0.00  0.00    -0.339 OA
ATOM      5  C   UNL     1       1.250  -2.982  -1.134  0.00  0.00    +0.224 A 
ENDROOT
BRANCH   1  10
ATOM      6  C   UNL     1      -0.017   1.376   0.010  0.00  0.00    +0.001 A 
ATOM      7  C   UNL     1       1.170   2.087   0.002  0.00  0.00    +0.003 A 
ATOM      8  C   UNL     1       2.382   1.422  -0.013  0.00  0.00    +0.039 A 
ATOM      9  C   UNL     1       2.415   0.040  -0.021  0.00  0.00    +0.131 A 
ATOM     10  C   UNL     1       1.220  -0.682  -0.013  0.00  0.00    +0.024 A 
ATOM     11  C   UNL     1       0.002  -0.004   0.002  0.00  0.00    +0.011 A 
ATOM     12  F   UNL     1       3.599  -0.609  -0.036  0.00  0.00    -0.205 F 
ENDBRANCH   1  10
BRANCH   2  13
ATOM     13  C   UNL     1       1.268  -2.622   2.570  0.00  0.00    +0.004 A 
ATOM     14  C   UNL     1       1.937  -1.461   2.954  0.00  0.00    +0.011 A 
ATOM     15  C   UNL     1       1.935  -1.072   4.277  0.00  0.00    +0.015 A 
ATOM     16  C   UNL     1       1.269  -1.831   5.223  0.00  0.00    +0.013 A 
ATOM     17  C   UNL     1       0.603  -2.985   4.848  0.00  0.00    +0.015 A 
ATOM     18  C   UNL     1       0.595  -3.380   3.525  0.00  0.00    +0.011 A 
ATOM     19  I   UNL     1       1.270  -1.234   7.231  0.00  0.00    -0.044 I 
ENDBRANCH   2  13
BRANCH   5  20
ATOM     20  N   UNL     1       1.230  -2.564  -2.449  0.00  0.00    -0.327 N 
ATOM     21  H   UNL     1       1.212  -1.617  -2.656  0.00  0.00    +0.145 HD
ATOM     22  H   UNL     1       1.235  -3.218  -3.165  0.00  0.00    +0.145 HD
ENDBRANCH   5  20
TORSDOF 3
