REMARK  Name = ZINC20853372
REMARK  17 active torsions:
REMARK  status: ('A' for Active; 'I' for Inactive)
REMARK    1  A    between atoms: C_1  and  C_2
REMARK    2  A    between atoms: C_2  and  C_3
REMARK    3  A    between atoms: C_3  and  C_4
REMARK    4  A    between atoms: C_4  and  N_5
REMARK    5  A    between atoms: C_9  and  S_26
REMARK    6  A    between atoms: C_13  and  S_14
REMARK    7  A    between atoms: S_14  and  C_15
REMARK    8  A    between atoms: C_15  and  C_16
REMARK    9  A    between atoms: N_21  and  C_22
REMARK   10  A    between atoms: C_22  and  C_23
REMARK   11  A    between atoms: C_22  and  C_24
REMARK   12  A    between atoms: C_22  and  C_25
REMARK   13  A    between atoms: S_26  and  N_29
REMARK   14  A    between atoms: N_29  and  C_30
REMARK   15  A    between atoms: N_29  and  C_32
REMARK   16  A    between atoms: C_30  and  C_31
REMARK   17  A    between atoms: C_32  and  C_33
REMARK                            x       y       z     vdW  Elec       q    Type
REMARK                         _______ _______ _______ _____ _____    ______ ____
ROOT
ATOM      1  N   UNL     1      -2.566   3.547   0.045  0.00  0.00    -0.319 N 
ATOM      2  C   UNL     1      -1.234   3.165   0.030  0.00  0.00    +0.070 A 
ATOM      3  C   UNL     1      -0.035   3.860   0.022  0.00  0.00    +0.030 A 
ATOM      4  C   UNL     1       1.159   3.170   0.007  0.00  0.00    +0.030 A 
ATOM      5  C   UNL     1       1.169   1.783   0.001  0.00  0.00    +0.108 A 
ATOM      6  C   UNL     1      -0.013   1.076   0.008  0.00  0.00    +0.058 A 
ATOM      7  C   UNL     1      -1.231   1.760   0.017  0.00  0.00    +0.092 A 
ATOM      8  N   UNL     1      -2.528   1.356   0.034  0.00  0.00    -0.222 NA
ATOM      9  C   UNL     1      -3.315   2.404   0.047  0.00  0.00    +0.170 A 
ENDROOT
BRANCH   5  10
ATOM     10  S   UNL     1       2.705   0.919  -0.018  0.00  0.00    +0.061 S 
ATOM     11  O   UNL     1       3.674   1.802   0.528  0.00  0.00    -0.153 OA
ATOM     12  O   UNL     1       2.453  -0.368   0.528  0.00  0.00    -0.153 OA
BRANCH  10  13
ATOM     13  N   UNL     1       3.116   0.687  -1.605  0.00  0.00    -0.177 NA
BRANCH  13  14
ATOM     14  C   UNL     1       3.921   1.690  -2.308  0.00  0.00    +0.106 C 
ATOM     15  C   UNL     1       5.397   1.294  -2.246  0.00  0.00    +0.022 C 
ENDBRANCH  13  14
BRANCH  13  16
ATOM     16  C   UNL     1       2.677  -0.522  -2.307  0.00  0.00    +0.106 C 
ATOM     17  C   UNL     1       1.381  -0.228  -3.066  0.00  0.00    +0.022 C 
ENDBRANCH  13  16
ENDBRANCH  10  13
ENDBRANCH   5  10
BRANCH   1  18
ATOM     18  C   UNL     1      -3.076   4.920   0.058  0.00  0.00    +0.124 C 
BRANCH  18  19
ATOM     19  C   UNL     1      -3.267   5.406  -1.380  0.00  0.00    +0.021 C 
BRANCH  19  21
ATOM     20  C   UNL     1      -3.991   7.327  -2.805  0.00  0.00    +0.004 C 
ATOM     21  C   UNL     1      -3.800   6.841  -1.367  0.00  0.00    -0.002 C 
ENDBRANCH  19  21
ENDBRANCH  18  19
ENDBRANCH   1  18
BRANCH   9  22
ATOM     22  S   UNL     1      -5.076   2.348   0.063  0.00  0.00    -0.078 S 
BRANCH  22  23
ATOM     23  C   UNL     1      -5.333   0.556   0.057  0.00  0.00    +0.173 C 
BRANCH  23  24
ATOM     24  C   UNL     1      -6.811   0.261   0.069  0.00  0.00    +0.231 C 
ATOM     25  O   UNL     1      -7.611   1.171   0.081  0.00  0.00    -0.274 OA
ATOM     26  N   UNL     1      -7.243  -1.016   0.067  0.00  0.00    -0.239 N 
ATOM     27  C   UNL     1      -8.564  -1.280   0.078  0.00  0.00    +0.306 C 
ATOM     28  O   UNL     1      -9.367  -0.367   0.090  0.00  0.00    -0.252 OA
ATOM     29  N   UNL     1      -8.996  -2.557   0.076  0.00  0.00    -0.294 N 
ATOM     30  H   UNL     1      -6.517  -1.842   0.056  0.00  0.00    +0.159 HD
ATOM     31  H   UNL     1      -8.270  -3.383   0.065  0.00  0.00    +0.151 HD
BRANCH  29  32
ATOM     32  C   UNL     1     -10.433  -2.844   0.088  0.00  0.00    +0.028 C 
ATOM     33  C   UNL     1     -11.086  -2.231  -1.152  0.00  0.00    +0.031 C 
ATOM     34  C   UNL     1     -10.650  -4.359   0.083  0.00  0.00    +0.031 C 
ATOM     35  C   UNL     1     -11.062  -2.243   1.346  0.00  0.00    +0.031 C 
ENDBRANCH  29  32
ENDBRANCH  23  24
ENDBRANCH  22  23
ENDBRANCH   9  22
TORSDOF 11
