REMARK  Name = ZINC40412140
REMARK  5 active torsions:
REMARK  status: ('A' for Active; 'I' for Inactive)
REMARK    1  A    between atoms: C_3  and  N_20
REMARK    2  A    between atoms: C_4  and  C_16
REMARK    3  A    between atoms: C_6  and  N_7
REMARK    4  A    between atoms: C_12  and  C_14
REMARK    5  A    between atoms: C_14  and  O_15
REMARK                            x       y       z     vdW  Elec       q    Type
REMARK                         _______ _______ _______ _____ _____    ______ ____
ROOT
ATOM      1  C   UNL     1       0.669   0.371   0.917  0.00  0.00    +0.025 A 
ATOM      2  C   UNL     1       1.852   1.076   0.805  0.00  0.00    +0.035 A 
ATOM      3  C   UNL     1       2.349   1.403  -0.443  0.00  0.00    +0.138 A 
ATOM      4  C   UNL     1       1.664   1.026  -1.584  0.00  0.00    +0.087 A 
ATOM      5  C   UNL     1       0.481   0.321  -1.480  0.00  0.00    +0.037 A 
ATOM      6  C   UNL     1      -0.021  -0.009  -0.227  0.00  0.00    +0.031 A 
ENDROOT
BRANCH   6   7
ATOM      7  N   UNL     1      -1.217  -0.722  -0.118  0.00  0.00    -0.325 N 
ATOM      8  C   UNL     1      -1.231  -2.186  -0.250  0.00  0.00    +0.105 C 
ATOM      9  C   UNL     1      -2.255  -2.574  -1.320  0.00  0.00    +0.019 C 
ATOM     10  C   UNL     1      -3.613  -1.962  -0.968  0.00  0.00    +0.003 C 
ATOM     11  C   UNL     1      -3.495  -0.436  -0.944  0.00  0.00    +0.025 C 
ATOM     12  C   UNL     1      -2.484  -0.024   0.137  0.00  0.00    +0.099 C 
BRANCH  12  13
ATOM     13  C   UNL     1      -2.257   1.488   0.079  0.00  0.00    +0.178 C 
BRANCH  13  14
ATOM     14  O   UNL     1      -1.872   1.862  -1.246  0.00  0.00    -0.393 OA
ATOM     15  H   UNL     1      -1.711   2.809  -1.356  0.00  0.00    +0.209 HD
ENDBRANCH  13  14
ENDBRANCH  12  13
ENDBRANCH   6   7
BRANCH   4  16
ATOM     16  C   UNL     1       2.209   1.385  -2.942  0.00  0.00    +0.420 C 
ATOM     17  F   UNL     1       1.349   0.900  -3.933  0.00  0.00    -0.166 F 
ATOM     18  F   UNL     1       2.309   2.776  -3.052  0.00  0.00    -0.166 F 
ATOM     19  F   UNL     1       3.475   0.812  -3.103  0.00  0.00    -0.166 F 
ENDBRANCH   4  16
BRANCH   3  20
ATOM     20  N   UNL     1       3.616   2.158  -0.559  0.00  0.00    +0.057 N 
ATOM     21  O   UNL     1       4.216   2.488   0.438  0.00  0.00    -0.126 OA
ATOM     22  O   UNL     1       4.052   2.445  -1.649  0.00  0.00    -0.126 OA
ENDBRANCH   3  20
TORSDOF 5
