REMARK  Name = ZINC19804829
REMARK  5 active torsions:
REMARK  status: ('A' for Active; 'I' for Inactive)
REMARK    1  A    between atoms: C_1  and  C_2
REMARK    2  A    between atoms: C_3  and  C_22
REMARK    3  A    between atoms: C_4  and  C_17
REMARK    4  A    between atoms: C_22  and  O_24
REMARK    5  A    between atoms: O_24  and  C_25
REMARK                            x       y       z     vdW  Elec       q    Type
REMARK                         _______ _______ _______ _____ _____    ______ ____
ROOT
ATOM      1  C   UNL     1       2.062   6.998   0.614  0.00  0.00    +0.061 C 
ATOM      2  C   UNL     1       1.133   5.851   0.309  0.00  0.00    +0.016 C 
ATOM      3  C   UNL     1      -0.188   6.073   0.333  0.00  0.00    +0.068 C 
ATOM      4  C   UNL     1      -1.208   5.006   0.035  0.00  0.00    +0.129 C 
ATOM      5  C   UNL     1      -0.522   3.662   0.026  0.00  0.00    +0.037 C 
ATOM      6  C   UNL     1       0.840   3.532   0.015  0.00  0.00    +0.047 C 
ATOM      7  N   UNL     1       1.677   4.626   0.021  0.00  0.00    -0.317 N 
ATOM      8  C   UNL     1       1.192   2.097   0.002  0.00  0.00    +0.007 A 
ATOM      9  C   UNL     1       2.396   1.412  -0.015  0.00  0.00    +0.010 A 
ATOM     10  C   UNL     1       2.403   0.022  -0.024  0.00  0.00    +0.001 A 
ATOM     11  C   UNL     1       1.218  -0.681  -0.015  0.00  0.00    +0.001 A 
ATOM     12  C   UNL     1       0.002  -0.004   0.002  0.00  0.00    +0.012 A 
ATOM     13  C   UNL     1      -0.017   1.376   0.010  0.00  0.00    +0.031 A 
ATOM     14  C   UNL     1      -1.115   2.384   0.019  0.00  0.00    +0.193 C 
ATOM     15  O   UNL     1      -2.308   2.146   0.024  0.00  0.00    -0.287 OA
ATOM     16  H   UNL     1       2.752   4.539  -0.197  0.00  0.00    +0.152 HD
ENDROOT
BRANCH   4  17
ATOM     17  C   UNL     1      -1.832   5.266  -1.312  0.00  0.00    +0.117 A 
ATOM     18  C   UNL     1      -3.138   5.484  -1.545  0.00  0.00    +0.045 A 
ATOM     19  C   UNL     1      -3.279   5.681  -2.938  0.00  0.00    +0.041 A 
ATOM     20  C   UNL     1      -2.050   5.572  -3.473  0.00  0.00    +0.195 A 
ATOM     21  O   UNL     1      -1.176   5.327  -2.482  0.00  0.00    -0.467 OA
ENDBRANCH   4  17
BRANCH   3  22
ATOM     22  C   UNL     1      -0.646   7.372   0.653  0.00  0.00    +0.337 C 
ATOM     23  O   UNL     1       0.153   8.256   0.898  0.00  0.00    -0.245 OA
BRANCH  22  24
ATOM     24  O   UNL     1      -1.970   7.631   0.686  0.00  0.00    -0.465 OA
ATOM     25  C   UNL     1      -2.362   8.965   1.017  0.00  0.00    +0.280 C 
ENDBRANCH  22  24
ENDBRANCH   3  22
TORSDOF 3
