REMARK  Name = ZINC52908397
REMARK  4 active torsions:
REMARK  status: ('A' for Active; 'I' for Inactive)
REMARK    1  A    between atoms: C_3  and  O_11
REMARK    2  A    between atoms: C_4  and  C_8
REMARK    3  A    between atoms: C_8  and  N_10
REMARK    4  A    between atoms: O_11  and  C_12
REMARK                            x       y       z     vdW  Elec       q    Type
REMARK                         _______ _______ _______ _____ _____    ______ ____
ROOT
ATOM      1  C   UNL     1       0.386   1.261  -1.659  0.00  0.00    +0.005 A 
ATOM      2  C   UNL     1       1.394   2.045  -1.131  0.00  0.00    +0.047 A 
ATOM      3  C   UNL     1       2.461   1.454  -0.473  0.00  0.00    +0.139 A 
ATOM      4  C   UNL     1       2.513   0.058  -0.345  0.00  0.00    +0.063 A 
ATOM      5  C   UNL     1       1.486  -0.723  -0.884  0.00  0.00    +0.054 A 
ATOM      6  C   UNL     1       0.431  -0.117  -1.536  0.00  0.00    +0.021 A 
ATOM      7 CL   UNL     1       1.537  -2.452  -0.734  0.00  0.00    -0.083 Cl
ENDROOT
BRANCH   4   8
ATOM      8  C   UNL     1       3.642  -0.581   0.352  0.00  0.00    +0.082 C 
ATOM      9  S   UNL     1       3.516  -0.962   2.016  0.00  0.00    -0.035 S 
BRANCH   8  10
ATOM     10  N   UNL     1       4.775  -0.866  -0.321  0.00  0.00    -0.352 N 
ATOM     11  H   UNL     1       4.874  -0.586  -1.244  0.00  0.00    +0.143 HD
ATOM     12  H   UNL     1       5.491  -1.351   0.118  0.00  0.00    +0.143 HD
ENDBRANCH   8  10
ENDBRANCH   4   8
BRANCH   3  13
ATOM     13  O   UNL     1       3.452   2.223   0.045  0.00  0.00    -0.455 OA
BRANCH  13  14
ATOM     14  C   UNL     1       3.315   3.574  -0.026  0.00  0.00    +0.132 A 
ATOM     15  C   UNL     1       2.673   4.260   0.994  0.00  0.00    +0.050 A 
ATOM     16  C   UNL     1       2.532   5.633   0.924  0.00  0.00    +0.053 A 
ATOM     17  C   UNL     1       3.032   6.328  -0.166  0.00  0.00    +0.166 A 
ATOM     18  C   UNL     1       3.678   5.641  -1.191  0.00  0.00    +0.170 A 
ATOM     19  C   UNL     1       3.822   4.265  -1.116  0.00  0.00    +0.095 A 
ATOM     20  O   UNL     1       4.073   6.541  -2.138  0.00  0.00    -0.452 OA
ATOM     21  C   UNL     1       3.306   7.732  -1.881  0.00  0.00    +0.466 C 
ATOM     22  O   UNL     1       3.024   7.659  -0.471  0.00  0.00    -0.453 OA
ENDBRANCH  13  14
ENDBRANCH   3  13
TORSDOF 4
