REMARK  Name = ZINC09060692
REMARK  12 active torsions:
REMARK  status: ('A' for Active; 'I' for Inactive)
REMARK    1  A    between atoms: C_1  and  C_2
REMARK    2  A    between atoms: C_2  and  C_3
REMARK    3  A    between atoms: C_3  and  C_5
REMARK    4  A    between atoms: C_3  and  C_6
REMARK    5  A    between atoms: C_6  and  C_8
REMARK    6  A    between atoms: C_6  and  N_20
REMARK    7  A    between atoms: N_10  and  C_11
REMARK    8  A    between atoms: C_13  and  C_18
REMARK    9  A    between atoms: C_13  and  C_19
REMARK   10  A    between atoms: C_14  and  C_16
REMARK   11  A    between atoms: C_14  and  C_17
REMARK   12  A    between atoms: C_21  and  C_23
REMARK                            x       y       z     vdW  Elec       q    Type
REMARK                         _______ _______ _______ _____ _____    ______ ____
ROOT
ATOM      1  C   UNL     1       0.921   0.035   6.440  0.00  0.00    +0.162 C 
ENDROOT
BRANCH   1   2
ATOM      2  C   UNL     1       0.075   1.050   5.714  0.00  0.00    +0.234 C 
ATOM      3  O   UNL     1      -0.518   1.903   6.340  0.00  0.00    -0.274 OA
ATOM      4  N   UNL     1      -0.021   1.009   4.371  0.00  0.00    -0.311 N 
ATOM      5  H   UNL     1       0.517   0.380   3.865  0.00  0.00    +0.149 HD
BRANCH   4   6
ATOM      6  C   UNL     1      -0.940   1.918   3.673  0.00  0.00    +0.070 C 
ATOM      7  C   UNL     1      -0.231   3.245   3.408  0.00  0.00    +0.009 C 
ATOM      8  C   UNL     1      -1.156   4.203   2.662  0.00  0.00    -0.072 C 
ATOM      9  C   UNL     1      -2.275   2.235   1.573  0.00  0.00    -0.072 C 
ATOM     10  C   UNL     1      -1.334   1.301   2.331  0.00  0.00    +0.009 C 
ATOM     11  C   UNL     1      -2.401   1.698   0.130  0.00  0.00    -0.010 C 
ATOM     12  C   UNL     1      -3.671   2.178   2.203  0.00  0.00    -0.010 C 
ATOM     13  C   UNL     1      -2.202   4.764   3.632  0.00  0.00    -0.010 C 
ATOM     14  C   UNL     1      -0.300   5.393   2.175  0.00  0.00    -0.010 C 
ATOM     15  N   UNL     1      -1.793   3.637   1.443  0.00  0.00    +0.386 N 
ATOM     16  H   UNL     1      -1.105   3.667   0.681  0.00  0.00    -0.084 HD
ATOM     17  H   UNL     1      -2.598   4.228   1.201  0.00  0.00    -0.084 HD
ENDBRANCH   4   6
ENDBRANCH   1   2
BRANCH   1  18
ATOM     18  N   UNL     1       0.914   0.330   7.875  0.00  0.00    -0.302 N 
ATOM     19  C   UNL     1       2.033   0.152   8.605  0.00  0.00    +0.243 C 
ATOM     20  O   UNL     1       3.069  -0.167   8.059  0.00  0.00    -0.273 OA
ATOM     21  H   UNL     1       0.105   0.655   8.300  0.00  0.00    +0.150 HD
BRANCH  19  22
ATOM     22  C   UNL     1       1.998   0.348  10.098  0.00  0.00    +0.244 C 
ATOM     23  C   UNL     1       1.594   1.767  10.411  0.00  0.00    +0.247 C 
ATOM     24  O   UNL     1       0.422   2.036  10.567  0.00  0.00    -0.273 OA
ATOM     25  N   UNL     1       2.519   2.738  10.518  0.00  0.00    -0.282 N 
ATOM     26  C   UNL     1       3.885   2.435  10.483  0.00  0.00    +0.055 A 
ATOM     27  C   UNL     1       4.829   3.444  10.379  0.00  0.00    +0.025 A 
ATOM     28  C   UNL     1       6.174   3.127  10.322  0.00  0.00    +0.002 A 
ATOM     29  C   UNL     1       6.583   1.806  10.371  0.00  0.00    +0.002 A 
ATOM     30  C   UNL     1       5.648   0.792  10.479  0.00  0.00    +0.025 A 
ATOM     31  C   UNL     1       4.301   1.104  10.539  0.00  0.00    +0.050 A 
ATOM     32  N   UNL     1       3.334   0.096  10.659  0.00  0.00    -0.324 N 
ATOM     33  H   UNL     1       2.236   3.660  10.622  0.00  0.00    +0.155 HD
ATOM     34  H   UNL     1       3.539  -0.743  11.099  0.00  0.00    +0.147 HD
ENDBRANCH  19  22
ENDBRANCH   1  18
BRANCH   1  35
ATOM     35  C   UNL     1       0.350  -1.365   6.205  0.00  0.00    +0.015 C 
ATOM     36  C   UNL     1       1.301  -2.409   6.796  0.00  0.00    +0.010 C 
BRANCH  35  38
ATOM     37  C   UNL     1      -2.019  -0.573   6.165  0.00  0.00    +0.004 C 
ATOM     38  C   UNL     1      -1.017  -1.479   6.883  0.00  0.00    +0.002 C 
ENDBRANCH  35  38
ENDBRANCH   1  35
TORSDOF 6
