REMARK  Name = ZINC21919514
REMARK  7 active torsions:
REMARK  status: ('A' for Active; 'I' for Inactive)
REMARK    1  A    between atoms: C_1  and  C_2
REMARK    2  A    between atoms: C_2  and  C_17
REMARK    3  A    between atoms: N_15  and  C_16
REMARK    4  A    between atoms: N_19  and  C_20
REMARK    5  A    between atoms: C_20  and  C_21
REMARK    6  A    between atoms: N_23  and  C_24
REMARK    7  A    between atoms: C_24  and  C_25
REMARK                            x       y       z     vdW  Elec       q    Type
REMARK                         _______ _______ _______ _____ _____    ______ ____
ROOT
ATOM      1  C   UNL     1       6.325   4.497   0.393  0.00  0.00    +0.239 C 
ATOM      2  O   UNL     1       6.672   5.195   1.322  0.00  0.00    -0.273 OA
ATOM      3  N   UNL     1       6.576   4.886  -0.873  0.00  0.00    -0.305 N 
ATOM      4  H   UNL     1       6.186   4.297  -1.717  0.00  0.00    +0.149 HD
ENDROOT
BRANCH   1   6
ATOM      5  C   UNL     1       5.832   2.796   2.115  0.00  0.00    +0.043 C 
ATOM      6  C   UNL     1       5.613   3.194   0.654  0.00  0.00    +0.128 C 
ATOM      7  C   UNL     1       4.117   3.393   0.416  0.00  0.00    +0.157 C 
ATOM      8  N   UNL     1       3.456   2.083   0.391  0.00  0.00    -0.334 N 
ATOM      9  C   UNL     1       2.181   1.743   0.741  0.00  0.00    +0.050 A 
ATOM     10  C   UNL     1       1.098   2.462   1.244  0.00  0.00    +0.026 A 
ATOM     11  C   UNL     1      -0.092   1.822   1.500  0.00  0.00    +0.002 A 
ATOM     12  C   UNL     1      -0.231   0.460   1.262  0.00  0.00    +0.001 A 
ATOM     13  C   UNL     1       0.814  -0.267   0.771  0.00  0.00    +0.010 A 
ATOM     14  C   UNL     1       2.037   0.359   0.504  0.00  0.00    +0.001 A 
ATOM     15  C   UNL     1       3.280  -0.111   0.005  0.00  0.00    +0.041 A 
ATOM     16  C   UNL     1       4.122   0.937  -0.039  0.00  0.00    +0.106 A 
ATOM     17  C   UNL     1       5.532   1.008  -0.470  0.00  0.00    +0.264 C 
ATOM     18  O   UNL     1       6.078   0.078  -1.031  0.00  0.00    -0.268 OA
ATOM     19  N   UNL     1       6.184   2.164  -0.206  0.00  0.00    -0.284 N 
ATOM     20  C   UNL     1       7.504   2.388  -0.802  0.00  0.00    +0.133 C 
ENDBRANCH   1   6
BRANCH   3  21
ATOM     21  C   UNL     1       7.366   6.093  -1.125  0.00  0.00    +0.200 C 
BRANCH  21  22
ATOM     22  C   UNL     1       7.500   6.305  -2.611  0.00  0.00    +0.230 C 
ATOM     23  O   UNL     1       6.985   5.524  -3.384  0.00  0.00    -0.274 OA
ATOM     24  N   UNL     1       8.191   7.361  -3.082  0.00  0.00    -0.310 N 
ATOM     25  H   UNL     1       8.658   8.069  -2.382  0.00  0.00    +0.149 HD
BRANCH  24  26
ATOM     26  C   UNL     1       8.321   7.567  -4.527  0.00  0.00    +0.139 C 
BRANCH  26  27
ATOM     27  C   UNL     1       9.135   8.809  -4.786  0.00  0.00    -0.030 A 
ATOM     28  C   UNL     1       8.506  10.034  -4.907  0.00  0.00    +0.006 A 
ATOM     29  C   UNL     1       9.252  11.174  -5.140  0.00  0.00    +0.020 A 
ATOM     30  C   UNL     1      10.627  11.087  -5.263  0.00  0.00    +0.041 A 
ATOM     31  C   UNL     1      11.255   9.860  -5.147  0.00  0.00    +0.020 A 
ATOM     32  C   UNL     1      10.509   8.722  -4.909  0.00  0.00    +0.006 A 
ATOM     33 CL   UNL     1      11.564  12.518  -5.562  0.00  0.00    -0.084 Cl
ENDBRANCH  26  27
ENDBRANCH  24  26
ENDBRANCH  21  22
ENDBRANCH   3  21
TORSDOF 5
