REMARK  Name = ZINC36586744
REMARK  14 active torsions:
REMARK  status: ('A' for Active; 'I' for Inactive)
REMARK    1  A    between atoms: C_1  and  C_2
REMARK    2  A    between atoms: C_5  and  S_8
REMARK    3  A    between atoms: S_8  and  C_11
REMARK    4  A    between atoms: C_11  and  N_12
REMARK    5  A    between atoms: C_13  and  C_15
REMARK    6  A    between atoms: C_15  and  C_17
REMARK    7  A    between atoms: C_15  and  N_22
REMARK    8  A    between atoms: N_22  and  C_33
REMARK    9  A    between atoms: C_23  and  C_25
REMARK   10  A    between atoms: C_26  and  O_32
REMARK   11  A    between atoms: C_30  and  O_31
REMARK   12  A    between atoms: C_33  and  C_34
REMARK   13  A    between atoms: C_33  and  C_35
REMARK   14  A    between atoms: C_33  and  C_36
REMARK                            x       y       z     vdW  Elec       q    Type
REMARK                         _______ _______ _______ _____ _____    ______ ____
ROOT
ATOM      1  C   UNL     1       4.345  -4.734   3.163  0.00  0.00    +0.229 C 
ENDROOT
BRANCH   1   2
ATOM      2  C   UNL     1       5.751  -4.542   3.669  0.00  0.00    +0.134 A 
ATOM      3  C   UNL     1       6.409  -3.371   3.738  0.00  0.00    +0.047 A 
ATOM      4  C   UNL     1       7.689  -3.651   4.269  0.00  0.00    +0.041 A 
ATOM      5  C   UNL     1       7.737  -4.976   4.493  0.00  0.00    +0.195 A 
ATOM      6  O   UNL     1       6.559  -5.510   4.133  0.00  0.00    -0.465 OA
ENDBRANCH   1   2
BRANCH   1   8
ATOM      7  N   UNL     1       5.305  -4.944   0.893  0.00  0.00    -0.294 N 
ATOM      8  C   UNL     1       4.386  -5.353   1.789  0.00  0.00    +0.242 C 
ATOM      9  O   UNL     1       3.591  -6.219   1.490  0.00  0.00    -0.273 OA
ATOM     10  H   UNL     1       5.941  -4.251   1.132  0.00  0.00    +0.150 HD
BRANCH   7  11
ATOM     11  C   UNL     1       5.345  -5.546  -0.442  0.00  0.00    +0.278 C 
BRANCH  11  12
ATOM     12  S   UNL     1       4.395  -4.518  -1.597  0.00  0.00    +0.013 S 
ATOM     13  O   UNL     1       3.137  -4.179  -1.029  0.00  0.00    -0.168 OA
ATOM     14  O   UNL     1       4.476  -5.055  -2.910  0.00  0.00    -0.168 OA
BRANCH  12  19
ATOM     15  C   UNL     1       7.412   0.700  -1.878  0.00  0.00    +0.044 C 
ATOM     16  C   UNL     1       6.658  -0.604  -1.808  0.00  0.00    -0.050 A 
ATOM     17  C   UNL     1       6.963  -1.626  -2.687  0.00  0.00    +0.005 A 
ATOM     18  C   UNL     1       6.271  -2.822  -2.622  0.00  0.00    +0.027 A 
ATOM     19  C   UNL     1       5.277  -2.995  -1.678  0.00  0.00    +0.090 A 
ATOM     20  C   UNL     1       4.973  -1.973  -0.799  0.00  0.00    +0.027 A 
ATOM     21  C   UNL     1       5.667  -0.779  -0.860  0.00  0.00    +0.005 A 
ENDBRANCH  12  19
ENDBRANCH  11  12
ENDBRANCH   7  11
ENDBRANCH   1   8
BRANCH   1  22
ATOM     22  N   UNL     1       3.614  -5.618   4.075  0.00  0.00    -0.274 N 
ATOM     23  C   UNL     1       2.613  -5.126   4.832  0.00  0.00    +0.255 C 
ATOM     24  O   UNL     1       2.358  -3.937   4.804  0.00  0.00    -0.270 OA
BRANCH  23  25
ATOM     25  C   UNL     1       1.829  -6.028   5.691  0.00  0.00    +0.119 A 
ATOM     26  C   UNL     1       2.269  -6.326   6.989  0.00  0.00    +0.133 A 
ATOM     27  C   UNL     1       1.523  -7.176   7.790  0.00  0.00    +0.046 A 
ATOM     28  C   UNL     1       0.349  -7.728   7.314  0.00  0.00    +0.007 A 
ATOM     29  C   UNL     1      -0.094  -7.441   6.036  0.00  0.00    +0.046 A 
ATOM     30  C   UNL     1       0.633  -6.590   5.221  0.00  0.00    +0.133 A 
BRANCH  30  31
ATOM     31  O   UNL     1       0.193  -6.305   3.969  0.00  0.00    -0.506 OA
ATOM     32  H   UNL     1       0.427  -6.971   3.309  0.00  0.00    +0.292 HD
ENDBRANCH  30  31
BRANCH  26  33
ATOM     33  O   UNL     1       3.421  -5.785   7.458  0.00  0.00    -0.506 OA
ATOM     34  H   UNL     1       3.304  -4.937   7.907  0.00  0.00    +0.292 HD
ENDBRANCH  26  33
ENDBRANCH  23  25
BRANCH  22  35
ATOM     35  C   UNL     1       3.971  -7.036   4.164  0.00  0.00    +0.030 C 
ATOM     36  C   UNL     1       4.616  -7.314   5.524  0.00  0.00    +0.031 C 
ATOM     37  C   UNL     1       2.711  -7.890   4.013  0.00  0.00    +0.031 C 
ATOM     38  C   UNL     1       4.960  -7.384   3.050  0.00  0.00    +0.031 C 
ENDBRANCH  22  35
ENDBRANCH   1  22
TORSDOF 10
