REMARK  Name = ZINC39601231
REMARK  9 active torsions:
REMARK  status: ('A' for Active; 'I' for Inactive)
REMARK    1  A    between atoms: C_1  and  C_2
REMARK    2  A    between atoms: C_2  and  C_3
REMARK    3  A    between atoms: C_2  and  C_4
REMARK    4  A    between atoms: C_4  and  C_5
REMARK    5  A    between atoms: C_5  and  N_6
REMARK    6  A    between atoms: C_7  and  C_9
REMARK    7  A    between atoms: C_20  and  C_22
REMARK    8  A    between atoms: C_22  and  O_23
REMARK    9  A    between atoms: O_23  and  C_24
REMARK                            x       y       z     vdW  Elec       q    Type
REMARK                         _______ _______ _______ _____ _____    ______ ____
ROOT
ATOM      1  C   UNL     1      -5.737  -0.925  -2.313  0.00  0.00    +0.100 C 
ATOM      2  C   UNL     1      -5.741  -2.468  -2.397  0.00  0.00    +0.121 C 
ATOM      3  N   UNL     1      -6.905  -2.793  -3.254  0.00  0.00    -0.297 N 
ATOM      4  C   UNL     1      -6.887  -1.752  -4.310  0.00  0.00    +0.115 C 
ATOM      5  C   UNL     1      -6.489  -0.459  -3.571  0.00  0.00    -0.004 C 
ATOM      6  C   UNL     1      -5.574   0.389  -4.450  0.00  0.00    -0.010 C 
ATOM      7  C   UNL     1      -6.361   0.889  -5.665  0.00  0.00    -0.082 C 
ATOM      8  N   UNL     1      -7.512   1.681  -5.213  0.00  0.00    +0.379 N 
ATOM      9  C   UNL     1      -8.433   0.833  -4.447  0.00  0.00    -0.082 C 
ATOM     10  C   UNL     1      -7.734   0.331  -3.181  0.00  0.00    -0.010 C 
ATOM     11  C   UNL     1      -7.782  -3.805  -3.107  0.00  0.00    +0.253 C 
ATOM     12  O   UNL     1      -8.691  -3.941  -3.900  0.00  0.00    -0.272 OA
ATOM     13  H   UNL     1      -7.189   2.438  -4.630  0.00  0.00    -0.086 HD
ATOM     14  H   UNL     1      -7.993   2.059  -6.015  0.00  0.00    -0.086 HD
ENDROOT
BRANCH   1  16
ATOM     15  N   UNL     1      -4.029   0.761  -1.711  0.00  0.00    -0.315 N 
ATOM     16  C   UNL     1      -4.323  -0.403  -2.324  0.00  0.00    +0.218 C 
ATOM     17  O   UNL     1      -3.449  -1.031  -2.884  0.00  0.00    -0.275 OA
ATOM     18  H   UNL     1      -4.728   1.263  -1.263  0.00  0.00    +0.149 HD
BRANCH  15  19
ATOM     19  C   UNL     1      -2.655   1.268  -1.722  0.00  0.00    +0.104 C 
BRANCH  19  20
ATOM     20  C   UNL     1      -2.595   2.595  -0.962  0.00  0.00    +0.022 C 
BRANCH  20  22
ATOM     21  C   UNL     1      -0.751   3.461  -2.408  0.00  0.00    +0.007 C 
ATOM     22  C   UNL     1      -1.159   3.124  -0.973  0.00  0.00    -0.016 C 
ATOM     23  C   UNL     1      -1.074   4.384  -0.109  0.00  0.00    +0.007 C 
ENDBRANCH  20  22
ENDBRANCH  19  20
ENDBRANCH  15  19
ENDBRANCH   1  16
BRANCH  11  24
ATOM     24  C   UNL     1      -7.635  -4.769  -1.958  0.00  0.00    +0.324 C 
BRANCH  24  25
ATOM     25  O   UNL     1      -8.677  -5.745  -2.018  0.00  0.00    -0.483 OA
BRANCH  25  26
ATOM     26  C   UNL     1      -8.689  -6.696  -1.047  0.00  0.00    +0.123 A 
ATOM     27  C   UNL     1      -7.721  -6.686  -0.053  0.00  0.00    +0.046 A 
ATOM     28  C   UNL     1      -7.734  -7.652   0.933  0.00  0.00    +0.005 A 
ATOM     29  C   UNL     1      -8.712  -8.630   0.931  0.00  0.00    +0.020 A 
ATOM     30  C   UNL     1      -9.679  -8.643  -0.059  0.00  0.00    +0.044 A 
ATOM     31  C   UNL     1      -9.672  -7.674  -1.045  0.00  0.00    +0.065 A 
ATOM     32 CL   UNL     1     -10.905  -9.872  -0.058  0.00  0.00    -0.083 Cl
ENDBRANCH  25  26
ENDBRANCH  24  25
ENDBRANCH  11  24
TORSDOF 7
