REMARK  Name = ZINC09224432
REMARK  8 active torsions:
REMARK  status: ('A' for Active; 'I' for Inactive)
REMARK    1  A    between atoms: C_1  and  C_2
REMARK    2  A    between atoms: C_5  and  N_8
REMARK    3  A    between atoms: C_9  and  C_35
REMARK    4  A    between atoms: C_11  and  C_34
REMARK    5  A    between atoms: C_21  and  C_24
REMARK    6  A    between atoms: N_26  and  C_27
REMARK    7  A    between atoms: C_27  and  C_28
REMARK    8  A    between atoms: C_28  and  C_29
REMARK                            x       y       z     vdW  Elec       q    Type
REMARK                         _______ _______ _______ _____ _____    ______ ____
ROOT
ATOM      1  N   UNL     1       1.471  -2.123   0.287  0.00  0.00    -0.236 N 
ATOM      2  C   UNL     1       2.409  -2.888  -0.300  0.00  0.00    +0.051 A 
ATOM      3  C   UNL     1       2.064  -4.206  -0.102  0.00  0.00    +0.049 A 
ATOM      4  C   UNL     1       2.595  -5.469  -0.444  0.00  0.00    +0.072 A 
ATOM      5  N   UNL     1       1.968  -6.555  -0.069  0.00  0.00    -0.152 NA
ATOM      6  N   UNL     1       0.880  -6.580   0.601  0.00  0.00    -0.132 NA
ATOM      7  C   UNL     1       0.240  -5.501   1.009  0.00  0.00    +0.172 A 
ATOM      8  C   UNL     1       0.808  -4.196   0.673  0.00  0.00    +0.137 A 
ATOM      9  N   UNL     1       0.500  -2.937   0.885  0.00  0.00    -0.163 NA
ATOM     10  N   UNL     1      -0.937  -5.601   1.734  0.00  0.00    -0.311 N 
ATOM     11  C   UNL     1      -0.833  -4.881   3.009  0.00  0.00    +0.106 C 
ATOM     12  C   UNL     1      -2.191  -4.890   3.714  0.00  0.00    +0.020 C 
ATOM     13  C   UNL     1      -2.625  -6.338   3.958  0.00  0.00    +0.016 C 
ATOM     14  C   UNL     1      -2.679  -7.079   2.619  0.00  0.00    +0.092 C 
ATOM     15  C   UNL     1      -1.306  -7.006   1.945  0.00  0.00    +0.119 C 
ATOM     16  C   UNL     1       3.874  -5.566  -1.235  0.00  0.00    +0.068 C 
ATOM     17  C   UNL     1       3.622  -2.389  -1.042  0.00  0.00    +0.066 C 
ENDROOT
BRANCH   1  22
ATOM     18  C   UNL     1       1.464   3.551   0.358  0.00  0.00    +0.044 C 
ATOM     19  C   UNL     1       1.466   2.044   0.339  0.00  0.00    -0.050 A 
ATOM     20  C   UNL     1       0.270   1.353   0.261  0.00  0.00    +0.005 A 
ATOM     21  C   UNL     1       0.269  -0.028   0.243  0.00  0.00    +0.028 A 
ATOM     22  C   UNL     1       1.470  -0.723   0.305  0.00  0.00    +0.066 A 
ATOM     23  C   UNL     1       2.668  -0.026   0.383  0.00  0.00    +0.028 A 
ATOM     24  C   UNL     1       2.663   1.355   0.400  0.00  0.00    +0.005 A 
ENDBRANCH   1  22
BRANCH  14  25
ATOM     25  C   UNL     1      -3.048  -8.521   2.855  0.00  0.00    +0.218 C 
ATOM     26  O   UNL     1      -2.288  -9.404   2.519  0.00  0.00    -0.275 OA
ATOM     27  N   UNL     1      -4.222  -8.828   3.441  0.00  0.00    -0.315 N 
ATOM     28  H   UNL     1      -4.830  -8.122   3.710  0.00  0.00    +0.149 HD
BRANCH  27  29
ATOM     29  C   UNL     1      -4.580 -10.230   3.671  0.00  0.00    +0.109 C 
BRANCH  29  30
ATOM     30  C   UNL     1      -5.953 -10.301   4.344  0.00  0.00    +0.061 C 
BRANCH  30  31
ATOM     31  C   UNL     1      -6.322 -11.743   4.581  0.00  0.00    -0.009 A 
ATOM     32  C   UNL     1      -6.069 -12.523   5.661  0.00  0.00    +0.011 A 
ATOM     33  C   UNL     1      -6.508 -13.833   5.659  0.00  0.00    +0.008 A 
ATOM     34  C   UNL     1      -7.179 -14.300   4.577  0.00  0.00    +0.045 A 
ATOM     35  S   UNL     1      -7.212 -12.865   3.515  0.00  0.00    -0.102 S 
ENDBRANCH  30  31
ENDBRANCH  29  30
ENDBRANCH  27  29
ENDBRANCH  14  25
TORSDOF 5
