REMARK  Name = ZINC39916224
REMARK  12 active torsions:
REMARK  status: ('A' for Active; 'I' for Inactive)
REMARK    1  A    between atoms: C_1  and  C_2
REMARK    2  A    between atoms: C_2  and  C_4
REMARK    3  A    between atoms: C_2  and  C_34
REMARK    4  A    between atoms: C_4  and  O_5
REMARK    5  A    between atoms: O_5  and  C_6
REMARK    6  A    between atoms: C_6  and  C_7
REMARK    7  A    between atoms: C_7  and  C_9
REMARK    8  A    between atoms: C_7  and  O_33
REMARK    9  A    between atoms: C_9  and  N_10
REMARK   10  A    between atoms: N_13  and  C_16
REMARK   11  A    between atoms: C_16  and  C_17
REMARK   12  A    between atoms: C_17  and  N_18
REMARK                            x       y       z     vdW  Elec       q    Type
REMARK                         _______ _______ _______ _____ _____    ______ ____
ROOT
ATOM      1  N   UNL     1      -0.366  -0.065   7.262  0.00  0.00    -0.303 NA
ATOM      2  C   UNL     1      -0.484   1.399   7.313  0.00  0.00    +0.066 C 
ATOM      3  C   UNL     1      -1.403   1.794   8.472  0.00  0.00    -0.063 C 
ATOM      4  N   UNL     1      -0.847   1.286   9.733  0.00  0.00    +0.382 N 
ATOM      5  C   UNL     1      -0.758  -0.179   9.676  0.00  0.00    -0.063 C 
ATOM      6  C   UNL     1       0.167  -0.590   8.528  0.00  0.00    +0.066 C 
ATOM      7  H   UNL     1       0.074   1.674   9.874  0.00  0.00    -0.082 HD
ENDROOT
BRANCH   1   8
ATOM      8  C   UNL     1       0.465  -0.486   6.126  0.00  0.00    +0.117 C 
BRANCH   8   9
ATOM      9  C   UNL     1      -0.246  -0.138   4.817  0.00  0.00    +0.154 C 
BRANCH   9  10
ATOM     10  O   UNL     1      -1.504  -0.814   4.765  0.00  0.00    -0.388 OA
ATOM     11  H   UNL     1      -1.435  -1.778   4.804  0.00  0.00    +0.210 HD
ENDBRANCH   9  10
BRANCH   9  12
ATOM     12  C   UNL     1       0.619  -0.578   3.634  0.00  0.00    +0.192 C 
BRANCH  12  13
ATOM     13  O   UNL     1       0.010  -0.149   2.414  0.00  0.00    -0.377 OA
BRANCH  13  14
ATOM     14  C   UNL     1       0.742  -0.511   1.242  0.00  0.00    +0.167 C 
BRANCH  14  16
ATOM     15  C   UNL     1      -0.019   1.526   0.010  0.00  0.00    +0.015 C 
ATOM     16  C   UNL     1       0.002  -0.004   0.002  0.00  0.00    +0.042 C 
BRANCH  16  17
ATOM     17  C   UNL     1       0.707  -0.490  -1.238  0.00  0.00    -0.042 A 
ATOM     18  C   UNL     1       2.026  -0.142  -1.464  0.00  0.00    +0.004 A 
ATOM     19  C   UNL     1       2.673  -0.587  -2.602  0.00  0.00    +0.000 A 
ATOM     20  C   UNL     1       2.002  -1.382  -3.512  0.00  0.00    +0.000 A 
ATOM     21  C   UNL     1       0.684  -1.731  -3.285  0.00  0.00    +0.000 A 
ATOM     22  C   UNL     1       0.038  -1.289  -2.146  0.00  0.00    +0.004 A 
ENDBRANCH  16  17
ENDBRANCH  14  16
ENDBRANCH  13  14
ENDBRANCH  12  13
ENDBRANCH   9  12
ENDBRANCH   8   9
ENDBRANCH   1   8
BRANCH   4  23
ATOM     23  C   UNL     1      -1.720   1.681  10.847  0.00  0.00    -0.059 C 
BRANCH  23  24
ATOM     24  C   UNL     1      -1.079   1.261  12.171  0.00  0.00    +0.098 C 
BRANCH  24  25
ATOM     25  N   UNL     1      -1.949   1.654  13.281  0.00  0.00    -0.236 N 
ATOM     26  C   UNL     1      -1.787   2.872  13.832  0.00  0.00    +0.254 C 
ATOM     27  O   UNL     1      -0.928   3.619  13.405  0.00  0.00    -0.270 OA
ATOM     28  C   UNL     1      -2.642   3.303  14.948  0.00  0.00    +0.046 A 
ATOM     29  C   UNL     1      -2.509   4.547  15.545  0.00  0.00    +0.014 A 
ATOM     30  C   UNL     1      -3.342   4.909  16.598  0.00  0.00    +0.001 A 
ATOM     31  C   UNL     1      -4.303   4.064  17.073  0.00  0.00    +0.008 A 
ATOM     32  C   UNL     1      -4.471   2.793  16.495  0.00  0.00    -0.016 A 
ATOM     33  C   UNL     1      -3.632   2.414  15.426  0.00  0.00    +0.006 A 
ATOM     34  C   UNL     1      -3.775   1.143  14.825  0.00  0.00    +0.046 A 
ATOM     35  C   UNL     1      -4.750   0.279  15.301  0.00  0.00    +0.014 A 
ATOM     36  C   UNL     1      -5.570   0.664  16.355  0.00  0.00    +0.001 A 
ATOM     37  C   UNL     1      -5.446   1.888  16.948  0.00  0.00    +0.008 A 
ATOM     38  C   UNL     1      -2.886   0.786  13.709  0.00  0.00    +0.254 C 
ATOM     39  O   UNL     1      -2.994  -0.300  13.174  0.00  0.00    -0.270 OA
ENDBRANCH  24  25
ENDBRANCH  23  24
ENDBRANCH   4  23
TORSDOF 11
