REMARK  Name = ZINC10245558
REMARK  9 active torsions:
REMARK  status: ('A' for Active; 'I' for Inactive)
REMARK    1  A    between atoms: C_1  and  C_2
REMARK    2  A    between atoms: C_2  and  C_3
REMARK    3  A    between atoms: C_6  and  N_9
REMARK    4  A    between atoms: C_10  and  C_12
REMARK    5  A    between atoms: C_13  and  N_21
REMARK    6  A    between atoms: C_22  and  C_24
REMARK    7  A    between atoms: N_29  and  C_31
REMARK    8  A    between atoms: C_34  and  C_38
REMARK    9  A    between atoms: C_35  and  C_37
REMARK                            x       y       z     vdW  Elec       q    Type
REMARK                         _______ _______ _______ _____ _____    ______ ____
ROOT
ATOM      1  C   UNL     1      -5.362   0.460  -4.772  0.00  0.00    +0.212 A 
ATOM      2  C   UNL     1      -5.669  -0.529  -3.878  0.00  0.00    +0.092 A 
ATOM      3  C   UNL     1      -6.279  -1.607  -4.665  0.00  0.00    +0.042 A 
ATOM      4  C   UNL     1      -6.803  -2.861  -4.350  0.00  0.00    +0.013 A 
ATOM      5  C   UNL     1      -7.313  -3.651  -5.342  0.00  0.00    +0.001 A 
ATOM      6  C   UNL     1      -7.314  -3.213  -6.659  0.00  0.00    +0.004 A 
ATOM      7  C   UNL     1      -6.802  -1.977  -6.989  0.00  0.00    +0.047 A 
ATOM      8  C   UNL     1      -6.277  -1.157  -5.996  0.00  0.00    +0.138 A 
ATOM      9  O   UNL     1      -5.721   0.071  -6.016  0.00  0.00    -0.448 OA
ENDROOT
BRANCH   1  11
ATOM     10  N   UNL     1      -4.388   2.596  -5.414  0.00  0.00    -0.279 N 
ATOM     11  C   UNL     1      -4.737   1.738  -4.435  0.00  0.00    +0.285 C 
ATOM     12  O   UNL     1      -4.533   2.027  -3.270  0.00  0.00    -0.266 OA
ATOM     13  H   UNL     1      -4.618   2.399  -6.336  0.00  0.00    +0.155 HD
BRANCH  10  17
ATOM     14  C   UNL     1      -2.325   6.091  -4.482  0.00  0.00    -0.048 A 
ATOM     15  C   UNL     1      -2.091   4.938  -3.756  0.00  0.00    +0.005 A 
ATOM     16  C   UNL     1      -2.773   3.777  -4.062  0.00  0.00    +0.023 A 
ATOM     17  C   UNL     1      -3.696   3.769  -5.101  0.00  0.00    +0.034 A 
ATOM     18  C   UNL     1      -3.924   4.928  -5.832  0.00  0.00    +0.023 A 
ATOM     19  C   UNL     1      -3.242   6.087  -5.516  0.00  0.00    +0.005 A 
BRANCH  14  21
ATOM     20  C   UNL     1      -0.281   7.415  -4.953  0.00  0.00    +0.009 C 
ATOM     21  C   UNL     1      -1.578   7.356  -4.144  0.00  0.00    +0.032 C 
ENDBRANCH  14  21
ENDBRANCH  10  17
ENDBRANCH   1  11
BRANCH   2  22
ATOM     22  N   UNL     1      -5.452  -0.513  -2.505  0.00  0.00    -0.282 N 
ATOM     23  C   UNL     1      -5.244  -1.667  -1.842  0.00  0.00    +0.222 C 
ATOM     24  O   UNL     1      -5.155  -2.711  -2.454  0.00  0.00    -0.275 OA
ATOM     25  H   UNL     1      -5.452   0.330  -2.023  0.00  0.00    +0.155 HD
BRANCH  23  26
ATOM     26  C   UNL     1      -5.120  -1.663  -0.340  0.00  0.00    +0.102 C 
ATOM     27  C   UNL     1      -6.419  -1.144   0.320  0.00  0.00    +0.110 C 
ATOM     28  C   UNL     1      -7.217  -2.398   0.603  0.00  0.00    +0.221 C 
ATOM     29  O   UNL     1      -8.403  -2.424   0.857  0.00  0.00    -0.275 OA
ATOM     30  N   UNL     1      -6.422  -3.479   0.530  0.00  0.00    -0.271 N 
ATOM     31  C   UNL     1      -5.038  -3.103   0.219  0.00  0.00    +0.127 C 
BRANCH  30  32
ATOM     32  C   UNL     1      -6.856  -4.794   0.732  0.00  0.00    +0.037 A 
ATOM     33  C   UNL     1      -5.983  -5.854   0.525  0.00  0.00    +0.024 A 
ATOM     34  C   UNL     1      -6.416  -7.151   0.720  0.00  0.00    +0.005 A 
ATOM     35  C   UNL     1      -7.716  -7.394   1.125  0.00  0.00    -0.047 A 
ATOM     36  C   UNL     1      -8.586  -6.340   1.338  0.00  0.00    -0.046 A 
ATOM     37  C   UNL     1      -8.158  -5.041   1.145  0.00  0.00    +0.027 A 
ATOM     38  C   UNL     1     -10.001  -6.609   1.780  0.00  0.00    +0.044 C 
ATOM     39  C   UNL     1      -8.186  -8.810   1.336  0.00  0.00    +0.044 C 
ENDBRANCH  30  32
ENDBRANCH  23  26
ENDBRANCH   2  22
TORSDOF 6
