REMARK  Name = ZINC00564055
REMARK  4 active torsions:
REMARK  status: ('A' for Active; 'I' for Inactive)
REMARK    1  A    between atoms: C_1  and  O_2
REMARK    2  A    between atoms: O_2  and  C_3
REMARK    3  A    between atoms: C_7  and  C_10
REMARK    4  A    between atoms: C_8  and  O_9
REMARK                            x       y       z     vdW  Elec       q    Type
REMARK                         _______ _______ _______ _____ _____    ______ ____
ROOT
ATOM      1  C   UNL     1      -2.567  -4.147   0.016  0.00  0.00    +0.146 A 
ATOM      2  N   UNL     1      -3.788  -4.764   0.018  0.00  0.00    -0.306 N 
ATOM      3  H   UNL     1      -4.594  -4.225   0.021  0.00  0.00    +0.170 HD
ATOM      4  C   UNL     1      -3.890  -6.106   0.017  0.00  0.00    +0.260 A 
ATOM      5  O   UNL     1      -4.985  -6.643   0.018  0.00  0.00    -0.267 OA
ATOM      6  C   UNL     1      -2.694  -6.895   0.013  0.00  0.00    +0.075 A 
ATOM      7  C   UNL     1      -2.570  -8.352   0.012  0.00  0.00    -0.023 A 
ATOM      8  C   UNL     1      -1.319  -8.861   0.009  0.00  0.00    -0.004 A 
ATOM      9  S   UNL     1      -0.248  -7.449   0.005  0.00  0.00    -0.073 S 
ATOM     10  C   UNL     1      -1.486  -6.176   0.011  0.00  0.00    +0.116 A 
ATOM     11  N   UNL     1      -1.454  -4.850   0.007  0.00  0.00    -0.222 NA
ATOM     12  C   UNL     1      -0.928 -10.307   0.008  0.00  0.00    +0.043 C 
ATOM     13  C   UNL     1      -2.159 -11.142   0.389  0.00  0.00    +0.005 C 
ATOM     14  C   UNL     1      -3.352 -10.666  -0.445  0.00  0.00    +0.005 C 
ATOM     15  C   UNL     1      -3.786  -9.274   0.015  0.00  0.00    +0.037 C 
ENDROOT
BRANCH   1  20
ATOM     16  C   UNL     1      -1.201  -0.638   0.010  0.00  0.00    +0.162 A 
ATOM     17  C   UNL     1      -2.373   0.101   0.019  0.00  0.00    +0.049 A 
ATOM     18  C   UNL     1      -3.602  -0.538   0.027  0.00  0.00    +0.004 A 
ATOM     19  C   UNL     1      -3.671  -1.914   0.026  0.00  0.00    +0.015 A 
ATOM     20  C   UNL     1      -2.498  -2.673   0.017  0.00  0.00    +0.062 A 
ATOM     21  C   UNL     1      -1.255  -2.027   0.003  0.00  0.00    +0.169 A 
BRANCH  16  23
ATOM     22  C   UNL     1      -0.017   1.425   0.010  0.00  0.00    +0.277 C 
ATOM     23  O   UNL     1       0.002  -0.004   0.002  0.00  0.00    -0.491 OA
ENDBRANCH  16  23
BRANCH  21  24
ATOM     24  O   UNL     1      -0.108  -2.755  -0.011  0.00  0.00    -0.503 OA
ATOM     25  H   UNL     1       0.232  -2.970   0.868  0.00  0.00    +0.292 HD
ENDBRANCH  21  24
ENDBRANCH   1  20
TORSDOF 3
