REMARK  Name = ZINC12965084
REMARK  4 active torsions:
REMARK  status: ('A' for Active; 'I' for Inactive)
REMARK    1  A    between atoms: C_1  and  C_2
REMARK    2  A    between atoms: C_9  and  S_11
REMARK    3  A    between atoms: S_11  and  C_12
REMARK    4  A    between atoms: N_21  and  O_22
REMARK                            x       y       z     vdW  Elec       q    Type
REMARK                         _______ _______ _______ _____ _____    ______ ____
ROOT
ATOM      1  S   UNL     1       0.096  -5.820   2.394  0.00  0.00    -0.078 S 
ENDROOT
BRANCH   1  10
ATOM      2  C   UNL     1      -0.018   1.503   0.010  0.00  0.00    +0.044 C 
ATOM      3  C   UNL     1       0.002  -0.004   0.002  0.00  0.00    -0.048 A 
ATOM      4  C   UNL     1       0.006  -0.686  -1.206  0.00  0.00    +0.005 A 
ATOM      5  C   UNL     1       0.024  -2.063  -1.230  0.00  0.00    +0.030 A 
ATOM      6  C   UNL     1       0.040  -2.778  -0.030  0.00  0.00    +0.090 A 
ATOM      7  C   UNL     1       0.037  -2.082   1.190  0.00  0.00    +0.067 A 
ATOM      8  C   UNL     1       0.023  -0.696   1.196  0.00  0.00    +0.031 A 
ATOM      9  N   UNL     1       0.055  -3.047   2.184  0.00  0.00    -0.333 N 
ATOM     10  C   UNL     1       0.069  -4.265   1.566  0.00  0.00    +0.168 A 
ATOM     11  N   UNL     1       0.060  -4.104   0.266  0.00  0.00    -0.222 NA
ATOM     12  H   UNL     1       0.058  -2.887   3.141  0.00  0.00    +0.168 HD
ENDBRANCH   1  10
BRANCH   1  13
ATOM     13  C   UNL     1       0.105  -7.035   1.047  0.00  0.00    +0.102 C 
ATOM     14  C   UNL     1       0.007  -8.437   1.626  0.00  0.00    +0.020 C 
ATOM     15  C   UNL     1      -0.299  -9.433   0.490  0.00  0.00    +0.001 C 
ATOM     16  C   UNL     1       0.980  -9.718  -0.289  0.00  0.00    +0.000 C 
ATOM     17  C   UNL     1       0.878  -9.187  -1.731  0.00  0.00    +0.000 C 
ATOM     18  C   UNL     1       0.284  -7.781  -1.740  0.00  0.00    +0.006 C 
ATOM     19  C   UNL     1       1.331  -6.780  -1.224  0.00  0.00    +0.055 C 
ATOM     20  C   UNL     1       1.391  -6.910   0.263  0.00  0.00    +0.071 C 
ATOM     21  N   UNL     1       2.520  -6.916   0.866  0.00  0.00    -0.095 NA
BRANCH  21  22
ATOM     22  O   UNL     1       3.720  -6.799   0.123  0.00  0.00    -0.409 OA
ATOM     23  H   UNL     1       4.521  -6.813   0.664  0.00  0.00    +0.328 HD
ENDBRANCH  21  22
ENDBRANCH   1  13
TORSDOF 3
