REMARK  Name = ZINC46914551
REMARK  13 active torsions:
REMARK  status: ('A' for Active; 'I' for Inactive)
REMARK    1  A    between atoms: C_1  and  C_2
REMARK    2  A    between atoms: C_5  and  O_33
REMARK    3  A    between atoms: C_6  and  N_8
REMARK    4  A    between atoms: C_9  and  C_11
REMARK    5  A    between atoms: C_11  and  N_12
REMARK    6  A    between atoms: C_13  and  N_32
REMARK    7  A    between atoms: C_14  and  C_19
REMARK    8  A    between atoms: C_15  and  S_17
REMARK    9  A    between atoms: S_17  and  C_18
REMARK   10  A    between atoms: C_21  and  C_24
REMARK   11  A    between atoms: C_27  and  O_30
REMARK   12  A    between atoms: O_30  and  C_31
REMARK   13  A    between atoms: O_33  and  C_34
REMARK                            x       y       z     vdW  Elec       q    Type
REMARK                         _______ _______ _______ _____ _____    ______ ____
ROOT
ATOM      1  N   UNL     1       0.369  -1.951   5.978  0.00  0.00    -0.240 N 
ATOM      2  C   UNL     1       1.508  -1.425   6.474  0.00  0.00    +0.129 A 
ATOM      3  C   UNL     1       1.151  -0.583   7.522  0.00  0.00    +0.112 A 
ATOM      4  C   UNL     1      -0.263  -0.630   7.630  0.00  0.00    +0.133 A 
ATOM      5  N   UNL     1      -0.712  -1.440   6.705  0.00  0.00    -0.162 NA
ENDROOT
BRANCH   3   6
ATOM      6  C   UNL     1       2.066   0.206   8.360  0.00  0.00    +0.265 A 
ATOM      7  N   UNL     1       1.716   0.996   9.353  0.00  0.00    -0.187 NA
ATOM      8  C   UNL     1       2.808   1.557   9.896  0.00  0.00    +0.202 A 
ATOM      9  N   UNL     1       3.868   1.130   9.254  0.00  0.00    -0.056 NA
ATOM     10  O   UNL     1       3.407   0.241   8.248  0.00  0.00    -0.332 OA
BRANCH   8  11
ATOM     11  C   UNL     1       2.813   2.506  11.037  0.00  0.00    +0.023 A 
ATOM     12  C   UNL     1       1.614   2.879  11.640  0.00  0.00    +0.015 A 
ATOM     13  C   UNL     1       1.622   3.761  12.700  0.00  0.00    +0.046 A 
ATOM     14  C   UNL     1       2.824   4.277  13.166  0.00  0.00    +0.120 A 
ATOM     15  C   UNL     1       4.021   3.907  12.567  0.00  0.00    +0.046 A 
ATOM     16  C   UNL     1       4.019   3.021  11.510  0.00  0.00    +0.015 A 
BRANCH  14  17
ATOM     17  O   UNL     1       2.829   5.146  14.210  0.00  0.00    -0.495 OA
ATOM     18  C   UNL     1       4.101   5.638  14.639  0.00  0.00    +0.277 C 
ENDBRANCH  14  17
ENDBRANCH   8  11
ENDBRANCH   3   6
BRANCH   2  19
ATOM     19  N   UNL     1       2.791  -1.677   6.025  0.00  0.00    -0.343 N 
ATOM     20  H   UNL     1       2.934  -2.285   5.283  0.00  0.00    +0.144 HD
ATOM     21  H   UNL     1       3.548  -1.247   6.452  0.00  0.00    +0.144 HD
ENDBRANCH   2  19
BRANCH   4  22
ATOM     22  S   UNL     1      -1.242   0.252   8.798  0.00  0.00    -0.107 S 
ATOM     23  C   UNL     1      -2.943  -0.241   8.406  0.00  0.00    +0.091 C 
ENDBRANCH   4  22
BRANCH   1  24
ATOM     24  C   UNL     1       0.279  -2.894   4.860  0.00  0.00    +0.241 C 
BRANCH  24  26
ATOM     25  N   UNL     1       0.050  -2.795   2.399  0.00  0.00    -0.281 N 
ATOM     26  C   UNL     1       0.149  -2.130   3.568  0.00  0.00    +0.239 C 
ATOM     27  O   UNL     1       0.134  -0.917   3.579  0.00  0.00    -0.273 OA
ATOM     28  H   UNL     1      -0.018  -3.762   2.396  0.00  0.00    +0.155 HD
BRANCH  25  34
ATOM     29  C   UNL     1       1.263   1.227  -0.157  0.00  0.00    +0.044 C 
ATOM     30  C   UNL     1       0.627  -0.137  -0.079  0.00  0.00    -0.048 A 
ATOM     31  C   UNL     1       0.040  -0.689  -1.202  0.00  0.00    +0.007 A 
ATOM     32  C   UNL     1      -0.546  -1.940  -1.136  0.00  0.00    +0.048 A 
ATOM     33  C   UNL     1      -0.545  -2.643   0.058  0.00  0.00    +0.141 A 
ATOM     34  C   UNL     1       0.047  -2.088   1.189  0.00  0.00    +0.076 A 
ATOM     35  C   UNL     1       0.637  -0.835   1.114  0.00  0.00    +0.030 A 
BRANCH  33  36
ATOM     36  O   UNL     1      -1.121  -3.873   0.124  0.00  0.00    -0.493 OA
ATOM     37  C   UNL     1      -1.709  -4.380  -1.076  0.00  0.00    +0.277 C 
ENDBRANCH  33  36
ENDBRANCH  25  34
ENDBRANCH  24  26
ENDBRANCH   1  24
TORSDOF 9
