REMARK  Name = ZINC64289768
REMARK  10 active torsions:
REMARK  status: ('A' for Active; 'I' for Inactive)
REMARK    1  A    between atoms: C_1  and  C_2
REMARK    2  A    between atoms: C_2  and  C_3
REMARK    3  A    between atoms: C_3  and  C_4
REMARK    4  A    between atoms: C_4  and  C_5
REMARK    5  A    between atoms: C_4  and  N_23
REMARK    6  A    between atoms: N_7  and  C_8
REMARK    7  A    between atoms: C_11  and  S_14
REMARK    8  A    between atoms: S_14  and  C_15
REMARK    9  A    between atoms: C_17  and  C_22
REMARK   10  A    between atoms: C_19  and  C_21
REMARK                            x       y       z     vdW  Elec       q    Type
REMARK                         _______ _______ _______ _____ _____    ______ ____
ROOT
ATOM      1  C   UNL     1      -3.249  -1.077  -1.731  0.00  0.00    +0.238 C 
ATOM      2  O   UNL     1      -4.092  -0.425  -2.312  0.00  0.00    -0.273 OA
ATOM      3  N   UNL     1      -3.575  -2.263  -1.180  0.00  0.00    -0.284 N 
ATOM      4  H   UNL     1      -2.889  -2.814  -0.775  0.00  0.00    +0.155 HD
ENDROOT
BRANCH   3   5
ATOM      5  C   UNL     1      -4.907  -2.699  -1.194  0.00  0.00    +0.034 A 
ATOM      6  C   UNL     1      -5.412  -3.421  -0.120  0.00  0.00    +0.024 A 
ATOM      7  C   UNL     1      -6.723  -3.851  -0.133  0.00  0.00    +0.017 A 
ATOM      8  C   UNL     1      -7.539  -3.560  -1.220  0.00  0.00    +0.016 A 
ATOM      9  C   UNL     1      -7.034  -2.837  -2.293  0.00  0.00    +0.017 A 
ATOM     10  C   UNL     1      -5.723  -2.403  -2.277  0.00  0.00    +0.024 A 
BRANCH   8  11
ATOM     11  S   UNL     1      -9.213  -4.109  -1.237  0.00  0.00    -0.050 S 
BRANCH  11  12
ATOM     12  C   UNL     1     -10.120  -2.729  -0.625  0.00  0.00    +0.193 A 
ATOM     13  N   UNL     1      -9.463  -1.660  -0.199  0.00  0.00    -0.227 NA
ATOM     14  C   UNL     1     -10.114  -0.607   0.267  0.00  0.00    +0.043 A 
ATOM     15  C   UNL     1     -11.500  -0.631   0.305  0.00  0.00    +0.046 A 
ATOM     16  C   UNL     1     -12.156  -1.766  -0.147  0.00  0.00    +0.043 A 
ATOM     17  N   UNL     1     -11.445  -2.783  -0.605  0.00  0.00    -0.227 NA
ATOM     18  C   UNL     1     -13.661  -1.837  -0.123  0.00  0.00    +0.066 C 
ATOM     19  C   UNL     1      -9.359   0.605   0.749  0.00  0.00    +0.066 C 
ENDBRANCH  11  12
ENDBRANCH   8  11
ENDBRANCH   3   5
BRANCH   1  20
ATOM     20  C   UNL     1      -1.837  -0.560  -1.626  0.00  0.00    +0.161 C 
BRANCH  20  21
ATOM     21  N   UNL     1      -1.741   0.738  -2.299  0.00  0.00    -0.288 N 
ATOM     22  C   UNL     1      -0.785   1.615  -1.936  0.00  0.00    +0.298 C 
ATOM     23  O   UNL     1      -0.003   1.331  -1.050  0.00  0.00    -0.253 OA
ATOM     24  N   UNL     1      -0.696   2.809  -2.556  0.00  0.00    -0.313 N 
ATOM     25  H   UNL     1      -2.365   0.965  -3.006  0.00  0.00    +0.151 HD
ATOM     26  H   UNL     1      -1.320   3.036  -3.263  0.00  0.00    +0.146 HD
ATOM     27  H   UNL     1      -0.008   3.441  -2.295  0.00  0.00    +0.146 HD
ENDBRANCH  20  21
BRANCH  20  28
ATOM     28  C   UNL     1      -0.880  -1.552  -2.290  0.00  0.00    +0.031 C 
BRANCH  28  30
ATOM     29  C   UNL     1       1.520  -2.083  -2.739  0.00  0.00    +0.004 C 
ATOM     30  C   UNL     1       0.562  -1.091  -2.075  0.00  0.00    -0.001 C 
ENDBRANCH  28  30
ENDBRANCH  20  28
ENDBRANCH   1  20
TORSDOF 7
