REMARK  Name = ZINC57991834
REMARK  2 active torsions:
REMARK  status: ('A' for Active; 'I' for Inactive)
REMARK    1  A    between atoms: C_4  and  N_7
REMARK    2  A    between atoms: C_13  and  C_15
REMARK                            x       y       z     vdW  Elec       q    Type
REMARK                         _______ _______ _______ _____ _____    ______ ____
ROOT
ATOM      1  C   UNL     1       6.863  -3.929   1.153  0.00  0.00    +0.110 C 
ATOM      2  C   UNL     1       6.145  -4.449   2.428  0.00  0.00    +0.034 C 
ATOM      3  C   UNL     1       7.303  -4.470   3.454  0.00  0.00    +0.059 C 
ATOM      4  C   UNL     1       7.021  -5.546   4.514  0.00  0.00    +0.020 C 
ATOM      5  C   UNL     1       8.129  -6.606   4.320  0.00  0.00    +0.017 C 
ATOM      6  C   UNL     1       8.564  -6.386   2.851  0.00  0.00    +0.086 C 
ATOM      7  N   UNL     1       8.495  -4.896   2.675  0.00  0.00    -0.282 NA
ATOM      8  C   UNL     1       8.259  -4.560   1.260  0.00  0.00    +0.137 C 
ATOM      9  C   UNL     1       8.364  -5.777   0.381  0.00  0.00    +0.004 A 
ATOM     10  C   UNL     1       7.685  -6.974   0.341  0.00  0.00    +0.008 A 
ATOM     11  C   UNL     1       8.014  -7.925  -0.609  0.00  0.00    +0.000 A 
ATOM     12  C   UNL     1       9.024  -7.668  -1.517  0.00  0.00    +0.002 A 
ATOM     13  C   UNL     1       9.707  -6.471  -1.480  0.00  0.00    +0.023 A 
ATOM     14  C   UNL     1       9.382  -5.508  -0.527  0.00  0.00    +0.039 A 
ATOM     15  N   UNL     1       9.917  -4.240  -0.292  0.00  0.00    -0.283 N 
ATOM     16  C   UNL     1       9.313  -3.617   0.738  0.00  0.00    +0.243 C 
ATOM     17  O   UNL     1       9.568  -2.510   1.163  0.00  0.00    -0.273 OA
ATOM     18  H   UNL     1      10.639  -3.852  -0.810  0.00  0.00    +0.155 HD
ENDROOT
BRANCH   1  25
ATOM     19  N   UNL     1       8.221  -0.560  -2.123  0.00  0.00    -0.327 N 
ATOM     20  C   UNL     1       8.280   0.146  -0.835  0.00  0.00    +0.124 C 
ATOM     21  C   UNL     1       7.070  -0.272   0.008  0.00  0.00    +0.126 C 
ATOM     22  N   UNL     1       6.981  -1.739   0.008  0.00  0.00    -0.298 N 
ATOM     23  C   UNL     1       6.922  -2.445  -1.279  0.00  0.00    +0.126 C 
ATOM     24  C   UNL     1       8.127  -2.027  -2.123  0.00  0.00    +0.124 C 
ATOM     25  C   UNL     1       6.954  -2.424   1.168  0.00  0.00    +0.221 C 
ATOM     26  O   UNL     1       7.004  -1.831   2.225  0.00  0.00    -0.275 OA
BRANCH  19  30
ATOM     27  C   UNL     1       8.302   1.558  -5.707  0.00  0.00    +0.000 A 
ATOM     28  C   UNL     1       8.335   0.176  -5.722  0.00  0.00    +0.002 A 
ATOM     29  C   UNL     1       8.309  -0.530  -4.535  0.00  0.00    +0.023 A 
ATOM     30  C   UNL     1       8.249   0.150  -3.325  0.00  0.00    +0.030 A 
ATOM     31  C   UNL     1       8.216   1.539  -3.314  0.00  0.00    +0.023 A 
ATOM     32  C   UNL     1       8.242   2.239  -4.505  0.00  0.00    +0.002 A 
ENDBRANCH  19  30
ENDBRANCH   1  25
TORSDOF 2
