REMARK  Name = ZINC65499009
REMARK  7 active torsions:
REMARK  status: ('A' for Active; 'I' for Inactive)
REMARK    1  A    between atoms: C_8  and  C_11
REMARK    2  A    between atoms: C_11  and  O_13
REMARK    3  A    between atoms: O_13  and  C_14
REMARK    4  A    between atoms: C_14  and  C_15
REMARK    5  A    between atoms: C_15  and  C_16
REMARK    6  A    between atoms: C_15  and  C_24
REMARK    7  A    between atoms: C_16  and  C_17
REMARK                            x       y       z     vdW  Elec       q    Type
REMARK                         _______ _______ _______ _____ _____    ______ ____
ROOT
ATOM      1  O   UNL     1       3.806  -4.708   0.540  0.00  0.00    -0.460 OA
ENDROOT
BRANCH   1   2
ATOM      2  C   UNL     1       2.614  -4.133   0.276  0.00  0.00    +0.338 C 
ATOM      3  O   UNL     1       1.646  -4.827   0.029  0.00  0.00    -0.245 OA
BRANCH   2  11
ATOM      4  C   UNL     1      -0.017   1.375   0.010  0.00  0.00    +0.001 A 
ATOM      5  C   UNL     1       1.170   2.091   0.002  0.00  0.00    +0.004 A 
ATOM      6  C   UNL     1       2.387   1.438  -0.025  0.00  0.00    +0.046 A 
ATOM      7  C   UNL     1       2.426   0.054  -0.041  0.00  0.00    +0.128 A 
ATOM      8  C   UNL     1       1.225  -0.675  -0.012  0.00  0.00    +0.017 A 
ATOM      9  C   UNL     1       0.002  -0.004   0.002  0.00  0.00    +0.011 A 
ATOM     10  C   UNL     1       1.293  -2.143   0.023  0.00  0.00    +0.025 C 
ATOM     11  C   UNL     1       2.490  -2.721   0.287  0.00  0.00    +0.074 C 
ATOM     12  C   UNL     1       3.689  -1.861   0.594  0.00  0.00    +0.271 C 
ATOM     13  O   UNL     1       3.604  -0.614  -0.095  0.00  0.00    -0.487 OA
ENDBRANCH   2  11
ENDBRANCH   1   2
BRANCH   1  14
ATOM     14  C   UNL     1       3.858  -6.136   0.511  0.00  0.00    +0.251 C 
BRANCH  14  15
ATOM     15  C   UNL     1       5.280  -6.601   0.832  0.00  0.00    +0.133 C 
BRANCH  15  16
ATOM     16  C   UNL     1       5.619  -6.226   2.215  0.00  0.00    +0.070 C 
ATOM     17  N   UNL     1       5.880  -5.937   3.282  0.00  0.00    -0.196 NA
ENDBRANCH  15  16
BRANCH  15  18
ATOM     18  C   UNL     1       5.366  -8.121   0.680  0.00  0.00    +0.056 C 
BRANCH  18  19
ATOM     19  C   UNL     1       6.793  -8.565   0.875  0.00  0.00    -0.046 A 
ATOM     20  C   UNL     1       7.649  -8.635  -0.208  0.00  0.00    +0.006 A 
ATOM     21  C   UNL     1       8.958  -9.041  -0.030  0.00  0.00    +0.038 A 
ATOM     22  C   UNL     1       9.411  -9.380   1.234  0.00  0.00    +0.123 A 
ATOM     23  C   UNL     1       8.553  -9.310   2.318  0.00  0.00    +0.038 A 
ATOM     24  C   UNL     1       7.246  -8.898   2.139  0.00  0.00    +0.006 A 
ATOM     25  F   UNL     1      10.690  -9.778   1.409  0.00  0.00    -0.205 F 
ENDBRANCH  18  19
ENDBRANCH  15  18
ENDBRANCH  14  15
ENDBRANCH   1  14
TORSDOF 7
