REMARK  Name = ZINC38055927
REMARK  5 active torsions:
REMARK  status: ('A' for Active; 'I' for Inactive)
REMARK    1  A    between atoms: C_4  and  O_8
REMARK    2  A    between atoms: C_5  and  N_7
REMARK    3  A    between atoms: O_8  and  C_9
REMARK    4  A    between atoms: C_9  and  C_10
REMARK    5  A    between atoms: C_12  and  C_15
REMARK                            x       y       z     vdW  Elec       q    Type
REMARK                         _______ _______ _______ _____ _____    ______ ____
ROOT
ATOM      1  C   UNL     1       4.781   0.178  -0.044  0.00  0.00    +0.327 C 
ENDROOT
BRANCH   1   2
ATOM      2  C   UNL     1       5.993  -0.717  -0.060  0.00  0.00    +0.265 A 
ATOM      3  N   UNL     1       6.598  -1.160  -1.126  0.00  0.00    -0.188 NA
ATOM      4  C   UNL     1       7.642  -1.933  -0.776  0.00  0.00    +0.203 A 
ATOM      5  N   UNL     1       7.704  -1.984   0.533  0.00  0.00    -0.056 NA
ATOM      6  O   UNL     1       6.633  -1.188   1.018  0.00  0.00    -0.334 OA
BRANCH   4   7
ATOM      7  C   UNL     1       8.567  -2.613  -1.713  0.00  0.00    +0.029 A 
ATOM      8  C   UNL     1       9.618  -3.399  -1.239  0.00  0.00    +0.019 A 
ATOM      9  C   UNL     1      10.405  -3.976  -2.175  0.00  0.00    +0.046 A 
ATOM     10  S   UNL     1       9.664  -3.413  -3.694  0.00  0.00    -0.104 S 
ATOM     11  C   UNL     1       8.411  -2.493  -3.061  0.00  0.00    +0.057 A 
ENDBRANCH   4   7
ENDBRANCH   1   2
BRANCH   1  12
ATOM     12  O   UNL     1       3.598  -0.622  -0.036  0.00  0.00    -0.481 OA
BRANCH  12  16
ATOM     13  C   UNL     1      -0.017   1.378   0.010  0.00  0.00    +0.002 A 
ATOM     14  C   UNL     1       1.169   2.089   0.002  0.00  0.00    +0.004 A 
ATOM     15  C   UNL     1       2.380   1.421  -0.013  0.00  0.00    +0.047 A 
ATOM     16  C   UNL     1       2.407   0.036  -0.021  0.00  0.00    +0.142 A 
ATOM     17  C   UNL     1       1.213  -0.681  -0.013  0.00  0.00    +0.067 A 
ATOM     18  C   UNL     1       0.002  -0.004   0.002  0.00  0.00    +0.026 A 
BRANCH  17  19
ATOM     19  N   UNL     1       1.235  -2.080  -0.021  0.00  0.00    -0.355 N 
ATOM     20  H   UNL     1       2.082  -2.552  -0.032  0.00  0.00    +0.142 HD
ATOM     21  H   UNL     1       0.402  -2.578  -0.016  0.00  0.00    +0.142 HD
ENDBRANCH  17  19
ENDBRANCH  12  16
ENDBRANCH   1  12
TORSDOF 5
