REMARK  Name = ZINC38708553
REMARK  7 active torsions:
REMARK  status: ('A' for Active; 'I' for Inactive)
REMARK    1  A    between atoms: C_1  and  C_2
REMARK    2  A    between atoms: N_8  and  C_31
REMARK    3  A    between atoms: C_13  and  N_18
REMARK    4  A    between atoms: C_19  and  C_21
REMARK    5  A    between atoms: C_21  and  C_23
REMARK    6  A    between atoms: C_21  and  O_24
REMARK    7  A    between atoms: O_24  and  C_25
REMARK                            x       y       z     vdW  Elec       q    Type
REMARK                         _______ _______ _______ _____ _____    ______ ____
ROOT
ATOM      1  C   UNL     1       0.032   1.551   0.004  0.00  0.00    +0.044 C 
ATOM      2  C   UNL     1       0.042   0.044  -0.003  0.00  0.00    -0.048 A 
ATOM      3  C   UNL     1       0.040  -0.641  -1.204  0.00  0.00    +0.007 A 
ATOM      4  C   UNL     1       0.062  -2.023  -1.211  0.00  0.00    +0.048 A 
ATOM      5  C   UNL     1       0.079  -2.728  -0.016  0.00  0.00    +0.150 A 
ATOM      6  C   UNL     1       0.059  -2.042   1.192  0.00  0.00    +0.079 A 
ATOM      7  C   UNL     1       0.059  -0.651   1.190  0.00  0.00    +0.030 A 
ATOM      8  N   UNL     1       0.006  -2.714   2.413  0.00  0.00    -0.267 N 
ATOM      9  C   UNL     1       0.656  -3.827   2.724  0.00  0.00    +0.254 C 
ATOM     10  O   UNL     1       0.507  -4.270   3.846  0.00  0.00    -0.270 OA
ATOM     11  C   UNL     1       1.544  -4.565   1.815  0.00  0.00    +0.081 A 
ATOM     12  C   UNL     1       2.715  -5.146   2.309  0.00  0.00    +0.040 A 
ATOM     13  C   UNL     1       3.542  -5.863   1.462  0.00  0.00    +0.034 A 
ATOM     14  C   UNL     1       3.208  -6.007   0.119  0.00  0.00    +0.027 A 
ATOM     15  C   UNL     1       2.059  -5.428  -0.377  0.00  0.00    +0.049 A 
ATOM     16  C   UNL     1       1.227  -4.696   0.459  0.00  0.00    +0.141 A 
ATOM     17  O   UNL     1       0.136  -4.082  -0.053  0.00  0.00    -0.453 OA
ATOM     18  C   UNL     1      -0.851  -2.135   3.451  0.00  0.00    +0.139 C 
ENDROOT
BRANCH  13  19
ATOM     19  N   UNL     1       4.717  -6.443   1.957  0.00  0.00    -0.282 N 
ATOM     20  C   UNL     1       5.425  -5.817   2.918  0.00  0.00    +0.258 C 
ATOM     21  O   UNL     1       5.006  -4.790   3.408  0.00  0.00    -0.271 OA
ATOM     22  H   UNL     1       5.021  -7.296   1.608  0.00  0.00    +0.155 HD
BRANCH  20  23
ATOM     23  C   UNL     1       6.737  -6.394   3.383  0.00  0.00    +0.256 C 
ATOM     24  C   UNL     1       7.747  -6.357   2.234  0.00  0.00    +0.062 C 
BRANCH  23  25
ATOM     25  O   UNL     1       7.235  -5.622   4.478  0.00  0.00    -0.480 OA
BRANCH  25  26
ATOM     26  C   UNL     1       8.094  -6.241   5.330  0.00  0.00    +0.122 A 
ATOM     27  C   UNL     1       8.683  -5.528   6.364  0.00  0.00    +0.045 A 
ATOM     28  C   UNL     1       9.555  -6.160   7.228  0.00  0.00    +0.004 A 
ATOM     29  C   UNL     1       9.842  -7.503   7.063  0.00  0.00    +0.000 A 
ATOM     30  C   UNL     1       9.257  -8.216   6.034  0.00  0.00    +0.004 A 
ATOM     31  C   UNL     1       8.379  -7.590   5.170  0.00  0.00    +0.045 A 
ENDBRANCH  25  26
ENDBRANCH  23  25
ENDBRANCH  20  23
ENDBRANCH  13  19
TORSDOF 4
