REMARK  Name = ZINC57415243
REMARK  12 active torsions:
REMARK  status: ('A' for Active; 'I' for Inactive)
REMARK    1  A    between atoms: C_1  and  C_2
REMARK    2  A    between atoms: C_2  and  C_3
REMARK    3  A    between atoms: C_6  and  C_9
REMARK    4  A    between atoms: C_11  and  C_33
REMARK    5  A    between atoms: C_12  and  C_17
REMARK    6  A    between atoms: C_17  and  N_18
REMARK    7  A    between atoms: N_21  and  C_24
REMARK    8  A    between atoms: C_29  and  O_30
REMARK    9  A    between atoms: O_30  and  C_31
REMARK   10  A    between atoms: C_31  and  C_32
REMARK   11  A    between atoms: C_33  and  O_35
REMARK   12  A    between atoms: O_35  and  C_36
REMARK                            x       y       z     vdW  Elec       q    Type
REMARK                         _______ _______ _______ _____ _____    ______ ____
ROOT
ATOM      1  C   UNL     1       2.970  -1.459  -4.169  0.00  0.00    +0.144 C 
ATOM      2  C   UNL     1       3.688  -0.363  -4.929  0.00  0.00    +0.079 C 
ATOM      3  C   UNL     1       4.722  -0.720  -5.721  0.00  0.00    +0.038 C 
ATOM      4  N   UNL     1       5.105  -2.026  -5.833  0.00  0.00    -0.271 N 
ATOM      5  C   UNL     1       4.506  -3.034  -5.186  0.00  0.00    +0.304 C 
ATOM      6  O   UNL     1       4.919  -4.165  -5.349  0.00  0.00    -0.252 OA
ATOM      7  N   UNL     1       3.461  -2.834  -4.359  0.00  0.00    -0.288 N 
ATOM      8  H   UNL     1       5.852  -2.236  -6.415  0.00  0.00    +0.156 HD
ATOM      9  H   UNL     1       3.043  -3.579  -3.900  0.00  0.00    +0.151 HD
ENDROOT
BRANCH   1  13
ATOM     10  C   UNL     1       3.197  -0.545  -0.003  0.00  0.00    -0.048 A 
ATOM     11  C   UNL     1       2.075  -0.190  -0.728  0.00  0.00    +0.004 A 
ATOM     12  C   UNL     1       2.002  -0.486  -2.076  0.00  0.00    +0.006 A 
ATOM     13  C   UNL     1       3.050  -1.136  -2.700  0.00  0.00    -0.022 A 
ATOM     14  C   UNL     1       4.173  -1.490  -1.975  0.00  0.00    +0.006 A 
ATOM     15  C   UNL     1       4.248  -1.190  -0.627  0.00  0.00    +0.004 A 
BRANCH  10  17
ATOM     16  C   UNL     1       3.902   1.162   1.652  0.00  0.00    +0.009 C 
ATOM     17  C   UNL     1       3.278  -0.223   1.467  0.00  0.00    +0.032 C 
ENDBRANCH  10  17
ENDBRANCH   1  13
BRANCH   2  18
ATOM     18  C   UNL     1       3.290   0.990  -4.812  0.00  0.00    +0.339 C 
ATOM     19  O   UNL     1       3.954   1.867  -5.332  0.00  0.00    -0.245 OA
BRANCH  18  20
ATOM     20  O   UNL     1       2.174   1.307  -4.124  0.00  0.00    -0.465 OA
ATOM     21  C   UNL     1       1.832   2.693  -4.046  0.00  0.00    +0.280 C 
ENDBRANCH  18  20
ENDBRANCH   2  18
BRANCH   3  22
ATOM     22  C   UNL     1       5.464   0.339  -6.495  0.00  0.00    +0.136 C 
BRANCH  22  23
ATOM     23  N   UNL     1       6.504   0.929  -5.643  0.00  0.00    -0.294 NA
ATOM     24  C   UNL     1       7.604  -0.019  -5.421  0.00  0.00    +0.103 C 
ATOM     25  C   UNL     1       8.575   0.562  -4.388  0.00  0.00    +0.120 C 
ATOM     26  N   UNL     1       8.989   1.900  -4.836  0.00  0.00    -0.325 N 
ATOM     27  C   UNL     1       7.942   2.864  -5.209  0.00  0.00    +0.120 C 
ATOM     28  C   UNL     1       6.996   2.192  -6.210  0.00  0.00    +0.103 C 
BRANCH  26  29
ATOM     29  C   UNL     1      10.343   2.247  -4.907  0.00  0.00    +0.072 A 
ATOM     30  C   UNL     1      11.056   2.032  -6.077  0.00  0.00    +0.027 A 
ATOM     31  C   UNL     1      12.393   2.377  -6.144  0.00  0.00    +0.002 A 
ATOM     32  C   UNL     1      13.023   2.935  -5.046  0.00  0.00    +0.004 A 
ATOM     33  C   UNL     1      12.318   3.153  -3.877  0.00  0.00    +0.047 A 
ATOM     34  C   UNL     1      10.976   2.815  -3.803  0.00  0.00    +0.141 A 
BRANCH  34  35
ATOM     35  O   UNL     1      10.280   3.033  -2.655  0.00  0.00    -0.490 OA
BRANCH  35  36
ATOM     36  C   UNL     1      10.995   3.619  -1.565  0.00  0.00    +0.226 C 
ATOM     37  C   UNL     1      10.054   3.786  -0.370  0.00  0.00    +0.048 C 
ENDBRANCH  35  36
ENDBRANCH  34  35
ENDBRANCH  26  29
ENDBRANCH  22  23
ENDBRANCH   3  22
TORSDOF 9
