REMARK  Name = ZINC20883347
REMARK  12 active torsions:
REMARK  status: ('A' for Active; 'I' for Inactive)
REMARK    1  A    between atoms: C_1  and  C_2
REMARK    2  A    between atoms: C_2  and  O_3
REMARK    3  A    between atoms: O_3  and  C_4
REMARK    4  A    between atoms: C_7  and  C_12
REMARK    5  A    between atoms: C_9  and  O_10
REMARK    6  A    between atoms: O_10  and  C_11
REMARK    7  A    between atoms: C_17  and  C_27
REMARK    8  A    between atoms: C_30  and  O_35
REMARK    9  A    between atoms: C_31  and  O_33
REMARK   10  A    between atoms: O_33  and  C_34
REMARK   11  A    between atoms: O_35  and  C_36
REMARK   12  A    between atoms: C_36  and  C_37
REMARK                            x       y       z     vdW  Elec       q    Type
REMARK                         _______ _______ _______ _____ _____    ______ ____
ROOT
ATOM      1  C   UNL     1      -2.675   0.463   0.564  0.00  0.00    +0.032 C 
ATOM      2  C   UNL     1      -1.666  -0.443  -0.141  0.00  0.00    +0.059 C 
ATOM      3  C   UNL     1      -0.278   0.170  -0.062  0.00  0.00    +0.017 C 
ATOM      4  C   UNL     1      -0.121   1.505  -0.064  0.00  0.00    +0.036 C 
ATOM      5  C   UNL     1       1.194   2.242   0.003  0.00  0.00    +0.136 C 
ATOM      6  N   UNL     1       2.362   1.409  -0.191  0.00  0.00    -0.331 N 
ATOM      7  C   UNL     1       2.688   0.408   0.723  0.00  0.00    +0.049 A 
ATOM      8  C   UNL     1       3.817   0.497   1.520  0.00  0.00    +0.025 A 
ATOM      9  C   UNL     1       4.040  -0.462   2.494  0.00  0.00    +0.002 A 
ATOM     10  C   UNL     1       3.145  -1.502   2.668  0.00  0.00    +0.002 A 
ATOM     11  C   UNL     1       2.028  -1.606   1.858  0.00  0.00    +0.025 A 
ATOM     12  C   UNL     1       1.813  -0.658   0.873  0.00  0.00    +0.052 A 
ATOM     13  N   UNL     1       0.739  -0.727  -0.006  0.00  0.00    -0.316 N 
ATOM     14  C   UNL     1      -1.252   2.354  -0.117  0.00  0.00    +0.163 C 
ATOM     15  O   UNL     1      -1.081   3.557  -0.142  0.00  0.00    -0.292 OA
ATOM     16  C   UNL     1      -2.654   1.823  -0.143  0.00  0.00    +0.088 C 
ATOM     17  H   UNL     1       3.007   1.561  -1.069  0.00  0.00    +0.147 HD
ATOM     18  H   UNL     1       0.751  -1.588  -0.691  0.00  0.00    +0.152 HD
ENDROOT
BRANCH   1  22
ATOM     19  C   UNL     1      -6.586  -1.246   0.296  0.00  0.00    +0.162 A 
ATOM     20  C   UNL     1      -5.889  -0.921  -0.857  0.00  0.00    +0.050 A 
ATOM     21  C   UNL     1      -4.627  -0.364  -0.766  0.00  0.00    +0.008 A 
ATOM     22  C   UNL     1      -4.053  -0.140   0.472  0.00  0.00    -0.040 A 
ATOM     23  C   UNL     1      -4.744  -0.462   1.625  0.00  0.00    +0.053 A 
ATOM     24  C   UNL     1      -6.012  -1.015   1.542  0.00  0.00    +0.162 A 
BRANCH  24  25
ATOM     25  O   UNL     1      -6.693  -1.332   2.676  0.00  0.00    -0.491 OA
ATOM     26  C   UNL     1      -6.041  -1.067   3.919  0.00  0.00    +0.277 C 
ENDBRANCH  24  25
BRANCH  19  27
ATOM     27  O   UNL     1      -7.830  -1.789   0.209  0.00  0.00    -0.489 OA
BRANCH  27  29
ATOM     28  C   UNL     1      -9.755  -2.611  -1.000  0.00  0.00    +0.048 C 
ATOM     29  C   UNL     1      -8.357  -1.998  -1.103  0.00  0.00    +0.226 C 
ENDBRANCH  27  29
ENDBRANCH  19  27
ENDBRANCH   1  22
BRANCH   5  30
ATOM     30  C   UNL     1       1.301   2.908   1.351  0.00  0.00    -0.019 A 
ATOM     31  C   UNL     1       1.335   2.138   2.499  0.00  0.00    +0.009 A 
ATOM     32  C   UNL     1       1.438   2.744   3.737  0.00  0.00    +0.050 A 
ATOM     33  C   UNL     1       1.497   4.125   3.831  0.00  0.00    +0.162 A 
ATOM     34  C   UNL     1       1.458   4.899   2.675  0.00  0.00    +0.162 A 
ATOM     35  C   UNL     1       1.360   4.286   1.437  0.00  0.00    +0.055 A 
BRANCH  34  36
ATOM     36  O   UNL     1       1.515   6.255   2.762  0.00  0.00    -0.491 OA
ATOM     37  C   UNL     1       1.469   6.986   1.534  0.00  0.00    +0.277 C 
ENDBRANCH  34  36
BRANCH  33  38
ATOM     38  O   UNL     1       1.593   4.722   5.049  0.00  0.00    -0.489 OA
BRANCH  38  39
ATOM     39  C   UNL     1       1.629   3.864   6.191  0.00  0.00    +0.226 C 
ATOM     40  C   UNL     1       1.737   4.710   7.461  0.00  0.00    +0.048 C 
ENDBRANCH  38  39
ENDBRANCH  33  38
ENDBRANCH   5  30
TORSDOF 8
