REMARK  Name = ZINC50986997
REMARK  4 active torsions:
REMARK  status: ('A' for Active; 'I' for Inactive)
REMARK    1  A    between atoms: C_1  and  C_2
REMARK    2  A    between atoms: C_4  and  C_11
REMARK    3  A    between atoms: N_6  and  C_7
REMARK    4  A    between atoms: N_14  and  C_16
REMARK                            x       y       z     vdW  Elec       q    Type
REMARK                         _______ _______ _______ _____ _____    ______ ____
ROOT
ATOM      1  C   UNL     1       0.200   1.119  -0.120  0.00  0.00    +0.081 C 
ATOM      2  C   UNL     1      -0.647   1.600  -1.270  0.00  0.00    +0.073 C 
ATOM      3  N   UNL     1      -1.098   0.822  -2.189  0.00  0.00    -0.363 N 
ATOM      4  C   UNL     1      -1.877   1.633  -3.136  0.00  0.00    +0.175 C 
ATOM      5  C   UNL     1      -1.782   3.039  -2.574  0.00  0.00    +0.101 C 
ATOM      6  N   UNL     1      -1.017   2.905  -1.435  0.00  0.00    -0.276 N 
ATOM      7  N   UNL     1      -2.305   4.119  -3.053  0.00  0.00    -0.388 N 
ATOM      8  H   UNL     1      -2.832   4.084  -3.867  0.00  0.00    +0.157 HD
ATOM      9  H   UNL     1      -2.172   4.965  -2.598  0.00  0.00    +0.157 HD
ATOM     10  H   UNL     1      -0.949  -0.135  -2.247  0.00  0.00    +0.162 HD
ENDROOT
BRANCH   4  11
ATOM     11  C   UNL     1      -1.266   1.572  -4.513  0.00  0.00    +0.020 A 
ATOM     12  C   UNL     1       0.102   1.558  -4.806  0.00  0.00    +0.140 A 
ATOM     13  N   UNL     1       0.242   1.500  -6.106  0.00  0.00    -0.174 NA
ATOM     14  N   UNL     1      -1.034   1.475  -6.683  0.00  0.00    -0.240 N 
ATOM     15  C   UNL     1      -1.943   1.514  -5.683  0.00  0.00    +0.120 A 
BRANCH  14  16
ATOM     16  C   UNL     1      -1.319   1.415  -8.054  0.00  0.00    +0.065 A 
ATOM     17  C   UNL     1      -2.636   1.403  -8.492  0.00  0.00    +0.028 A 
ATOM     18  C   UNL     1      -2.913   1.345  -9.843  0.00  0.00    +0.002 A 
ATOM     19  C   UNL     1      -1.880   1.298 -10.761  0.00  0.00    +0.000 A 
ATOM     20  C   UNL     1      -0.567   1.310 -10.329  0.00  0.00    +0.002 A 
ATOM     21  C   UNL     1      -0.283   1.374  -8.978  0.00  0.00    +0.028 A 
ENDBRANCH  14  16
ENDBRANCH   4  11
BRANCH   6  22
ATOM     22  C   UNL     1      -0.651   4.002  -0.536  0.00  0.00    +0.081 C 
ATOM     23  C   UNL     1      -0.120   5.288  -1.171  0.00  0.00    +0.025 C 
ATOM     24  C   UNL     1       0.833   4.356  -0.422  0.00  0.00    +0.025 C 
ENDBRANCH   6  22
TORSDOF 3
