REMARK  Name = ZINC39276893
REMARK  7 active torsions:
REMARK  status: ('A' for Active; 'I' for Inactive)
REMARK    1  A    between atoms: C_1  and  C_2
REMARK    2  A    between atoms: C_3  and  C_7
REMARK    3  A    between atoms: C_13  and  C_16
REMARK    4  A    between atoms: C_19  and  C_22
REMARK    5  A    between atoms: C_22  and  C_23
REMARK    6  A    between atoms: C_23  and  C_24
REMARK    7  A    between atoms: C_23  and  C_25
REMARK                            x       y       z     vdW  Elec       q    Type
REMARK                         _______ _______ _______ _____ _____    ______ ____
ROOT
ATOM      1  C   UNL     1      -2.510  -0.400   0.013  0.00  0.00    +0.185 A 
ATOM      2  N   UNL     1      -2.955   0.832   0.017  0.00  0.00    -0.127 NA
ATOM      3  N   UNL     1      -4.241   0.835   0.037  0.00  0.00    -0.120 NA
ATOM      4  C   UNL     1      -4.680  -0.385   0.064  0.00  0.00    +0.211 A 
ATOM      5  N   UNL     1      -3.613  -1.248   0.013  0.00  0.00    -0.220 N 
ATOM      6  N   UNL     1      -3.845  -2.590  -0.039  0.00  0.00    -0.265 N 
ATOM      7  C   UNL     1      -5.181  -3.016   0.456  0.00  0.00    +0.182 C 
ATOM      8  S   UNL     1      -6.104  -1.452   0.138  0.00  0.00    -0.058 S 
ATOM      9  H   UNL     1      -3.670  -2.951  -0.965  0.00  0.00    +0.168 HD
ENDROOT
BRANCH   1  12
ATOM     10  C   UNL     1      -0.018   1.503   0.010  0.00  0.00    +0.087 C 
ATOM     11  C   UNL     1       0.002  -0.004   0.002  0.00  0.00    +0.112 A 
ATOM     12  C   UNL     1      -1.091  -0.815   0.003  0.00  0.00    +0.061 A 
ATOM     13  C   UNL     1      -0.568  -2.187  -0.008  0.00  0.00    +0.053 A 
ATOM     14  C   UNL     1       0.770  -2.074  -0.014  0.00  0.00    +0.196 A 
ATOM     15  O   UNL     1       1.100  -0.773  -0.013  0.00  0.00    -0.467 OA
ENDBRANCH   1  12
BRANCH   7  16
ATOM     16  C   UNL     1      -5.738  -4.183  -0.362  0.00  0.00    +0.185 C 
ATOM     17  C   UNL     1      -7.126  -4.563   0.122  0.00  0.00    +0.029 C 
ATOM     18  C   UNL     1      -7.906  -4.350  -0.941  0.00  0.00    +0.062 C 
ATOM     19  N   UNL     1      -7.180  -3.898  -1.987  0.00  0.00    -0.159 NA
ATOM     20  N   UNL     1      -5.970  -3.777  -1.759  0.00  0.00    -0.177 NA
BRANCH  18  21
ATOM     21  C   UNL     1      -9.395  -4.583  -0.970  0.00  0.00    +0.060 C 
BRANCH  21  22
ATOM     22  C   UNL     1     -10.122  -3.271  -0.667  0.00  0.00    -0.011 C 
ATOM     23  C   UNL     1      -9.847  -2.265  -1.787  0.00  0.00    +0.007 C 
ATOM     24  C   UNL     1     -11.627  -3.532  -0.573  0.00  0.00    +0.007 C 
ENDBRANCH  21  22
ENDBRANCH  18  21
ENDBRANCH   7  16
TORSDOF 4
