REMARK  Name = ZINC64613176
REMARK  9 active torsions:
REMARK  status: ('A' for Active; 'I' for Inactive)
REMARK    1  A    between atoms: C_1  and  C_2
REMARK    2  A    between atoms: C_2  and  O_3
REMARK    3  A    between atoms: O_3  and  C_4
REMARK    4  A    between atoms: C_7  and  C_10
REMARK    5  A    between atoms: C_13  and  C_16
REMARK    6  A    between atoms: C_19  and  C_22
REMARK    7  A    between atoms: C_25  and  C_28
REMARK    8  A    between atoms: C_28  and  C_29
REMARK    9  A    between atoms: C_28  and  C_30
REMARK                            x       y       z     vdW  Elec       q    Type
REMARK                         _______ _______ _______ _____ _____    ______ ____
ROOT
ATOM      1  C   UNL     1       1.108  -6.016  -1.844  0.00  0.00    +0.168 C 
ATOM      2  N   UNL     1       0.638  -6.891  -1.016  0.00  0.00    -0.067 NA
ATOM      3  O   UNL     1       0.908  -8.206  -1.463  0.00  0.00    -0.367 OA
ATOM      4  C   UNL     1       1.621  -8.078  -2.702  0.00  0.00    +0.322 C 
ATOM      5  N   UNL     1       1.727  -6.626  -2.919  0.00  0.00    -0.287 N 
ATOM      6  H   UNL     1       2.151  -6.183  -3.671  0.00  0.00    +0.151 HD
ENDROOT
BRANCH   1  10
ATOM      7  C   UNL     1       0.777  -1.809  -1.336  0.00  0.00    +0.121 A 
ATOM      8  C   UNL     1       0.241  -2.666  -0.383  0.00  0.00    +0.046 A 
ATOM      9  C   UNL     1       0.346  -4.031  -0.545  0.00  0.00    +0.015 A 
ATOM     10  C   UNL     1       0.992  -4.551  -1.667  0.00  0.00    +0.018 A 
ATOM     11  C   UNL     1       1.529  -3.687  -2.623  0.00  0.00    +0.015 A 
ATOM     12  C   UNL     1       1.415  -2.324  -2.457  0.00  0.00    +0.046 A 
BRANCH   7  13
ATOM     13  O   UNL     1       0.671  -0.465  -1.174  0.00  0.00    -0.492 OA
BRANCH  13  15
ATOM     14  C   UNL     1      -0.019   1.526   0.010  0.00  0.00    +0.048 C 
ATOM     15  C   UNL     1       0.002  -0.004   0.002  0.00  0.00    +0.225 C 
ENDBRANCH  13  15
ENDBRANCH   7  13
ENDBRANCH   1  10
BRANCH   4  16
ATOM     16  C   UNL     1       0.835  -8.730  -3.841  0.00  0.00    +0.215 C 
ATOM     17  C   UNL     1       0.598 -10.202  -3.555  0.00  0.00    +0.037 C 
ATOM     18  C   UNL     1      -0.744 -10.309  -3.503  0.00  0.00    +0.091 C 
ATOM     19  N   UNL     1      -1.324  -9.099  -3.720  0.00  0.00    -0.154 NA
ATOM     20  N   UNL     1      -0.527  -8.175  -3.917  0.00  0.00    -0.174 NA
BRANCH  18  21
ATOM     21  C   UNL     1      -1.484 -11.569  -3.246  0.00  0.00    +0.002 A 
ATOM     22  C   UNL     1      -0.788 -12.757  -3.031  0.00  0.00    +0.010 A 
ATOM     23  C   UNL     1      -1.481 -13.926  -2.792  0.00  0.00    +0.004 A 
ATOM     24  C   UNL     1      -2.864 -13.920  -2.766  0.00  0.00    -0.045 A 
ATOM     25  C   UNL     1      -3.560 -12.744  -2.979  0.00  0.00    +0.004 A 
ATOM     26  C   UNL     1      -2.877 -11.568  -3.213  0.00  0.00    +0.010 A 
BRANCH  24  27
ATOM     27  C   UNL     1      -3.615 -15.200  -2.505  0.00  0.00    +0.013 C 
ATOM     28  C   UNL     1      -4.470 -15.042  -1.246  0.00  0.00    +0.012 C 
ATOM     29  C   UNL     1      -4.519 -15.514  -3.699  0.00  0.00    +0.012 C 
ENDBRANCH  24  27
ENDBRANCH  18  21
ENDBRANCH   4  16
TORSDOF 6
