REMARK  Name = ZINC05330867
REMARK  6 active torsions:
REMARK  status: ('A' for Active; 'I' for Inactive)
REMARK    1  A    between atoms: C_1  and  C_2
REMARK    2  A    between atoms: C_5  and  C_8
REMARK    3  A    between atoms: C_8  and  C_10
REMARK    4  A    between atoms: C_8  and  O_30
REMARK    5  A    between atoms: C_10  and  N_12
REMARK    6  A    between atoms: C_10  and  N_21
REMARK                            x       y       z     vdW  Elec       q    Type
REMARK                         _______ _______ _______ _____ _____    ______ ____
ROOT
ATOM      1  C   UNL     1      -0.228  -0.525   1.422  0.00  0.00    +0.241 C 
ENDROOT
BRANCH   1   2
ATOM      2  N   UNL     1      -0.090  -1.984   1.436  0.00  0.00    -0.322 N 
ATOM      3  C   UNL     1      -0.859  -2.853   0.711  0.00  0.00    +0.089 A 
ATOM      4  C   UNL     1      -0.470  -4.115   0.949  0.00  0.00    +0.027 A 
ATOM      5  C   UNL     1       0.632  -4.050   1.912  0.00  0.00    -0.000 A 
ATOM      6  C   UNL     1       0.830  -2.684   2.184  0.00  0.00    +0.051 A 
ATOM      7  C   UNL     1       1.825  -2.305   3.078  0.00  0.00    +0.026 A 
ATOM      8  C   UNL     1       2.603  -3.267   3.685  0.00  0.00    +0.002 A 
ATOM      9  C   UNL     1       2.403  -4.613   3.413  0.00  0.00    +0.001 A 
ATOM     10  C   UNL     1       1.431  -5.008   2.538  0.00  0.00    +0.010 A 
ENDBRANCH   1   2
BRANCH   1  11
ATOM     11  N   UNL     1      -1.575  -0.158   1.865  0.00  0.00    -0.218 N 
ATOM     12  C   UNL     1      -1.901   0.618   2.951  0.00  0.00    +0.091 A 
ATOM     13  C   UNL     1      -1.160   1.272   3.929  0.00  0.00    +0.030 A 
ATOM     14  C   UNL     1      -1.800   1.984   4.905  0.00  0.00    +0.002 A 
ATOM     15  C   UNL     1      -3.187   2.060   4.929  0.00  0.00    +0.002 A 
ATOM     16  C   UNL     1      -3.937   1.427   3.982  0.00  0.00    +0.032 A 
ATOM     17  C   UNL     1      -3.305   0.691   2.970  0.00  0.00    +0.113 A 
ATOM     18  N   UNL     1      -3.767  -0.023   1.925  0.00  0.00    -0.129 NA
ATOM     19  N   UNL     1      -2.787  -0.525   1.259  0.00  0.00    -0.063 NA
ENDBRANCH   1  11
BRANCH   1  20
ATOM     20  C   UNL     1       0.002  -0.004   0.002  0.00  0.00    +0.189 C 
BRANCH  20  25
ATOM     21  C   UNL     1      -0.076   5.774   0.034  0.00  0.00    +0.044 C 
ATOM     22  C   UNL     1      -0.056   4.267   0.025  0.00  0.00    -0.050 A 
ATOM     23  C   UNL     1       1.151   3.592   0.010  0.00  0.00    +0.004 A 
ATOM     24  C   UNL     1       1.169   2.210   0.003  0.00  0.00    +0.006 A 
ATOM     25  C   UNL     1      -0.018   1.503   0.010  0.00  0.00    -0.015 A 
ATOM     26  C   UNL     1      -1.225   2.178   0.020  0.00  0.00    +0.006 A 
ATOM     27  C   UNL     1      -1.244   3.560   0.032  0.00  0.00    +0.004 A 
ENDBRANCH  20  25
BRANCH  20  28
ATOM     28  O   UNL     1      -1.032  -0.490  -0.857  0.00  0.00    -0.383 OA
ATOM     29  H   UNL     1      -1.922  -0.218  -0.594  0.00  0.00    +0.210 HD
ENDBRANCH  20  28
ENDBRANCH   1  20
TORSDOF 5
