REMARK  Name = ZINC14229580
REMARK  7 active torsions:
REMARK  status: ('A' for Active; 'I' for Inactive)
REMARK    1  A    between atoms: C_1  and  N_2
REMARK    2  A    between atoms: C_3  and  C_18
REMARK    3  A    between atoms: N_5  and  C_8
REMARK    4  A    between atoms: C_8  and  N_43
REMARK    5  A    between atoms: C_9  and  N_43
REMARK    6  A    between atoms: C_10  and  C_11
REMARK    7  A    between atoms: C_10  and  N_43
REMARK                            x       y       z     vdW  Elec       q    Type
REMARK                         _______ _______ _______ _____ _____    ______ ____
ROOT
ATOM      1  C   UNL     1       3.757  -2.454  -0.279  0.00  0.00    +0.153 C 
ATOM      2  N   UNL     1       2.383  -2.945  -0.139  0.00  0.00    -0.306 N 
ATOM      3  C   UNL     1       1.276  -2.176   0.162  0.00  0.00    +0.165 A 
ATOM      4  N   UNL     1       0.230  -2.952   0.196  0.00  0.00    -0.152 NA
ATOM      5  N   UNL     1       0.650  -4.260  -0.080  0.00  0.00    -0.257 N 
ATOM      6  C   UNL     1       1.984  -4.224  -0.279  0.00  0.00    +0.176 A 
ATOM      7  S   UNL     1       2.986  -5.561  -0.651  0.00  0.00    -0.011 S 
ENDROOT
BRANCH   3   8
ATOM      8  C   UNL     1       1.277  -0.716   0.398  0.00  0.00    +0.054 A 
ATOM      9  C   UNL     1       2.222  -0.144   1.251  0.00  0.00    +0.014 A 
ATOM     10  C   UNL     1       2.218   1.218   1.468  0.00  0.00    +0.001 A 
ATOM     11  C   UNL     1       1.279   2.019   0.843  0.00  0.00    +0.003 A 
ATOM     12  C   UNL     1       0.339   1.462  -0.004  0.00  0.00    +0.039 A 
ATOM     13  C   UNL     1       0.332   0.098  -0.231  0.00  0.00    +0.134 A 
ATOM     14  F   UNL     1      -0.587  -0.447  -1.059  0.00  0.00    -0.205 F 
ENDBRANCH   3   8
BRANCH   5  15
ATOM     15  C   UNL     1      -0.203  -5.449  -0.142  0.00  0.00    +0.072 C 
BRANCH  15  17
ATOM     16  C   UNL     1      -1.596  -4.532  -1.897  0.00  0.00    -0.093 C 
ATOM     17  N   UNL     1      -0.673  -5.628  -1.532  0.00  0.00    +0.394 N 
ATOM     18  H   UNL     1       0.136  -5.606  -2.163  0.00  0.00    -0.079 HD
BRANCH  17  19
ATOM     19  C   UNL     1      -1.357  -6.931  -1.671  0.00  0.00    -0.041 C 
BRANCH  19  20
ATOM     20  C   UNL     1      -1.628  -7.184  -3.131  0.00  0.00    -0.064 A 
ATOM     21  C   UNL     1      -2.824  -6.776  -3.693  0.00  0.00    +0.003 A 
ATOM     22  C   UNL     1      -3.071  -7.004  -5.034  0.00  0.00    +0.015 A 
ATOM     23  C   UNL     1      -2.127  -7.649  -5.811  0.00  0.00    +0.018 A 
ATOM     24  C   UNL     1      -0.933  -8.062  -5.248  0.00  0.00    +0.015 A 
ATOM     25  C   UNL     1      -0.684  -7.829  -3.908  0.00  0.00    +0.003 A 
ATOM     26 BR   UNL     1      -2.467  -7.967  -7.644  0.00  0.00    -0.050 Br
ENDBRANCH  19  20
ENDBRANCH  17  19
ENDBRANCH  15  17
ENDBRANCH   5  15
TORSDOF 5
