REMARK  Name = ZINC18114103
REMARK  10 active torsions:
REMARK  status: ('A' for Active; 'I' for Inactive)
REMARK    1  A    between atoms: C_1  and  C_2
REMARK    2  A    between atoms: C_3  and  C_31
REMARK    3  A    between atoms: C_11  and  C_13
REMARK    4  A    between atoms: C_13  and  C_15
REMARK    5  A    between atoms: C_13  and  O_16
REMARK    6  A    between atoms: O_16  and  C_17
REMARK    7  A    between atoms: C_17  and  C_19
REMARK    8  A    between atoms: C_19  and  N_27
REMARK    9  A    between atoms: C_20  and  C_21
REMARK   10  A    between atoms: C_28  and  C_30
REMARK                            x       y       z     vdW  Elec       q    Type
REMARK                         _______ _______ _______ _____ _____    ______ ____
ROOT
ATOM      1  O   UNL     1      -1.107  -4.594   5.229  0.00  0.00    -0.449 OA
ENDROOT
BRANCH   1   2
ATOM      2  C   UNL     1       0.199  -4.830   4.699  0.00  0.00    +0.239 C 
ATOM      3  C   UNL     1       0.502  -6.329   4.737  0.00  0.00    +0.060 C 
BRANCH   2  14
ATOM      4  C   UNL     1       0.496  -1.775  -1.262  0.00  0.00    +0.045 C 
ATOM      5  C   UNL     1       0.416  -3.190  -0.750  0.00  0.00    -0.026 A 
ATOM      6  C   UNL     1       0.395  -4.223  -1.607  0.00  0.00    -0.008 A 
ATOM      7  S   UNL     1       0.299  -5.646  -0.537  0.00  0.00    -0.073 S 
ATOM      8  C   UNL     1       0.291  -4.812   1.029  0.00  0.00    +0.116 A 
ATOM      9  C   UNL     1       0.368  -3.453   0.677  0.00  0.00    +0.075 A 
ATOM     10  C   UNL     1       0.383  -2.529   1.772  0.00  0.00    +0.260 A 
ATOM     11  O   UNL     1       0.443  -1.329   1.569  0.00  0.00    -0.267 OA
ATOM     12  N   UNL     1       0.328  -3.008   3.029  0.00  0.00    -0.307 N 
ATOM     13  H   UNL     1       0.338  -2.387   3.775  0.00  0.00    +0.170 HD
ATOM     14  C   UNL     1       0.259  -4.341   3.274  0.00  0.00    +0.152 A 
ATOM     15  N   UNL     1       0.235  -5.208   2.297  0.00  0.00    -0.223 NA
ATOM     16  C   UNL     1       0.441  -4.188  -3.113  0.00  0.00    +0.052 C 
ENDBRANCH   2  14
ENDBRANCH   1   2
BRANCH   1  17
ATOM     17  C   UNL     1      -1.198  -4.370   6.555  0.00  0.00    +0.354 C 
ATOM     18  O   UNL     1      -0.195  -4.375   7.243  0.00  0.00    -0.244 OA
BRANCH  17  19
ATOM     19  C   UNL     1      -2.508  -4.120   7.170  0.00  0.00    +0.119 C 
ATOM     20  C   UNL     1      -2.599  -3.896   8.501  0.00  0.00    +0.038 C 
BRANCH  20  21
ATOM     21  C   UNL     1      -3.920  -3.801   9.142  0.00  0.00    -0.023 A 
ATOM     22  C   UNL     1      -5.055  -4.292   8.489  0.00  0.00    +0.008 A 
ATOM     23  C   UNL     1      -6.290  -4.199   9.096  0.00  0.00    +0.001 A 
ATOM     24  C   UNL     1      -6.407  -3.623  10.349  0.00  0.00    +0.000 A 
ATOM     25  C   UNL     1      -5.289  -3.134  11.002  0.00  0.00    +0.001 A 
ATOM     26  C   UNL     1      -4.046  -3.225  10.411  0.00  0.00    +0.008 A 
ENDBRANCH  20  21
BRANCH  19  27
ATOM     27  N   UNL     1      -3.662  -4.114   6.378  0.00  0.00    -0.280 N 
ATOM     28  C   UNL     1      -3.978  -5.196   5.639  0.00  0.00    +0.214 C 
ATOM     29  O   UNL     1      -3.209  -6.132   5.575  0.00  0.00    -0.276 OA
ATOM     30  C   UNL     1      -5.286  -5.243   4.893  0.00  0.00    +0.109 C 
ATOM     31  H   UNL     1      -4.234  -3.331   6.361  0.00  0.00    +0.155 HD
ENDBRANCH  19  27
ENDBRANCH  17  19
ENDBRANCH   1  17
TORSDOF 6
