REMARK  Name = ZINC20706046
REMARK  5 active torsions:
REMARK  status: ('A' for Active; 'I' for Inactive)
REMARK    1  A    between atoms: C_5  and  C_7
REMARK    2  A    between atoms: N_9  and  C_10
REMARK    3  A    between atoms: C_10  and  C_11
REMARK    4  A    between atoms: C_18  and  C_27
REMARK    5  A    between atoms: C_29  and  N_34
REMARK                            x       y       z     vdW  Elec       q    Type
REMARK                         _______ _______ _______ _____ _____    ______ ____
ROOT
ATOM      1  C   UNL     1      -6.082  -0.421  -1.082  0.00  0.00    +0.001 A 
ATOM      2  C   UNL     1      -6.971  -0.080  -2.088  0.00  0.00    +0.006 A 
ATOM      3  C   UNL     1      -6.583   0.740  -3.126  0.00  0.00    -0.019 A 
ATOM      4  C   UNL     1      -5.280   1.242  -3.186  0.00  0.00    +0.044 A 
ATOM      5  C   UNL     1      -4.383   0.893  -2.155  0.00  0.00    +0.058 A 
ATOM      6  C   UNL     1      -4.793   0.066  -1.111  0.00  0.00    +0.015 A 
ATOM      7  N   UNL     1      -4.785   1.997  -4.211  0.00  0.00    -0.336 N 
ATOM      8  C   UNL     1      -5.749   2.440  -5.231  0.00  0.00    +0.106 C 
ATOM      9  C   UNL     1      -6.678   1.275  -5.503  0.00  0.00    +0.029 C 
ATOM     10  C   UNL     1      -7.522   1.133  -4.198  0.00  0.00    +0.049 C 
ATOM     11  C   UNL     1      -8.657   0.278  -4.625  0.00  0.00    -0.023 C 
ATOM     12  C   UNL     1      -8.871   0.476  -5.921  0.00  0.00    -0.030 C 
ATOM     13  C   UNL     1      -7.848   1.473  -6.472  0.00  0.00    +0.033 C 
ATOM     14  H   UNL     1      -3.725   2.276  -4.298  0.00  0.00    +0.147 HD
ENDROOT
BRANCH   8  15
ATOM     15  C   UNL     1      -5.021   2.822  -6.494  0.00  0.00    -0.007 A 
ATOM     16  C   UNL     1      -3.759   2.316  -6.745  0.00  0.00    +0.039 A 
ATOM     17  C   UNL     1      -3.093   2.663  -7.905  0.00  0.00    +0.127 A 
ATOM     18  C   UNL     1      -3.684   3.524  -8.811  0.00  0.00    +0.034 A 
ATOM     19  C   UNL     1      -4.944   4.035  -8.559  0.00  0.00    +0.022 A 
ATOM     20  C   UNL     1      -5.613   3.684  -7.400  0.00  0.00    +0.046 A 
ATOM     21 CL   UNL     1      -7.194   4.326  -7.082  0.00  0.00    -0.083 Cl
BRANCH  17  22
ATOM     22  N   UNL     1      -1.745   2.116  -8.176  0.00  0.00    +0.056 N 
ATOM     23  O   UNL     1      -1.156   2.425  -9.197  0.00  0.00    -0.126 OA
ATOM     24  O   UNL     1      -1.224   1.357  -7.378  0.00  0.00    -0.126 OA
ENDBRANCH  17  22
ENDBRANCH   8  15
BRANCH   5  25
ATOM     25  C   UNL     1      -3.003   1.412  -2.178  0.00  0.00    +0.246 C 
ATOM     26  O   UNL     1      -2.640   2.135  -3.087  0.00  0.00    -0.270 OA
ATOM     27  N   UNL     1      -2.144   1.086  -1.192  0.00  0.00    -0.309 N 
ATOM     28  H   UNL     1      -2.472   0.433  -0.370  0.00  0.00    +0.149 HD
BRANCH  27  29
ATOM     29  C   UNL     1      -0.773   1.602  -1.215  0.00  0.00    +0.136 C 
BRANCH  29  30
ATOM     30  C   UNL     1      -0.013   1.086   0.008  0.00  0.00    +0.135 C 
ATOM     31  C   UNL     1       1.429   1.629  -0.003  0.00  0.00    +0.035 C 
ATOM     32  C   UNL     1       1.553   2.402   1.333  0.00  0.00    +0.031 C 
ATOM     33  C   UNL     1       0.413   1.778   2.177  0.00  0.00    +0.160 C 
ATOM     34  O   UNL     1      -0.639   1.560   1.212  0.00  0.00    -0.375 OA
ENDBRANCH  29  30
ENDBRANCH  27  29
ENDBRANCH   5  25
TORSDOF 5
