REMARK  Name = ZINC10534808
REMARK  10 active torsions:
REMARK  status: ('A' for Active; 'I' for Inactive)
REMARK    1  A    between atoms: C_1  and  C_2
REMARK    2  A    between atoms: C_2  and  O_3
REMARK    3  A    between atoms: O_3  and  C_4
REMARK    4  A    between atoms: C_4  and  C_6
REMARK    5  A    between atoms: C_7  and  C_31
REMARK    6  A    between atoms: C_11  and  C_15
REMARK    7  A    between atoms: C_15  and  S_16
REMARK    8  A    between atoms: S_16  and  C_17
REMARK    9  A    between atoms: N_21  and  C_22
REMARK   10  A    between atoms: C_25  and  C_29
REMARK                            x       y       z     vdW  Elec       q    Type
REMARK                         _______ _______ _______ _____ _____    ______ ____
ROOT
ATOM      1  C   UNL     1      -7.498  -1.415  -6.546  0.00  0.00    +0.102 A 
ATOM      2  C   UNL     1      -6.995  -0.225  -6.979  0.00  0.00    -0.017 A 
ATOM      3  C   UNL     1      -6.673   0.774  -6.051  0.00  0.00    +0.051 A 
ATOM      4  C   UNL     1      -6.141   2.079  -6.277  0.00  0.00    +0.128 A 
ATOM      5  N   UNL     1      -5.913   2.871  -5.242  0.00  0.00    -0.216 NA
ATOM      6  C   UNL     1      -6.153   2.494  -3.999  0.00  0.00    +0.143 A 
ATOM      7  N   UNL     1      -6.645   1.301  -3.724  0.00  0.00    -0.224 NA
ATOM      8  C   UNL     1      -6.907   0.447  -4.692  0.00  0.00    +0.115 A 
ATOM      9  S   UNL     1      -7.552  -1.204  -4.775  0.00  0.00    -0.062 S 
ATOM     10  N   UNL     1      -5.871   2.511  -7.559  0.00  0.00    -0.343 N 
ATOM     11  C   UNL     1      -6.787   0.017  -8.451  0.00  0.00    +0.046 C 
ATOM     12  H   UNL     1      -6.368   2.146  -8.308  0.00  0.00    +0.144 HD
ATOM     13  H   UNL     1      -5.185   3.180  -7.712  0.00  0.00    +0.144 HD
ENDROOT
BRANCH   1  14
ATOM     14  C   UNL     1      -7.897  -2.581  -7.340  0.00  0.00    +0.346 C 
ATOM     15  O   UNL     1      -7.794  -2.556  -8.552  0.00  0.00    -0.244 OA
BRANCH  14  16
ATOM     16  O   UNL     1      -8.378  -3.682  -6.727  0.00  0.00    -0.461 OA
BRANCH  16  18
ATOM     17  C   UNL     1      -9.272  -5.947  -6.709  0.00  0.00    +0.048 C 
ATOM     18  C   UNL     1      -8.753  -4.798  -7.576  0.00  0.00    +0.229 C 
ENDBRANCH  16  18
ENDBRANCH  14  16
ENDBRANCH   1  14
BRANCH   6  19
ATOM     19  C   UNL     1      -5.864   3.449  -2.870  0.00  0.00    +0.153 C 
BRANCH  19  20
ATOM     20  S   UNL     1      -4.164   3.207  -2.296  0.00  0.00    -0.078 S 
BRANCH  20  21
ATOM     21  C   UNL     1      -4.099   4.416  -1.015  0.00  0.00    +0.196 A 
ATOM     22  N   UNL     1      -5.071   5.220  -0.650  0.00  0.00    -0.122 NA
ATOM     23  N   UNL     1      -4.676   5.975   0.312  0.00  0.00    -0.137 NA
ATOM     24  C   UNL     1      -3.442   5.698   0.622  0.00  0.00    +0.230 A 
ATOM     25  N   UNL     1      -3.029   4.691  -0.210  0.00  0.00    -0.277 N 
BRANCH  25  26
ATOM     26  C   UNL     1      -1.768   4.076  -0.235  0.00  0.00    +0.051 A 
ATOM     27  C   UNL     1      -0.617   4.851  -0.279  0.00  0.00    +0.026 A 
ATOM     28  C   UNL     1       0.623   4.242  -0.303  0.00  0.00    +0.007 A 
ATOM     29  C   UNL     1       0.719   2.863  -0.284  0.00  0.00    -0.032 A 
ATOM     30  C   UNL     1      -0.427   2.088  -0.240  0.00  0.00    +0.046 A 
ATOM     31  C   UNL     1      -1.671   2.692  -0.222  0.00  0.00    +0.046 A 
ATOM     32 CL   UNL     1      -0.302   0.357  -0.216  0.00  0.00    -0.083 Cl
ATOM     33  C   UNL     1       2.073   2.203  -0.311  0.00  0.00    +0.045 C 
ENDBRANCH  25  26
ENDBRANCH  20  21
ENDBRANCH  19  20
ENDBRANCH   6  19
TORSDOF 7
