REMARK  Name = ZINC59266385
REMARK  5 active torsions:
REMARK  status: ('A' for Active; 'I' for Inactive)
REMARK    1  A    between atoms: C_4  and  N_7
REMARK    2  A    between atoms: N_16  and  C_17
REMARK    3  A    between atoms: C_17  and  C_19
REMARK    4  A    between atoms: C_22  and  S_25
REMARK    5  A    between atoms: S_25  and  N_28
REMARK                            x       y       z     vdW  Elec       q    Type
REMARK                         _______ _______ _______ _____ _____    ______ ____
ROOT
ATOM      1  N   UNL     1       3.624  -0.652  -0.038  0.00  0.00    -0.280 N 
ATOM      2  C   UNL     1       3.792  -2.031   0.066  0.00  0.00    +0.073 A 
ATOM      3  C   UNL     1       2.900  -3.087   0.179  0.00  0.00    +0.028 A 
ATOM      4  C   UNL     1       3.373  -4.381   0.266  0.00  0.00    +0.002 A 
ATOM      5  C   UNL     1       4.736  -4.630   0.242  0.00  0.00    +0.002 A 
ATOM      6  C   UNL     1       5.632  -3.586   0.129  0.00  0.00    +0.028 A 
ATOM      7  C   UNL     1       5.166  -2.281   0.041  0.00  0.00    +0.066 A 
ATOM      8  N   UNL     1       5.806  -1.052  -0.078  0.00  0.00    -0.325 N 
ATOM      9  C   UNL     1       4.856  -0.079  -0.130  0.00  0.00    +0.206 A 
ATOM     10  N   UNL     1       5.093   1.222  -0.248  0.00  0.00    -0.142 NA
ATOM     11  H   UNL     1       6.765  -0.912  -0.120  0.00  0.00    +0.169 HD
ENDROOT
BRANCH   1  15
ATOM     12  C   UNL     1      -0.020   1.368  -0.078  0.00  0.00    +0.000 A 
ATOM     13  C   UNL     1       0.290   0.526   0.974  0.00  0.00    +0.002 A 
ATOM     14  C   UNL     1       1.497  -0.145   0.990  0.00  0.00    +0.026 A 
ATOM     15  C   UNL     1       2.399   0.026  -0.052  0.00  0.00    +0.050 A 
ATOM     16  C   UNL     1       2.084   0.873  -1.107  0.00  0.00    +0.026 A 
ATOM     17  C   UNL     1       0.876   1.541  -1.117  0.00  0.00    +0.002 A 
ENDBRANCH   1  15
BRANCH  10  18
ATOM     18  C   UNL     1       6.341   1.660  -0.446  0.00  0.00    +0.270 C 
ATOM     19  O   UNL     1       7.245   0.863  -0.621  0.00  0.00    -0.268 OA
BRANCH  18  20
ATOM     20  C   UNL     1       6.624   3.114  -0.454  0.00  0.00    +0.039 A 
ATOM     21  C   UNL     1       5.591   4.029  -0.248  0.00  0.00    +0.015 A 
ATOM     22  C   UNL     1       5.861   5.382  -0.256  0.00  0.00    +0.029 A 
ATOM     23  C   UNL     1       7.152   5.832  -0.467  0.00  0.00    +0.106 A 
ATOM     24  C   UNL     1       8.180   4.929  -0.671  0.00  0.00    +0.029 A 
ATOM     25  C   UNL     1       7.924   3.573  -0.660  0.00  0.00    +0.015 A 
BRANCH  23  26
ATOM     26  S   UNL     1       7.488   7.561  -0.476  0.00  0.00    +0.061 S 
ATOM     27  O   UNL     1       8.675   7.740  -1.236  0.00  0.00    -0.153 OA
ATOM     28  O   UNL     1       6.268   8.211  -0.805  0.00  0.00    -0.153 OA
BRANCH  26  29
ATOM     29  N   UNL     1       7.852   7.998   1.079  0.00  0.00    -0.177 NA
ATOM     30  C   UNL     1       6.885   8.443   2.093  0.00  0.00    +0.109 C 
ATOM     31  C   UNL     1       7.680   8.764   3.376  0.00  0.00    +0.018 C 
ATOM     32  C   UNL     1       9.113   9.023   2.840  0.00  0.00    +0.018 C 
ATOM     33  C   UNL     1       9.199   7.998   1.679  0.00  0.00    +0.109 C 
ENDBRANCH  26  29
ENDBRANCH  23  26
ENDBRANCH  18  20
ENDBRANCH  10  18
TORSDOF 5
