REMARK  Name = ZINC25364394
REMARK  6 active torsions:
REMARK  status: ('A' for Active; 'I' for Inactive)
REMARK    1  A    between atoms: C_1  and  C_2
REMARK    2  A    between atoms: N_4  and  C_27
REMARK    3  A    between atoms: C_8  and  S_10
REMARK    4  A    between atoms: S_10  and  C_11
REMARK    5  A    between atoms: C_11  and  C_13
REMARK    6  A    between atoms: C_11  and  C_19
REMARK                            x       y       z     vdW  Elec       q    Type
REMARK                         _______ _______ _______ _____ _____    ______ ____
ROOT
ATOM      1  C   UNL     1       4.201   3.326   0.032  0.00  0.00    +0.169 C 
ENDROOT
BRANCH   1   2
ATOM      2  C   UNL     1       5.595   3.887  -0.088  0.00  0.00    +0.233 C 
ATOM      3  O   UNL     1       6.553   3.195   0.186  0.00  0.00    -0.274 OA
ATOM      4  N   UNL     1       5.777   5.158  -0.498  0.00  0.00    -0.300 N 
ATOM      5  C   UNL     1       4.627   6.006  -0.839  0.00  0.00    +0.108 C 
ATOM      6  C   UNL     1       4.722   7.307  -0.028  0.00  0.00    +0.019 C 
ATOM      7  C   UNL     1       6.082   7.961  -0.281  0.00  0.00    +0.003 C 
ATOM      8  C   UNL     1       7.197   7.021   0.184  0.00  0.00    +0.019 C 
ATOM      9  C   UNL     1       7.130   5.719  -0.620  0.00  0.00    +0.108 C 
ENDBRANCH   1   2
BRANCH   1  10
ATOM     10  C   UNL     1       3.581   3.793   1.324  0.00  0.00    -0.025 A 
ATOM     11  C   UNL     1       4.171   3.468   2.531  0.00  0.00    +0.005 A 
ATOM     12  C   UNL     1       3.605   3.900   3.715  0.00  0.00    +0.000 A 
ATOM     13  C   UNL     1       2.443   4.648   3.693  0.00  0.00    +0.000 A 
ATOM     14  C   UNL     1       1.850   4.969   2.486  0.00  0.00    +0.000 A 
ATOM     15  C   UNL     1       2.419   4.541   1.302  0.00  0.00    +0.005 A 
ENDBRANCH   1  10
BRANCH   1  16
ATOM     16  S   UNL     1       4.276   1.514   0.017  0.00  0.00    -0.079 S 
BRANCH  16  24
ATOM     17  C   UNL     1      -2.233  -2.971  -0.213  0.00  0.00    +0.110 C 
ATOM     18  C   UNL     1      -0.961  -2.171  -0.104  0.00  0.00    +0.218 C 
ATOM     19  O   UNL     1       0.113  -2.735  -0.110  0.00  0.00    -0.275 OA
ATOM     20  N   UNL     1      -1.016  -0.829  -0.001  0.00  0.00    -0.246 N 
ATOM     21  C   UNL     1       0.160  -0.082   0.005  0.00  0.00    +0.191 A 
ATOM     22  N   UNL     1       0.334   1.230   0.015  0.00  0.00    -0.125 NA
ATOM     23  N   UNL     1       1.482   1.752   0.020  0.00  0.00    -0.133 NA
ATOM     24  C   UNL     1       2.585   1.018   0.013  0.00  0.00    +0.161 A 
ATOM     25  S   UNL     1       1.867  -0.622  -0.000  0.00  0.00    -0.024 S 
BRANCH  20  26
ATOM     26  C   UNL     1      -2.312  -0.155   0.106  0.00  0.00    +0.084 C 
ATOM     27  C   UNL     1      -2.344   1.358  -0.122  0.00  0.00    +0.025 C 
ATOM     28  C   UNL     1      -2.521   0.793   1.289  0.00  0.00    +0.025 C 
ENDBRANCH  20  26
ENDBRANCH  16  24
ENDBRANCH   1  16
TORSDOF 5
