REMARK  Name = ZINC06442826
REMARK  16 active torsions:
REMARK  status: ('A' for Active; 'I' for Inactive)
REMARK    1  A    between atoms: C_1  and  C_2
REMARK    2  A    between atoms: C_6  and  N_9
REMARK    3  A    between atoms: C_7  and  C_8
REMARK    4  A    between atoms: N_9  and  C_10
REMARK    5  A    between atoms: C_10  and  C_12
REMARK    6  A    between atoms: C_10  and  C_21
REMARK    7  A    between atoms: C_15  and  N_18
REMARK    8  A    between atoms: N_18  and  C_19
REMARK    9  A    between atoms: N_18  and  C_20
REMARK   10  A    between atoms: N_23  and  C_24
REMARK   11  A    between atoms: C_24  and  C_25
REMARK   12  A    between atoms: C_25  and  O_26
REMARK   13  A    between atoms: O_26  and  C_27
REMARK   14  A    between atoms: C_28  and  C_30
REMARK   15  A    between atoms: C_31  and  N_38
REMARK   16  A    between atoms: C_32  and  C_35
REMARK                            x       y       z     vdW  Elec       q    Type
REMARK                         _______ _______ _______ _____ _____    ______ ____
ROOT
ATOM      1  N   UNL     1       1.786   1.534   2.132  0.00  0.00    -0.251 N 
ATOM      2  C   UNL     1       2.155   2.529   2.963  0.00  0.00    +0.262 C 
ATOM      3  O   UNL     1       2.681   2.268   4.029  0.00  0.00    -0.269 OA
ENDROOT
BRANCH   1   9
ATOM      4  C   UNL     1       2.190   2.346  -2.699  0.00  0.00    +0.044 C 
ATOM      5  C   UNL     1       1.353   2.233  -1.451  0.00  0.00    -0.046 A 
ATOM      6  C   UNL     1      -0.015   2.427  -1.516  0.00  0.00    +0.004 A 
ATOM      7  C   UNL     1      -0.785   2.329  -0.372  0.00  0.00    +0.002 A 
ATOM      8  C   UNL     1      -0.191   2.033   0.839  0.00  0.00    +0.024 A 
ATOM      9  C   UNL     1       1.181   1.833   0.907  0.00  0.00    +0.041 A 
ATOM     10  C   UNL     1       1.952   1.932  -0.244  0.00  0.00    -0.026 A 
ATOM     11  C   UNL     1       3.442   1.716  -0.175  0.00  0.00    +0.046 C 
ENDBRANCH   1   9
BRANCH   2  12
ATOM     12  C   UNL     1       1.923   3.923   2.583  0.00  0.00    +0.116 A 
ATOM     13  C   UNL     1       2.218   5.093   3.286  0.00  0.00    +0.076 A 
ATOM     14  C   UNL     1       1.846   6.243   2.589  0.00  0.00    +0.155 A 
ATOM     15  N   UNL     1       1.277   6.125   1.410  0.00  0.00    -0.203 NA
ATOM     16  S   UNL     1       1.182   4.582   1.103  0.00  0.00    +0.019 S 
BRANCH  14  17
ATOM     17  C   UNL     1       2.083   7.576   3.172  0.00  0.00    +0.262 C 
ATOM     18  O   UNL     1       2.608   7.678   4.264  0.00  0.00    -0.269 OA
ATOM     19  N   UNL     1       1.716   8.682   2.495  0.00  0.00    -0.324 N 
ATOM     20  H   UNL     1       1.297   8.601   1.624  0.00  0.00    +0.145 HD
ATOM     21  H   UNL     1       1.872   9.560   2.878  0.00  0.00    +0.145 HD
ENDBRANCH  14  17
BRANCH  13  22
ATOM     22  N   UNL     1       2.817   5.110   4.538  0.00  0.00    -0.355 N 
ATOM     23  H   UNL     1       3.056   4.276   4.973  0.00  0.00    +0.142 HD
ATOM     24  H   UNL     1       2.998   5.955   4.978  0.00  0.00    +0.142 HD
ENDBRANCH  13  22
ENDBRANCH   2  12
BRANCH   1  25
ATOM     25  C   UNL     1       2.018   0.138   2.513  0.00  0.00    +0.197 C 
BRANCH  25  26
ATOM     26  C   UNL     1       1.646  -0.764   1.364  0.00  0.00    -0.018 A 
ATOM     27  C   UNL     1       0.343  -0.789   0.900  0.00  0.00    +0.008 A 
ATOM     28  C   UNL     1       0.001  -1.611  -0.156  0.00  0.00    +0.023 A 
ATOM     29  C   UNL     1       0.963  -2.421  -0.745  0.00  0.00    +0.029 A 
ATOM     30  C   UNL     1       2.269  -2.397  -0.273  0.00  0.00    +0.023 A 
ATOM     31  C   UNL     1       2.607  -1.569   0.780  0.00  0.00    +0.008 A 
BRANCH  29  32
ATOM     32  N   UNL     1       0.618  -3.257  -1.809  0.00  0.00    -0.336 N 
ATOM     33  C   UNL     1       1.605  -4.194  -2.353  0.00  0.00    +0.129 C 
ATOM     34  C   UNL     1      -0.729  -3.198  -2.380  0.00  0.00    +0.129 C 
ENDBRANCH  29  32
ENDBRANCH  25  26
BRANCH  25  35
ATOM     35  C   UNL     1       1.173  -0.203   3.713  0.00  0.00    +0.239 C 
ATOM     36  O   UNL     1       0.448   0.637   4.202  0.00  0.00    -0.273 OA
ATOM     37  N   UNL     1       1.222  -1.441   4.242  0.00  0.00    -0.311 N 
ATOM     38  H   UNL     1       1.802  -2.113   3.851  0.00  0.00    +0.149 HD
BRANCH  37  39
ATOM     39  C   UNL     1       0.401  -1.772   5.409  0.00  0.00    +0.132 C 
BRANCH  39  40
ATOM     40  C   UNL     1       0.643  -3.230   5.806  0.00  0.00    +0.178 C 
BRANCH  40  41
ATOM     41  O   UNL     1       1.996  -3.387   6.240  0.00  0.00    -0.381 OA
ATOM     42  C   UNL     1       2.329  -4.719   6.635  0.00  0.00    +0.194 C 
ENDBRANCH  40  41
ENDBRANCH  39  40
ENDBRANCH  37  39
ENDBRANCH  25  35
ENDBRANCH   1  25
TORSDOF 11
