REMARK  Name = ZINC11347891
REMARK  8 active torsions:
REMARK  status: ('A' for Active; 'I' for Inactive)
REMARK    1  A    between atoms: C_1  and  C_2
REMARK    2  A    between atoms: C_6  and  C_27
REMARK    3  A    between atoms: C_7  and  O_8
REMARK    4  A    between atoms: O_8  and  C_9
REMARK    5  A    between atoms: C_9  and  C_10
REMARK    6  A    between atoms: C_10  and  S_11
REMARK    7  A    between atoms: S_11  and  C_12
REMARK    8  A    between atoms: C_15  and  C_17
REMARK                            x       y       z     vdW  Elec       q    Type
REMARK                         _______ _______ _______ _____ _____    ______ ____
ROOT
ATOM      1  C   UNL     1      -0.940   1.718  -3.959  0.00  0.00    +0.278 A 
ATOM      2  N   UNL     1      -2.010   2.446  -3.752  0.00  0.00    -0.101 NA
ATOM      3  N   UNL     1      -2.514   2.799  -4.881  0.00  0.00    -0.106 NA
ATOM      4  C   UNL     1      -1.791   2.301  -5.856  0.00  0.00    +0.251 A 
ATOM      5  O   UNL     1      -0.779   1.606  -5.292  0.00  0.00    -0.411 OA
ENDROOT
BRANCH   4   6
ATOM      6  C   UNL     1      -2.039   2.468  -7.301  0.00  0.00    +0.063 A 
ATOM      7  C   UNL     1      -1.292   1.960  -8.316  0.00  0.00    +0.097 A 
ATOM      8  N   UNL     1      -1.835   2.324  -9.514  0.00  0.00    -0.360 N 
ATOM      9  H   UNL     1      -1.480   2.078 -10.382  0.00  0.00    +0.165 HD
ATOM     10  C   UNL     1      -2.959   3.097  -9.312  0.00  0.00    +0.047 A 
ATOM     11  C   UNL     1      -3.139   3.223  -7.924  0.00  0.00    +0.012 A 
ATOM     12  C   UNL     1      -4.210   3.960  -7.424  0.00  0.00    +0.011 A 
ATOM     13  C   UNL     1      -5.091   4.562  -8.296  0.00  0.00    +0.001 A 
ATOM     14  C   UNL     1      -4.914   4.438  -9.666  0.00  0.00    +0.002 A 
ATOM     15  C   UNL     1      -3.859   3.713 -10.176  0.00  0.00    +0.026 A 
ENDBRANCH   4   6
BRANCH   1  16
ATOM     16  S   UNL     1       0.095   1.009  -2.721  0.00  0.00    -0.062 S 
BRANCH  16  17
ATOM     17  C   UNL     1      -0.753   1.593  -1.232  0.00  0.00    +0.120 C 
BRANCH  17  18
ATOM     18  C   UNL     1      -0.013   1.086   0.008  0.00  0.00    +0.240 C 
BRANCH  18  19
ATOM     19  O   UNL     1      -0.682   1.547   1.184  0.00  0.00    -0.491 OA
BRANCH  19  26
ATOM     20  C   UNL     1      -1.599  -0.863   2.338  0.00  0.00    +0.047 C 
ATOM     21  C   UNL     1      -0.560   0.009   2.995  0.00  0.00    -0.009 A 
ATOM     22  C   UNL     1      -0.013  -0.362   4.208  0.00  0.00    +0.007 A 
ATOM     23  C   UNL     1       0.936   0.440   4.814  0.00  0.00    +0.001 A 
ATOM     24  C   UNL     1       1.344   1.613   4.205  0.00  0.00    +0.007 A 
ATOM     25  C   UNL     1       0.803   1.986   2.990  0.00  0.00    -0.009 A 
ATOM     26  C   UNL     1      -0.149   1.182   2.380  0.00  0.00    +0.126 A 
ATOM     27  C   UNL     1       1.249   3.264   2.327  0.00  0.00    +0.047 C 
ENDBRANCH  19  26
ENDBRANCH  18  19
ENDBRANCH  17  18
ENDBRANCH  16  17
ENDBRANCH   1  16
TORSDOF 6
