REMARK  Name = ZINC59309988
REMARK  12 active torsions:
REMARK  status: ('A' for Active; 'I' for Inactive)
REMARK    1  A    between atoms: C_1  and  C_2
REMARK    2  A    between atoms: C_3  and  C_9
REMARK    3  A    between atoms: C_4  and  C_8
REMARK    4  A    between atoms: N_5  and  C_7
REMARK    5  A    between atoms: N_10  and  N_11
REMARK    6  A    between atoms: C_14  and  S_17
REMARK    7  A    between atoms: S_17  and  C_18
REMARK    8  A    between atoms: C_18  and  C_19
REMARK    9  A    between atoms: N_21  and  C_22
REMARK   10  A    between atoms: C_29  and  S_31
REMARK   11  A    between atoms: S_31  and  C_32
REMARK   12  A    between atoms: C_32  and  C_33
REMARK                            x       y       z     vdW  Elec       q    Type
REMARK                         _______ _______ _______ _____ _____    ______ ____
ROOT
ATOM      1  S   UNL     1       0.302   6.454  -3.406  0.00  0.00    -0.075 S 
ENDROOT
BRANCH   1   5
ATOM      2  N   UNL     1       0.492   1.362  -4.097  0.00  0.00    -0.205 N 
ATOM      3  C   UNL     1       0.374   2.707  -4.391  0.00  0.00    +0.232 A 
ATOM      4  N   UNL     1       0.441   3.697  -3.526  0.00  0.00    -0.186 NA
ATOM      5  C   UNL     1       0.284   4.863  -4.163  0.00  0.00    +0.211 A 
ATOM      6  N   UNL     1       0.115   4.630  -5.442  0.00  0.00    -0.144 NA
ATOM      7  N   UNL     1       0.174   3.237  -5.616  0.00  0.00    -0.245 N 
ATOM      8  H   UNL     1       0.433   0.703  -4.807  0.00  0.00    +0.177 HD
ATOM      9  H   UNL     1       0.086   2.752  -6.452  0.00  0.00    +0.192 HD
BRANCH   2  11
ATOM     10  C   UNL     1       0.810  -0.314  -2.499  0.00  0.00    +0.141 C 
ATOM     11  N   UNL     1       0.699   0.949  -2.774  0.00  0.00    -0.187 NA
BRANCH  10  14
ATOM     12  C   UNL     1       1.046   1.594   0.024  0.00  0.00    +0.068 C 
ATOM     13  C   UNL     1       1.135   0.089   0.026  0.00  0.00    +0.069 A 
ATOM     14  C   UNL     1       1.028  -0.749  -1.105  0.00  0.00    +0.038 A 
ATOM     15  C   UNL     1       1.164  -2.048  -0.666  0.00  0.00    +0.045 A 
ATOM     16  N   UNL     1       1.346  -2.005   0.669  0.00  0.00    -0.271 N 
ATOM     17  N   UNL     1       1.329  -0.665   1.074  0.00  0.00    -0.176 NA
ATOM     18  C   UNL     1       1.535  -3.163   1.546  0.00  0.00    +0.172 C 
ATOM     19  C   UNL     1       1.119  -3.288  -1.521  0.00  0.00    +0.066 C 
ENDBRANCH  10  14
ENDBRANCH   2  11
ENDBRANCH   1   5
BRANCH   1  20
ATOM     20  C   UNL     1       0.040   7.600  -4.787  0.00  0.00    +0.173 C 
BRANCH  20  21
ATOM     21  C   UNL     1       0.033   9.016  -4.271  0.00  0.00    +0.227 C 
ATOM     22  O   UNL     1       0.190   9.230  -3.087  0.00  0.00    -0.275 OA
ATOM     23  N   UNL     1      -0.147  10.043  -5.124  0.00  0.00    -0.285 N 
ATOM     24  H   UNL     1      -0.195   9.878  -6.078  0.00  0.00    +0.155 HD
BRANCH  23  25
ATOM     25  C   UNL     1      -0.264  11.350  -4.632  0.00  0.00    +0.035 A 
ATOM     26  C   UNL     1       0.212  12.428  -5.375  0.00  0.00    +0.025 A 
ATOM     27  C   UNL     1       0.108  13.714  -4.914  0.00  0.00    +0.031 A 
ATOM     28  C   UNL     1      -0.489  13.989  -3.661  0.00  0.00    +0.080 A 
ATOM     29  C   UNL     1      -0.960  12.873  -2.934  0.00  0.00    +0.042 A 
ATOM     30  C   UNL     1      -0.860  11.587  -3.400  0.00  0.00    +0.040 A 
ATOM     31  S   UNL     1      -1.618  13.628  -1.466  0.00  0.00    -0.061 S 
ATOM     32  C   UNL     1      -1.239  15.321  -1.894  0.00  0.00    +0.136 A 
ATOM     33  N   UNL     1      -0.666  15.192  -3.069  0.00  0.00    -0.233 NA
BRANCH  32  34
ATOM     34  S   UNL     1      -1.554  16.791  -0.974  0.00  0.00    -0.095 S 
BRANCH  34  35
ATOM     35  C   UNL     1      -0.900  18.116  -2.026  0.00  0.00    +0.103 C 
BRANCH  35  36
ATOM     36  C   UNL     1      -1.108  19.445  -1.348  0.00  0.00    -0.023 C 
ATOM     37  C   UNL     1      -0.075  20.155  -0.968  0.00  0.00    +0.005 C 
ENDBRANCH  35  36
ENDBRANCH  34  35
ENDBRANCH  32  34
ENDBRANCH  23  25
ENDBRANCH  20  21
ENDBRANCH   1  20
TORSDOF 9
