REMARK  Name = ZINC36569330
REMARK  13 active torsions:
REMARK  status: ('A' for Active; 'I' for Inactive)
REMARK    1  A    between atoms: C_1  and  C_2
REMARK    2  A    between atoms: C_2  and  C_4
REMARK    3  A    between atoms: C_2  and  N_12
REMARK    4  A    between atoms: N_6  and  C_7
REMARK    5  A    between atoms: C_7  and  C_8
REMARK    6  A    between atoms: C_8  and  N_9
REMARK    7  A    between atoms: N_9  and  C_10
REMARK    8  A    between atoms: N_9  and  C_11
REMARK    9  A    between atoms: C_13  and  C_15
REMARK   10  A    between atoms: C_18  and  C_21
REMARK   11  A    between atoms: C_21  and  N_22
REMARK   12  A    between atoms: N_22  and  S_23
REMARK   13  A    between atoms: S_23  and  C_26
REMARK                            x       y       z     vdW  Elec       q    Type
REMARK                         _______ _______ _______ _____ _____    ______ ____
ROOT
ATOM      1  C   UNL     1       2.783  -1.099   2.395  0.00  0.00    +0.075 C 
ATOM      2  C   UNL     1       2.502  -0.165   3.574  0.00  0.00    +0.013 C 
ATOM      3  C   UNL     1       2.985   1.246   3.233  0.00  0.00    +0.005 C 
ATOM      4  C   UNL     1       4.489   1.216   2.952  0.00  0.00    +0.005 C 
ATOM      5  C   UNL     1       4.769   0.283   1.773  0.00  0.00    +0.005 C 
ATOM      6  C   UNL     1       4.287  -1.129   2.114  0.00  0.00    +0.013 C 
ENDROOT
BRANCH   1   8
ATOM      7  N   UNL     1       0.711  -0.489   1.189  0.00  0.00    -0.304 N 
ATOM      8  C   UNL     1       2.054  -0.600   1.174  0.00  0.00    +0.217 C 
ATOM      9  O   UNL     1       2.676  -0.297   0.177  0.00  0.00    -0.275 OA
ATOM     10  H   UNL     1       0.213  -0.731   1.986  0.00  0.00    +0.149 HD
BRANCH   7  12
ATOM     11  C   UNL     1      -0.019   1.526   0.010  0.00  0.00    +0.038 C 
ATOM     12  C   UNL     1       0.002  -0.004   0.002  0.00  0.00    +0.156 C 
BRANCH  12  13
ATOM     13  C   UNL     1      -1.412  -0.526   0.013  0.00  0.00    +0.233 C 
ATOM     14  O   UNL     1      -1.790  -1.233   0.922  0.00  0.00    -0.274 OA
ATOM     15  N   UNL     1      -2.256  -0.206  -0.988  0.00  0.00    -0.316 N 
ATOM     16  H   UNL     1      -1.953   0.360  -1.716  0.00  0.00    +0.149 HD
BRANCH  15  17
ATOM     17  C   UNL     1      -3.630  -0.713  -0.978  0.00  0.00    +0.085 C 
BRANCH  17  18
ATOM     18  C   UNL     1      -4.370  -0.206  -2.217  0.00  0.00    -0.061 C 
BRANCH  18  19
ATOM     19  N   UNL     1      -5.748  -0.715  -2.207  0.00  0.00    +0.377 N 
ATOM     20  C   UNL     1      -6.472  -0.145  -1.062  0.00  0.00    -0.097 C 
ATOM     21  C   UNL     1      -6.422  -0.328  -3.454  0.00  0.00    -0.097 C 
ATOM     22  H   UNL     1      -5.735  -1.721  -2.130  0.00  0.00    -0.083 HD
ENDBRANCH  18  19
ENDBRANCH  17  18
ENDBRANCH  15  17
ENDBRANCH  12  13
ENDBRANCH   7  12
ENDBRANCH   1   8
BRANCH   4  23
ATOM     23  C   UNL     1       4.972   2.628   2.611  0.00  0.00    +0.109 C 
BRANCH  23  24
ATOM     24  N   UNL     1       6.429   2.622   2.460  0.00  0.00    -0.190 NA
ATOM     25  H   UNL     1       6.947   1.868   2.784  0.00  0.00    +0.148 HD
BRANCH  24  26
ATOM     26  S   UNL     1       7.191   3.901   1.736  0.00  0.00    +0.058 S 
ATOM     27  O   UNL     1       8.583   3.613   1.764  0.00  0.00    -0.153 OA
ATOM     28  O   UNL     1       6.491   4.160   0.527  0.00  0.00    -0.153 OA
BRANCH  26  29
ATOM     29  C   UNL     1       6.947   5.306   2.771  0.00  0.00    +0.105 A 
ATOM     30  C   UNL     1       5.843   6.117   2.585  0.00  0.00    +0.031 A 
ATOM     31  C   UNL     1       5.649   7.219   3.396  0.00  0.00    +0.040 A 
ATOM     32  C   UNL     1       6.563   7.512   4.395  0.00  0.00    +0.124 A 
ATOM     33  C   UNL     1       7.669   6.699   4.580  0.00  0.00    +0.040 A 
ATOM     34  C   UNL     1       7.857   5.595   3.771  0.00  0.00    +0.031 A 
ATOM     35  F   UNL     1       6.375   8.589   5.188  0.00  0.00    -0.205 F 
ENDBRANCH  26  29
ENDBRANCH  24  26
ENDBRANCH  23  24
ENDBRANCH   4  23
TORSDOF 10
