REMARK  Name = ZINC64480133
REMARK  10 active torsions:
REMARK  status: ('A' for Active; 'I' for Inactive)
REMARK    1  A    between atoms: C_1  and  C_2
REMARK    2  A    between atoms: C_6  and  O_8
REMARK    3  A    between atoms: O_8  and  C_9
REMARK    4  A    between atoms: C_9  and  C_11
REMARK    5  A    between atoms: C_12  and  C_35
REMARK    6  A    between atoms: C_14  and  C_19
REMARK    7  A    between atoms: C_19  and  C_20
REMARK    8  A    between atoms: N_22  and  C_23
REMARK    9  A    between atoms: C_23  and  C_24
REMARK   10  A    between atoms: C_24  and  C_25
REMARK                            x       y       z     vdW  Elec       q    Type
REMARK                         _______ _______ _______ _____ _____    ______ ____
ROOT
ATOM      1  C   UNL     1      -2.444  -4.092  -1.157  0.00  0.00    +0.111 C 
ENDROOT
BRANCH   1  10
ATOM      2  C   UNL     1       1.063   1.349   0.496  0.00  0.00    +0.044 C 
ATOM      3  C   UNL     1       0.712  -0.111   0.366  0.00  0.00    -0.043 A 
ATOM      4  C   UNL     1       0.421  -0.644  -0.873  0.00  0.00    +0.050 A 
ATOM      5  C   UNL     1       0.099  -1.991  -1.001  0.00  0.00    +0.139 A 
ATOM      6  C   UNL     1       0.076  -2.802   0.119  0.00  0.00    +0.041 A 
ATOM      7  C   UNL     1       0.365  -2.261   1.367  0.00  0.00    +0.139 A 
ATOM      8  C   UNL     1       0.688  -0.918   1.487  0.00  0.00    +0.050 A 
ATOM      9  C   UNL     1      -0.245  -4.273   0.031  0.00  0.00    +0.037 C 
ATOM     10  C   UNL     1      -0.993  -4.565  -1.274  0.00  0.00    +0.114 C 
ATOM     11  C   UNL     1      -0.291  -3.808  -2.383  0.00  0.00    +0.317 C 
ATOM     12  O   UNL     1       0.158  -4.376  -3.350  0.00  0.00    -0.250 OA
ATOM     13  O   UNL     1      -0.192  -2.471  -2.240  0.00  0.00    -0.425 OA
ATOM     14  C   UNL     1      -1.123  -4.674   1.219  0.00  0.00    +0.013 C 
BRANCH   7  15
ATOM     15  O   UNL     1       0.335  -3.052   2.471  0.00  0.00    -0.426 OA
BRANCH  15  16
ATOM     16  C   UNL     1       1.451  -3.724   2.796  0.00  0.00    +0.309 C 
ATOM     17  O   UNL     1       2.467  -3.548   2.166  0.00  0.00    -0.251 OA
ATOM     18  C   UNL     1       1.437  -4.699   3.945  0.00  0.00    +0.136 C 
ENDBRANCH  15  16
ENDBRANCH   7  15
ENDBRANCH   1  10
BRANCH   1  19
ATOM     19  C   UNL     1      -3.203  -4.492  -2.396  0.00  0.00    +0.214 C 
ATOM     20  O   UNL     1      -2.640  -5.097  -3.284  0.00  0.00    -0.276 OA
ATOM     21  N   UNL     1      -4.509  -4.179  -2.516  0.00  0.00    -0.315 N 
ATOM     22  H   UNL     1      -4.959  -3.695  -1.806  0.00  0.00    +0.149 HD
BRANCH  21  23
ATOM     23  C   UNL     1      -5.247  -4.568  -3.720  0.00  0.00    +0.108 C 
BRANCH  23  24
ATOM     24  C   UNL     1      -6.697  -4.095  -3.604  0.00  0.00    +0.052 C 
BRANCH  24  25
ATOM     25  C   UNL     1      -7.457  -4.495  -4.842  0.00  0.00    -0.040 C 
ATOM     26  C   UNL     1      -8.217  -5.602  -5.008  0.00  0.00    +0.002 A 
ATOM     27  C   UNL     1      -8.549  -6.721  -4.119  0.00  0.00    +0.048 A 
ATOM     28  C   UNL     1      -9.354  -7.708  -4.579  0.00  0.00    +0.124 A 
ATOM     29  C   UNL     1      -9.877  -7.687  -5.881  0.00  0.00    +0.040 A 
ATOM     30  C   UNL     1      -9.615  -6.692  -6.755  0.00  0.00    +0.029 A 
ATOM     31  C   UNL     1      -8.781  -5.604  -6.377  0.00  0.00    +0.043 A 
ATOM     32  N   UNL     1      -8.385  -4.539  -7.032  0.00  0.00    -0.380 N 
ATOM     33  C   UNL     1      -7.530  -3.738  -6.149  0.00  0.00    +0.144 C 
ATOM     34  F   UNL     1      -9.662  -8.740  -3.763  0.00  0.00    -0.205 F 
ATOM     35  H   UNL     1      -8.622  -4.316  -7.946  0.00  0.00    +0.160 HD
ENDBRANCH  24  25
ENDBRANCH  23  24
ENDBRANCH  21  23
ENDBRANCH   1  19
TORSDOF 7
