REMARK  Name = ZINC33257239
REMARK  8 active torsions:
REMARK  status: ('A' for Active; 'I' for Inactive)
REMARK    1  A    between atoms: C_1  and  C_2
REMARK    2  A    between atoms: C_2  and  C_3
REMARK    3  A    between atoms: C_3  and  C_5
REMARK    4  A    between atoms: C_3  and  N_6
REMARK    5  A    between atoms: N_9  and  C_10
REMARK    6  A    between atoms: C_13  and  C_16
REMARK    7  A    between atoms: C_18  and  C_21
REMARK    8  A    between atoms: C_21  and  C_22
REMARK                            x       y       z     vdW  Elec       q    Type
REMARK                         _______ _______ _______ _____ _____    ______ ____
ROOT
ATOM      1  C   UNL     1       6.224   0.388  -0.050  0.00  0.00    +0.035 A 
ATOM      2  C   UNL     1       5.475  -0.769   0.134  0.00  0.00    +0.024 A 
ATOM      3  C   UNL     1       4.099  -0.704   0.154  0.00  0.00    +0.013 A 
ATOM      4  C   UNL     1       3.457   0.523  -0.010  0.00  0.00    +0.023 A 
ATOM      5  C   UNL     1       4.210   1.681  -0.199  0.00  0.00    +0.013 A 
ATOM      6  C   UNL     1       5.587   1.612  -0.213  0.00  0.00    +0.024 A 
ENDROOT
BRANCH   1  10
ATOM      7  N   UNL     1       9.575  -0.883  -0.499  0.00  0.00    -0.297 N 
ATOM      8  C   UNL     1       8.234  -0.769  -0.576  0.00  0.00    +0.304 C 
ATOM      9  O   UNL     1       7.578  -1.647  -1.102  0.00  0.00    -0.253 OA
ATOM     10  N   UNL     1       7.620   0.319  -0.070  0.00  0.00    -0.269 N 
ATOM     11  H   UNL     1      10.168  -0.088  -0.024  0.00  0.00    +0.151 HD
ATOM     12  H   UNL     1       8.217   1.153   0.326  0.00  0.00    +0.156 HD
BRANCH   7  13
ATOM     13  C   UNL     1      10.242  -2.065  -1.049  0.00  0.00    +0.071 C 
ATOM     14  C   UNL     1      10.492  -1.861  -2.545  0.00  0.00    +0.028 C 
BRANCH  13  16
ATOM     15  C   UNL     1      11.320  -2.605   1.139  0.00  0.00    +0.005 C 
ATOM     16  C   UNL     1      11.577  -2.277  -0.333  0.00  0.00    +0.019 C 
ENDBRANCH  13  16
ENDBRANCH   7  13
ENDBRANCH   1  10
BRANCH   4  17
ATOM     17  C   UNL     1       1.976   0.596   0.011  0.00  0.00    +0.202 A 
ATOM     18  N   UNL     1       1.225   1.710  -0.135  0.00  0.00    -0.191 NA
ATOM     19  C   UNL     1      -0.019   1.310  -0.050  0.00  0.00    +0.232 A 
ATOM     20  O   UNL     1       0.005  -0.013   0.141  0.00  0.00    -0.337 OA
ATOM     21  N   UNL     1       1.152  -0.407   0.174  0.00  0.00    -0.056 NA
BRANCH  19  22
ATOM     22  C   UNL     1      -1.248   2.176  -0.155  0.00  0.00    +0.134 C 
BRANCH  22  23
ATOM     23  C   UNL     1      -1.681   2.261  -1.596  0.00  0.00    -0.038 A 
ATOM     24  C   UNL     1      -1.191   3.267  -2.407  0.00  0.00    +0.005 A 
ATOM     25  C   UNL     1      -1.584   3.342  -3.730  0.00  0.00    +0.020 A 
ATOM     26  C   UNL     1      -2.476   2.416  -4.240  0.00  0.00    +0.041 A 
ATOM     27  C   UNL     1      -2.971   1.412  -3.426  0.00  0.00    +0.020 A 
ATOM     28  C   UNL     1      -2.573   1.335  -2.105  0.00  0.00    +0.005 A 
ATOM     29 CL   UNL     1      -2.975   2.513  -5.900  0.00  0.00    -0.084 Cl
ENDBRANCH  22  23
ENDBRANCH  19  22
ENDBRANCH   4  17
TORSDOF 6
