REMARK  Name = ZINC03377891
REMARK  10 active torsions:
REMARK  status: ('A' for Active; 'I' for Inactive)
REMARK    1  A    between atoms: C_1  and  C_2
REMARK    2  A    between atoms: C_2  and  C_4
REMARK    3  A    between atoms: C_2  and  O_17
REMARK    4  A    between atoms: N_6  and  C_7
REMARK    5  A    between atoms: C_7  and  C_8
REMARK    6  A    between atoms: O_17  and  C_18
REMARK    7  A    between atoms: C_18  and  C_20
REMARK    8  A    between atoms: C_24  and  S_26
REMARK    9  A    between atoms: S_26  and  N_29
REMARK   10  A    between atoms: N_29  and  C_30
REMARK                            x       y       z     vdW  Elec       q    Type
REMARK                         _______ _______ _______ _____ _____    ______ ____
ROOT
ATOM      1  C   UNL     1      -0.088  -0.673  -2.267  0.00  0.00    +0.340 C 
ATOM      2  O   UNL     1      -1.284  -0.469  -2.224  0.00  0.00    -0.245 OA
ENDROOT
BRANCH   1   3
ATOM      3  C   UNL     1       0.535  -1.149  -3.519  0.00  0.00    +0.061 A 
ATOM      4  C   UNL     1       1.910  -1.391  -3.571  0.00  0.00    +0.015 A 
ATOM      5  C   UNL     1       2.485  -1.835  -4.742  0.00  0.00    +0.003 A 
ATOM      6  C   UNL     1       1.704  -2.043  -5.866  0.00  0.00    +0.029 A 
ATOM      7  C   UNL     1       0.341  -1.805  -5.822  0.00  0.00    +0.111 A 
ATOM      8  C   UNL     1      -0.248  -1.366  -4.654  0.00  0.00    +0.043 A 
BRANCH   7   9
ATOM      9  S   UNL     1      -0.644  -2.072  -7.258  0.00  0.00    +0.092 S 
ATOM     10  O   UNL     1      -1.800  -1.257  -7.114  0.00  0.00    -0.148 OA
ATOM     11  O   UNL     1       0.228  -1.966  -8.374  0.00  0.00    -0.148 OA
BRANCH   9  12
ATOM     12  N   UNL     1      -1.164  -3.643  -7.210  0.00  0.00    -0.095 NA
BRANCH  12  13
ATOM     13  C   UNL     1      -1.975  -4.142  -8.234  0.00  0.00    +0.109 A 
ATOM     14  C   UNL     1      -2.341  -3.324  -9.294  0.00  0.00    +0.029 A 
ATOM     15  C   UNL     1      -3.142  -3.820 -10.305  0.00  0.00    +0.002 A 
ATOM     16  C   UNL     1      -3.580  -5.130 -10.262  0.00  0.00    +0.003 A 
ATOM     17  C   UNL     1      -3.220  -5.950  -9.208  0.00  0.00    +0.040 A 
ATOM     18  C   UNL     1      -2.413  -5.462  -8.196  0.00  0.00    +0.148 A 
ATOM     19  F   UNL     1      -2.056  -6.264  -7.169  0.00  0.00    -0.203 F 
ENDBRANCH  12  13
ENDBRANCH   9  12
ENDBRANCH   7   9
ENDBRANCH   1   3
BRANCH   1  20
ATOM     20  O   UNL     1       0.671  -0.465  -1.174  0.00  0.00    -0.449 OA
BRANCH  20  22
ATOM     21  C   UNL     1      -0.019   1.526   0.010  0.00  0.00    +0.062 C 
ATOM     22  C   UNL     1       0.002  -0.004   0.002  0.00  0.00    +0.259 C 
BRANCH  22  23
ATOM     23  C   UNL     1       0.731  -0.503   1.223  0.00  0.00    +0.254 C 
ATOM     24  O   UNL     1       1.774  -1.109   1.101  0.00  0.00    -0.272 OA
ATOM     25  N   UNL     1       0.223  -0.277   2.451  0.00  0.00    -0.308 N 
ATOM     26  H   UNL     1      -0.611   0.208   2.548  0.00  0.00    +0.149 HD
BRANCH  25  27
ATOM     27  C   UNL     1       0.932  -0.762   3.638  0.00  0.00    +0.139 C 
BRANCH  27  28
ATOM     28  C   UNL     1       0.160  -0.380   4.874  0.00  0.00    -0.027 A 
ATOM     29  C   UNL     1       0.409   0.829   5.497  0.00  0.00    +0.009 A 
ATOM     30  C   UNL     1      -0.297   1.183   6.632  0.00  0.00    +0.050 A 
ATOM     31  C   UNL     1      -1.256   0.327   7.148  0.00  0.00    +0.166 A 
ATOM     32  C   UNL     1      -1.507  -0.891   6.520  0.00  0.00    +0.167 A 
ATOM     33  C   UNL     1      -0.799  -1.237   5.380  0.00  0.00    +0.054 A 
ATOM     34  O   UNL     1      -2.483  -1.546   7.213  0.00  0.00    -0.453 OA
ATOM     35  C   UNL     1      -2.540  -0.902   8.500  0.00  0.00    +0.466 C 
ATOM     36  O   UNL     1      -2.076   0.435   8.234  0.00  0.00    -0.453 OA
ENDBRANCH  27  28
ENDBRANCH  25  27
ENDBRANCH  22  23
ENDBRANCH  20  22
ENDBRANCH   1  20
TORSDOF 9
