REMARK  Name = ZINC09494063
REMARK  6 active torsions:
REMARK  status: ('A' for Active; 'I' for Inactive)
REMARK    1  A    between atoms: C_4  and  C_7
REMARK    2  A    between atoms: C_14  and  C_18
REMARK    3  A    between atoms: C_18  and  S_19
REMARK    4  A    between atoms: S_19  and  C_20
REMARK    5  A    between atoms: N_25  and  C_26
REMARK    6  A    between atoms: C_26  and  C_27
REMARK                            x       y       z     vdW  Elec       q    Type
REMARK                         _______ _______ _______ _____ _____    ______ ____
ROOT
ATOM      1  C   UNL     1       3.695  -0.684  -0.038  0.00  0.00    +0.022 A 
ATOM      2  C   UNL     1       3.920  -2.023  -0.053  0.00  0.00    +0.031 A 
ATOM      3  C   UNL     1       5.236  -2.511  -0.068  0.00  0.00    +0.073 A 
ATOM      4  C   UNL     1       5.693  -3.872  -0.085  0.00  0.00    +0.260 A 
ATOM      5  O   UNL     1       4.894  -4.793  -0.088  0.00  0.00    -0.267 OA
ATOM      6  N   UNL     1       7.016  -4.116  -0.097  0.00  0.00    -0.310 N 
ATOM      7  H   UNL     1       7.329  -5.034  -0.108  0.00  0.00    +0.170 HD
ATOM      8  C   UNL     1       7.922  -3.105  -0.094  0.00  0.00    +0.121 A 
ATOM      9  N   UNL     1       7.540  -1.855  -0.079  0.00  0.00    -0.226 NA
ATOM     10  C   UNL     1       6.251  -1.534  -0.066  0.00  0.00    +0.116 A 
ATOM     11  S   UNL     1       5.346  -0.006  -0.052  0.00  0.00    -0.068 S 
ENDROOT
BRANCH   1  15
ATOM     12  C   UNL     1      -0.017   1.379   0.010  0.00  0.00    +0.000 A 
ATOM     13  C   UNL     1       1.168   2.094   0.002  0.00  0.00    +0.001 A 
ATOM     14  C   UNL     1       2.377   1.429  -0.013  0.00  0.00    +0.009 A 
ATOM     15  C   UNL     1       2.404   0.034  -0.021  0.00  0.00    -0.011 A 
ATOM     16  C   UNL     1       1.204  -0.681  -0.013  0.00  0.00    +0.009 A 
ATOM     17  C   UNL     1       0.002  -0.004   0.002  0.00  0.00    +0.001 A 
ENDBRANCH   1  15
BRANCH   8  18
ATOM     18  C   UNL     1       9.393  -3.429  -0.108  0.00  0.00    +0.150 C 
BRANCH  18  19
ATOM     19  S   UNL     1      10.352  -1.889  -0.100  0.00  0.00    -0.089 S 
BRANCH  19  20
ATOM     20  C   UNL     1      12.028  -2.430  -0.117  0.00  0.00    +0.160 A 
ATOM     21  N   UNL     1      12.511  -3.658  -0.138  0.00  0.00    -0.133 NA
ATOM     22  N   UNL     1      13.871  -3.858  -0.149  0.00  0.00    -0.125 NA
ATOM     23  C   UNL     1      14.688  -2.823  -0.139  0.00  0.00    +0.182 A 
ATOM     24  S   UNL     1      13.530  -1.463  -0.119  0.00  0.00    -0.025 S 
ATOM     25  N   UNL     1      16.078  -2.797  -0.146  0.00  0.00    -0.320 N 
ATOM     26  H   UNL     1      16.547  -1.948  -0.136  0.00  0.00    +0.148 HD
BRANCH  25  27
ATOM     27  C   UNL     1      16.834  -4.052  -0.170  0.00  0.00    +0.135 C 
BRANCH  27  28
ATOM     28  C   UNL     1      18.332  -3.744  -0.173  0.00  0.00    +0.135 C 
ATOM     29  C   UNL     1      19.136  -5.054  -0.320  0.00  0.00    +0.035 C 
ATOM     30  C   UNL     1      20.334  -4.815   0.639  0.00  0.00    +0.031 C 
ATOM     31  C   UNL     1      19.656  -3.979   1.753  0.00  0.00    +0.160 C 
ATOM     32  O   UNL     1      18.708  -3.140   1.070  0.00  0.00    -0.375 OA
ENDBRANCH  27  28
ENDBRANCH  25  27
ENDBRANCH  19  20
ENDBRANCH  18  19
ENDBRANCH   8  18
TORSDOF 6
