REMARK  Name = ZINC08984388
REMARK  8 active torsions:
REMARK  status: ('A' for Active; 'I' for Inactive)
REMARK    1  A    between atoms: C_1  and  C_2
REMARK    2  A    between atoms: C_2  and  C_4
REMARK    3  A    between atoms: C_2  and  S_17
REMARK    4  A    between atoms: N_6  and  C_7
REMARK    5  A    between atoms: C_9  and  N_14
REMARK    6  A    between atoms: S_17  and  C_18
REMARK    7  A    between atoms: C_20  and  C_29
REMARK    8  A    between atoms: N_21  and  C_23
REMARK                            x       y       z     vdW  Elec       q    Type
REMARK                         _______ _______ _______ _____ _____    ______ ____
ROOT
ATOM      1  C   UNL     1      -6.811  -1.069   1.199  0.00  0.00    +0.029 C 
ATOM      2  C   UNL     1      -6.191  -0.911  -0.190  0.00  0.00    +0.137 C 
ENDROOT
BRANCH   2   3
ATOM      3  C   UNL     1      -4.894  -0.151  -0.078  0.00  0.00    +0.230 C 
ATOM      4  O   UNL     1      -3.838  -0.748  -0.087  0.00  0.00    -0.274 OA
ATOM      5  N   UNL     1      -4.908   1.192   0.031  0.00  0.00    -0.283 N 
ATOM      6  H   UNL     1      -5.751   1.663   0.119  0.00  0.00    +0.155 HD
BRANCH   5   7
ATOM      7  C   UNL     1      -3.704   1.908   0.019  0.00  0.00    +0.054 A 
ATOM      8  C   UNL     1      -2.582   1.371  -0.597  0.00  0.00    +0.057 A 
ATOM      9  C   UNL     1      -1.396   2.079  -0.608  0.00  0.00    +0.128 A 
ATOM     10  C   UNL     1      -1.324   3.320  -0.002  0.00  0.00    +0.034 A 
ATOM     11  C   UNL     1      -2.441   3.861   0.608  0.00  0.00    +0.024 A 
ATOM     12  C   UNL     1      -3.631   3.157   0.623  0.00  0.00    +0.062 A 
ATOM     13 CL   UNL     1      -5.031   3.833   1.394  0.00  0.00    -0.082 Cl
BRANCH   9  14
ATOM     14  N   UNL     1      -0.200   1.507  -1.265  0.00  0.00    +0.056 N 
ATOM     15  O   UNL     1      -0.261   0.412  -1.795  0.00  0.00    -0.126 OA
ATOM     16  O   UNL     1       0.845   2.133  -1.280  0.00  0.00    -0.126 OA
ENDBRANCH   9  14
ENDBRANCH   5   7
ENDBRANCH   2   3
BRANCH   2  17
ATOM     17  S   UNL     1      -5.872  -2.550  -0.900  0.00  0.00    -0.072 S 
BRANCH  17  18
ATOM     18  C   UNL     1      -7.477  -3.247  -1.102  0.00  0.00    +0.210 A 
ATOM     19  N   UNL     1      -7.743  -4.457  -1.603  0.00  0.00    -0.205 NA
ATOM     20  C   UNL     1      -9.035  -4.661  -1.609  0.00  0.00    +0.137 A 
ATOM     21  N   UNL     1      -9.636  -3.563  -1.113  0.00  0.00    -0.216 N 
ATOM     22  N   UNL     1      -8.610  -2.660  -0.790  0.00  0.00    -0.138 NA
BRANCH  21  23
ATOM     23  C   UNL     1     -11.013  -3.361  -0.950  0.00  0.00    +0.067 A 
ATOM     24  C   UNL     1     -11.907  -3.884  -1.874  0.00  0.00    +0.028 A 
ATOM     25  C   UNL     1     -13.264  -3.688  -1.708  0.00  0.00    +0.002 A 
ATOM     26  C   UNL     1     -13.732  -2.962  -0.629  0.00  0.00    +0.000 A 
ATOM     27  C   UNL     1     -12.844  -2.434   0.291  0.00  0.00    +0.002 A 
ATOM     28  C   UNL     1     -11.486  -2.631   0.133  0.00  0.00    +0.028 A 
ENDBRANCH  21  23
BRANCH  20  29
ATOM     29  C   UNL     1      -9.732  -5.906  -2.094  0.00  0.00    +0.057 C 
ATOM     30  C   UNL     1      -8.860  -7.118  -2.430  0.00  0.00    +0.012 C 
ATOM     31  C   UNL     1      -9.518  -6.313  -3.554  0.00  0.00    +0.012 C 
ENDBRANCH  20  29
ENDBRANCH  17  18
ENDBRANCH   2  17
TORSDOF 7
