REMARK  Name = ZINC40156369
REMARK  5 active torsions:
REMARK  status: ('A' for Active; 'I' for Inactive)
REMARK    1  A    between atoms: C_1  and  C_2
REMARK    2  A    between atoms: C_2  and  C_4
REMARK    3  A    between atoms: C_2  and  N_15
REMARK    4  A    between atoms: C_16  and  C_18
REMARK    5  A    between atoms: C_23  and  C_24
REMARK                            x       y       z     vdW  Elec       q    Type
REMARK                         _______ _______ _______ _____ _____    ______ ____
ROOT
ATOM      1  N   UNL     1       0.711  -0.489   1.189  0.00  0.00    -0.305 N 
ATOM      2  C   UNL     1       2.054  -0.600   1.174  0.00  0.00    +0.247 C 
ATOM      3  O   UNL     1       2.678  -0.296   0.174  0.00  0.00    -0.270 OA
ATOM      4  H   UNL     1       0.213  -0.731   1.986  0.00  0.00    +0.150 HD
ENDROOT
BRANCH   2   5
ATOM      5  C   UNL     1       2.765  -1.087   2.365  0.00  0.00    +0.062 A 
ATOM      6  C   UNL     1       2.211  -1.470   3.554  0.00  0.00    +0.096 A 
ATOM      7  N   UNL     1       3.196  -1.851   4.388  0.00  0.00    -0.366 N 
ATOM      8  H   UNL     1       3.061  -2.167   5.295  0.00  0.00    +0.165 HD
ATOM      9  C   UNL     1       4.411  -1.731   3.781  0.00  0.00    +0.092 A 
ATOM     10  C   UNL     1       4.221  -1.267   2.517  0.00  0.00    +0.018 A 
BRANCH  10  11
ATOM     11  C   UNL     1       5.261  -0.995   1.503  0.00  0.00    +0.023 A 
ATOM     12  C   UNL     1       6.419  -0.275   1.627  0.00  0.00    +0.017 A 
ATOM     13  C   UNL     1       7.246  -0.156   0.530  0.00  0.00    +0.028 A 
ATOM     14  C   UNL     1       6.888  -0.753  -0.635  0.00  0.00    +0.079 A 
ATOM     15  S   UNL     1       5.338  -1.525  -0.200  0.00  0.00    -0.077 S 
ATOM     16 CL   UNL     1       7.725  -0.769  -2.156  0.00  0.00    -0.076 Cl
ENDBRANCH  10  11
ENDBRANCH   2   5
BRANCH   1  18
ATOM     17  C   UNL     1      -0.019   1.526   0.010  0.00  0.00    +0.033 C 
ATOM     18  C   UNL     1       0.002  -0.004   0.002  0.00  0.00    +0.100 C 
BRANCH  18  19
ATOM     19  C   UNL     1      -1.412  -0.526   0.013  0.00  0.00    -0.025 A 
ATOM     20  C   UNL     1      -2.121  -0.570   1.199  0.00  0.00    +0.009 A 
ATOM     21  C   UNL     1      -3.420  -1.046   1.217  0.00  0.00    +0.048 A 
ATOM     22  C   UNL     1      -4.011  -1.480   0.044  0.00  0.00    +0.142 A 
ATOM     23  C   UNL     1      -3.296  -1.437  -1.152  0.00  0.00    +0.076 A 
ATOM     24  C   UNL     1      -1.998  -0.953  -1.165  0.00  0.00    +0.032 A 
ATOM     25  N   UNL     1      -3.906  -1.883  -2.333  0.00  0.00    -0.280 N 
ATOM     26  C   UNL     1      -5.247  -2.043  -2.357  0.00  0.00    +0.255 C 
ATOM     27  O   UNL     1      -5.793  -2.457  -3.357  0.00  0.00    -0.272 OA
ATOM     28  C   UNL     1      -6.062  -1.706  -1.134  0.00  0.00    +0.325 C 
ATOM     29  O   UNL     1      -5.287  -1.951   0.043  0.00  0.00    -0.481 OA
ATOM     30  H   UNL     1      -3.373  -2.072  -3.121  0.00  0.00    +0.155 HD
ENDBRANCH  18  19
ENDBRANCH   1  18
TORSDOF 4
