REMARK  Name = ZINC28388176
REMARK  12 active torsions:
REMARK  status: ('A' for Active; 'I' for Inactive)
REMARK    1  A    between atoms: C_1  and  C_2
REMARK    2  A    between atoms: C_5  and  N_11
REMARK    3  A    between atoms: C_6  and  N_8
REMARK    4  A    between atoms: C_12  and  C_14
REMARK    5  A    between atoms: C_14  and  C_16
REMARK    6  A    between atoms: C_14  and  O_22
REMARK    7  A    between atoms: O_22  and  C_23
REMARK    8  A    between atoms: C_23  and  C_25
REMARK    9  A    between atoms: C_25  and  N_26
REMARK   10  A    between atoms: C_27  and  C_29
REMARK   11  A    between atoms: C_31  and  C_36
REMARK   12  A    between atoms: C_33  and  C_35
REMARK                            x       y       z     vdW  Elec       q    Type
REMARK                         _______ _______ _______ _____ _____    ______ ____
ROOT
ATOM      1  C   UNL     1       3.684  -0.930   0.178  0.00  0.00    +0.292 C 
ENDROOT
BRANCH   1   2
ATOM      2  C   UNL     1       4.524  -0.632  -1.037  0.00  0.00    +0.002 A 
ATOM      3  C   UNL     1       4.287  -1.302  -2.223  0.00  0.00    +0.008 A 
ATOM      4  C   UNL     1       5.055  -1.025  -3.338  0.00  0.00    +0.000 A 
ATOM      5  C   UNL     1       6.067  -0.086  -3.265  0.00  0.00    +0.000 A 
ATOM      6  C   UNL     1       6.307   0.580  -2.078  0.00  0.00    +0.000 A 
ATOM      7  C   UNL     1       5.536   0.307  -0.964  0.00  0.00    +0.008 A 
ENDBRANCH   1   2
BRANCH   1   9
ATOM      8  N   UNL     1       2.361   1.151  -0.008  0.00  0.00    -0.280 N 
ATOM      9  C   UNL     1       2.373  -0.194   0.075  0.00  0.00    +0.263 C 
ATOM     10  O   UNL     1       1.329  -0.811   0.066  0.00  0.00    -0.271 OA
ATOM     11  H   UNL     1       3.308   1.707  -0.073  0.00  0.00    +0.155 HD
BRANCH   8  16
ATOM     12  C   UNL     1      -2.576   3.947  -0.016  0.00  0.00    +0.044 C 
ATOM     13  C   UNL     1      -1.265   3.204  -0.013  0.00  0.00    -0.048 A 
ATOM     14  C   UNL     1      -1.166   1.976  -0.642  0.00  0.00    +0.005 A 
ATOM     15  C   UNL     1       0.033   1.291  -0.637  0.00  0.00    +0.026 A 
ATOM     16  C   UNL     1       1.143   1.841  -0.010  0.00  0.00    +0.064 A 
ATOM     17  C   UNL     1       1.042   3.077   0.616  0.00  0.00    +0.148 A 
ATOM     18  C   UNL     1      -0.161   3.755   0.613  0.00  0.00    +0.038 A 
BRANCH  17  19
ATOM     19  N   UNL     1       2.223   3.666   1.286  0.00  0.00    +0.058 N 
ATOM     20  O   UNL     1       2.113   4.706   1.910  0.00  0.00    -0.126 OA
ATOM     21  O   UNL     1       3.305   3.112   1.213  0.00  0.00    -0.126 OA
ENDBRANCH  17  19
ENDBRANCH   8  16
ENDBRANCH   1   9
BRANCH   1  22
ATOM     22  O   UNL     1       3.432  -2.358   0.254  0.00  0.00    -0.446 OA
BRANCH  22  23
ATOM     23  C   UNL     1       4.319  -3.098   0.938  0.00  0.00    +0.325 C 
ATOM     24  O   UNL     1       5.274  -2.570   1.456  0.00  0.00    -0.249 OA
BRANCH  23  25
ATOM     25  C   UNL     1       4.123  -4.587   1.060  0.00  0.00    +0.225 C 
BRANCH  25  26
ATOM     26  N   UNL     1       5.217  -5.161   1.847  0.00  0.00    -0.301 N 
ATOM     27  C   UNL     1       5.251  -6.487   2.088  0.00  0.00    +0.245 C 
ATOM     28  O   UNL     1       4.375  -7.206   1.651  0.00  0.00    -0.270 OA
ATOM     29  H   UNL     1       6.010  -4.509   2.243  0.00  0.00    +0.150 HD
BRANCH  27  30
ATOM     30  C   UNL     1       6.355  -7.065   2.883  0.00  0.00    +0.037 A 
ATOM     31  C   UNL     1       7.366  -6.242   3.381  0.00  0.00    +0.016 A 
ATOM     32  C   UNL     1       8.390  -6.788   4.127  0.00  0.00    -0.049 A 
ATOM     33  C   UNL     1       8.423  -8.149   4.372  0.00  0.00    +0.006 A 
ATOM     34  C   UNL     1       7.426  -8.972   3.876  0.00  0.00    -0.049 A 
ATOM     35  C   UNL     1       6.393  -8.438   3.134  0.00  0.00    +0.016 A 
ATOM     36  C   UNL     1       7.470 -10.453   4.148  0.00  0.00    +0.044 C 
ATOM     37  C   UNL     1       9.480  -5.900   4.671  0.00  0.00    +0.044 C 
ENDBRANCH  27  30
ENDBRANCH  25  26
ENDBRANCH  23  25
ENDBRANCH  22  23
ENDBRANCH   1  22
TORSDOF 9
