REMARK  Name = ZINC24115945
REMARK  14 active torsions:
REMARK  status: ('A' for Active; 'I' for Inactive)
REMARK    1  A    between atoms: C_1  and  C_2
REMARK    2  A    between atoms: C_2  and  N_3
REMARK    3  A    between atoms: N_3  and  C_4
REMARK    4  A    between atoms: N_3  and  C_6
REMARK    5  A    between atoms: C_4  and  C_5
REMARK    6  A    between atoms: C_6  and  C_7
REMARK    7  A    between atoms: C_7  and  N_8
REMARK    8  A    between atoms: C_9  and  C_29
REMARK    9  A    between atoms: C_11  and  C_16
REMARK   10  A    between atoms: C_16  and  C_18
REMARK   11  A    between atoms: C_21  and  O_25
REMARK   12  A    between atoms: C_23  and  C_24
REMARK   13  A    between atoms: O_25  and  C_26
REMARK   14  A    between atoms: C_26  and  C_27
REMARK                            x       y       z     vdW  Elec       q    Type
REMARK                         _______ _______ _______ _____ _____    ______ ____
ROOT
ATOM      1  N   UNL     1       0.580  -0.694  -1.161  0.00  0.00    -0.285 N 
ATOM      2  C   UNL     1       2.000  -0.931  -1.451  0.00  0.00    +0.145 C 
ATOM      3  C   UNL     1       2.104  -1.082  -2.950  0.00  0.00    +0.076 C 
ATOM      4  C   UNL     1       0.852  -0.941  -3.445  0.00  0.00    +0.249 C 
ATOM      5  C   UNL     1      -0.088  -0.707  -2.329  0.00  0.00    +0.288 C 
ATOM      6  O   UNL     1      -1.286  -0.546  -2.448  0.00  0.00    -0.266 OA
ATOM      7  O   UNL     1       0.514  -1.010  -4.753  0.00  0.00    -0.282 OA
ENDROOT
BRANCH   2   8
ATOM      8  C   UNL     1       2.465  -2.191  -0.768  0.00  0.00    -0.022 A 
ATOM      9  C   UNL     1       1.700  -3.340  -0.843  0.00  0.00    +0.007 A 
ATOM     10  C   UNL     1       2.129  -4.498  -0.221  0.00  0.00    +0.015 A 
ATOM     11  C   UNL     1       3.318  -4.503   0.486  0.00  0.00    +0.018 A 
ATOM     12  C   UNL     1       4.080  -3.351   0.566  0.00  0.00    +0.015 A 
ATOM     13  C   UNL     1       3.653  -2.196  -0.061  0.00  0.00    +0.007 A 
ATOM     14 BR   UNL     1       3.901  -6.084   1.343  0.00  0.00    -0.050 Br
ENDBRANCH   2   8
BRANCH   3  15
ATOM     15  C   UNL     1       3.326  -1.333  -3.721  0.00  0.00    +0.195 C 
ATOM     16  O   UNL     1       3.259  -1.532  -4.920  0.00  0.00    -0.287 OA
BRANCH  15  17
ATOM     17  C   UNL     1       4.637  -1.346  -3.043  0.00  0.00    +0.025 A 
ATOM     18  C   UNL     1       5.286  -2.559  -2.795  0.00  0.00    +0.015 A 
ATOM     19  C   UNL     1       6.511  -2.566  -2.168  0.00  0.00    +0.046 A 
ATOM     20  C   UNL     1       7.098  -1.370  -1.770  0.00  0.00    +0.121 A 
ATOM     21  C   UNL     1       6.453  -0.162  -2.009  0.00  0.00    +0.049 A 
ATOM     22  C   UNL     1       5.230  -0.145  -2.641  0.00  0.00    -0.036 A 
ATOM     23  C   UNL     1       4.532   1.165  -2.901  0.00  0.00    +0.044 C 
BRANCH  20  24
ATOM     24  O   UNL     1       8.303  -1.381  -1.147  0.00  0.00    -0.488 OA
BRANCH  24  25
ATOM     25  C   UNL     1       8.911  -2.657  -0.933  0.00  0.00    +0.256 C 
BRANCH  25  26
ATOM     26  C   UNL     1      10.233  -2.473  -0.234  0.00  0.00    +0.006 C 
ATOM     27  C   UNL     1      10.552  -3.243   0.777  0.00  0.00    +0.007 C 
ENDBRANCH  25  26
ENDBRANCH  24  25
ENDBRANCH  20  24
ENDBRANCH  15  17
ENDBRANCH   3  15
BRANCH   1  28
ATOM     28  C   UNL     1      -0.006  -0.487   0.165  0.00  0.00    +0.090 C 
BRANCH  28  29
ATOM     29  C   UNL     1       0.001   1.006   0.498  0.00  0.00    -0.060 C 
BRANCH  29  30
ATOM     30  N   UNL     1      -0.697   1.227   1.772  0.00  0.00    +0.380 N 
ATOM     31  H   UNL     1      -1.599   0.597   1.777  0.00  0.00    -0.082 HD
BRANCH  30  33
ATOM     32  C   UNL     1      -0.697   0.830   4.189  0.00  0.00    -0.017 C 
ATOM     33  C   UNL     1       0.141   0.823   2.909  0.00  0.00    -0.082 C 
ENDBRANCH  30  33
BRANCH  30  34
ATOM     34  C   UNL     1      -1.123   2.627   1.903  0.00  0.00    -0.082 C 
ATOM     35  C   UNL     1      -2.348   2.872   1.020  0.00  0.00    -0.017 C 
ENDBRANCH  30  34
ENDBRANCH  29  30
ENDBRANCH  28  29
ENDBRANCH   1  28
TORSDOF 11
