REMARK  Name = ZINC05982371
REMARK  5 active torsions:
REMARK  status: ('A' for Active; 'I' for Inactive)
REMARK    1  A    between atoms: C_1  and  C_2
REMARK    2  A    between atoms: C_2  and  C_4
REMARK    3  A    between atoms: C_2  and  S_16
REMARK    4  A    between atoms: S_16  and  C_17
REMARK    5  A    between atoms: C_20  and  C_22
REMARK                            x       y       z     vdW  Elec       q    Type
REMARK                         _______ _______ _______ _____ _____    ______ ____
ROOT
ATOM      1  C   UNL     1      -6.358   6.594   1.404  0.00  0.00    +0.027 C 
ATOM      2  C   UNL     1      -6.835   5.956   0.098  0.00  0.00    +0.119 C 
ENDROOT
BRANCH   2   3
ATOM      3  C   UNL     1      -8.332   6.093  -0.011  0.00  0.00    +0.124 A 
ATOM      4  N   UNL     1      -9.106   5.059   0.410  0.00  0.00    -0.309 N 
ATOM      5  H   UNL     1      -8.676   4.236   0.780  0.00  0.00    +0.170 HD
ATOM      6  C   UNL     1     -10.456   5.133   0.333  0.00  0.00    +0.259 A 
ATOM      7  O   UNL     1     -11.162   4.215   0.706  0.00  0.00    -0.267 OA
ATOM      8  C   UNL     1     -11.036   6.367  -0.219  0.00  0.00    +0.065 A 
ATOM      9  C   UNL     1     -12.412   6.544  -0.341  0.00  0.00    +0.015 A 
ATOM     10  C   UNL     1     -12.902   7.721  -0.864  0.00  0.00    +0.001 A 
ATOM     11  C   UNL     1     -12.035   8.727  -1.270  0.00  0.00    +0.002 A 
ATOM     12  C   UNL     1     -10.672   8.572  -1.158  0.00  0.00    +0.028 A 
ATOM     13  C   UNL     1     -10.152   7.389  -0.630  0.00  0.00    +0.078 A 
ATOM     14  N   UNL     1      -8.815   7.196  -0.498  0.00  0.00    -0.233 NA
ENDBRANCH   2   3
BRANCH   2  15
ATOM     15  S   UNL     1      -6.388   4.202   0.085  0.00  0.00    -0.055 S 
BRANCH  15  16
ATOM     16  C   UNL     1      -4.631   4.335   0.069  0.00  0.00    +0.278 A 
ATOM     17  N   UNL     1      -3.936   5.449   0.068  0.00  0.00    -0.101 NA
ATOM     18  N   UNL     1      -2.680   5.170   0.054  0.00  0.00    -0.106 NA
ATOM     19  C   UNL     1      -2.522   3.868   0.046  0.00  0.00    +0.252 A 
ATOM     20  O   UNL     1      -3.754   3.312   0.050  0.00  0.00    -0.411 OA
BRANCH  19  21
ATOM     21  C   UNL     1      -1.236   3.143   0.030  0.00  0.00    +0.074 A 
ATOM     22  C   UNL     1      -1.218   1.747   0.017  0.00  0.00    +0.016 A 
ATOM     23  C   UNL     1      -0.013   1.076   0.008  0.00  0.00    +0.001 A 
ATOM     24  C   UNL     1       1.178   1.782   0.000  0.00  0.00    +0.003 A 
ATOM     25  C   UNL     1       1.169   3.165   0.007  0.00  0.00    +0.039 A 
ATOM     26  C   UNL     1      -0.030   3.851   0.023  0.00  0.00    +0.136 A 
ATOM     27  F   UNL     1      -0.038   5.202   0.029  0.00  0.00    -0.205 F 
ENDBRANCH  19  21
ENDBRANCH  15  16
ENDBRANCH   2  15
TORSDOF 4
