REMARK  Name = ZINC26892865
REMARK  7 active torsions:
REMARK  status: ('A' for Active; 'I' for Inactive)
REMARK    1  A    between atoms: C_1  and  C_2
REMARK    2  A    between atoms: C_5  and  N_16
REMARK    3  A    between atoms: C_6  and  C_8
REMARK    4  A    between atoms: C_8  and  C_10
REMARK    5  A    between atoms: C_17  and  C_19
REMARK    6  A    between atoms: C_25  and  C_27
REMARK    7  A    between atoms: N_29  and  C_30
REMARK                            x       y       z     vdW  Elec       q    Type
REMARK                         _______ _______ _______ _____ _____    ______ ____
ROOT
ATOM      1  N   UNL     1      -0.616   0.376   0.409  0.00  0.00    -0.285 N 
ATOM      2  C   UNL     1       0.219   1.434   0.433  0.00  0.00    +0.221 C 
ATOM      3  O   UNL     1      -0.231   2.560   0.470  0.00  0.00    -0.275 OA
ATOM      4  H   UNL     1      -0.211  -0.641   0.301  0.00  0.00    +0.155 HD
ENDROOT
BRANCH   1   9
ATOM      5  C   UNL     1      -6.217   1.181   0.861  0.00  0.00    +0.044 C 
ATOM      6  C   UNL     1      -4.731   0.959   0.745  0.00  0.00    -0.050 A 
ATOM      7  C   UNL     1      -3.945   1.888   0.082  0.00  0.00    +0.005 A 
ATOM      8  C   UNL     1      -2.582   1.700  -0.026  0.00  0.00    +0.024 A 
ATOM      9  C   UNL     1      -1.990   0.570   0.521  0.00  0.00    +0.044 A 
ATOM     10  C   UNL     1      -2.783  -0.373   1.194  0.00  0.00    +0.044 A 
ATOM     11  C   UNL     1      -4.161  -0.166   1.300  0.00  0.00    +0.017 A 
BRANCH  10  12
ATOM     12  C   UNL     1      -2.166  -1.575   1.785  0.00  0.00    +0.195 C 
ATOM     13  O   UNL     1      -2.292  -2.654   1.238  0.00  0.00    -0.287 OA
BRANCH  12  14
ATOM     14  C   UNL     1      -1.396  -1.468   3.041  0.00  0.00    +0.022 A 
ATOM     15  C   UNL     1      -1.336  -0.253   3.727  0.00  0.00    +0.012 A 
ATOM     16  C   UNL     1      -0.620  -0.162   4.902  0.00  0.00    +0.001 A 
ATOM     17  C   UNL     1       0.048  -1.269   5.396  0.00  0.00    +0.000 A 
ATOM     18  C   UNL     1      -0.002  -2.475   4.719  0.00  0.00    +0.001 A 
ATOM     19  C   UNL     1      -0.719  -2.581   3.546  0.00  0.00    +0.012 A 
ENDBRANCH  12  14
ENDBRANCH  10  12
ENDBRANCH   1   9
BRANCH   2  20
ATOM     20  C   UNL     1       1.710   1.218   0.415  0.00  0.00    +0.091 C 
ATOM     21  C   UNL     1       2.129   0.418   1.651  0.00  0.00    +0.040 C 
ATOM     22  C   UNL     1       3.624   0.422   1.787  0.00  0.00    -0.030 C 
ATOM     23  C   UNL     1       4.405   1.258   1.181  0.00  0.00    -0.030 C 
ATOM     24  C   UNL     1       3.926   2.333   0.250  0.00  0.00    +0.040 C 
ATOM     25  C   UNL     1       2.428   2.574   0.449  0.00  0.00    +0.091 C 
BRANCH  25  26
ATOM     26  C   UNL     1       1.904   3.452  -0.658  0.00  0.00    +0.221 C 
ATOM     27  O   UNL     1       1.042   3.038  -1.404  0.00  0.00    -0.275 OA
ATOM     28  N   UNL     1       2.394   4.697  -0.820  0.00  0.00    -0.284 N 
ATOM     29  H   UNL     1       3.231   5.044  -0.196  0.00  0.00    +0.155 HD
BRANCH  28  30
ATOM     30  C   UNL     1       1.839   5.548  -1.782  0.00  0.00    +0.052 A 
ATOM     31  C   UNL     1       1.355   5.028  -2.975  0.00  0.00    +0.025 A 
ATOM     32  C   UNL     1       0.807   5.870  -3.922  0.00  0.00    +0.002 A 
ATOM     33  C   UNL     1       0.740   7.231  -3.685  0.00  0.00    +0.002 A 
ATOM     34  C   UNL     1       1.221   7.753  -2.498  0.00  0.00    +0.022 A 
ATOM     35  C   UNL     1       1.766   6.915  -1.544  0.00  0.00    +0.062 A 
ATOM     36 CL   UNL     1       2.364   7.570  -0.051  0.00  0.00    -0.082 Cl
ENDBRANCH  28  30
ENDBRANCH  25  26
ENDBRANCH   2  20
TORSDOF 6
