REMARK  Name = ZINC45961464
REMARK  11 active torsions:
REMARK  status: ('A' for Active; 'I' for Inactive)
REMARK    1  A    between atoms: C_1  and  C_2
REMARK    2  A    between atoms: C_5  and  C_8
REMARK    3  A    between atoms: C_14  and  C_18
REMARK    4  A    between atoms: C_18  and  N_19
REMARK    5  A    between atoms: C_20  and  C_22
REMARK    6  A    between atoms: C_24  and  O_32
REMARK    7  A    between atoms: C_25  and  O_30
REMARK    8  A    between atoms: C_26  and  O_28
REMARK    9  A    between atoms: O_28  and  C_29
REMARK   10  A    between atoms: O_30  and  C_31
REMARK   11  A    between atoms: O_32  and  C_33
REMARK                            x       y       z     vdW  Elec       q    Type
REMARK                         _______ _______ _______ _____ _____    ______ ____
ROOT
ATOM      1  C   UNL     1       0.058  -4.253  -0.021  0.00  0.00    +0.132 A 
ATOM      2  N   UNL     1       0.069  -5.080   0.991  0.00  0.00    -0.154 NA
ATOM      3  N   UNL     1       0.086  -6.458   0.800  0.00  0.00    -0.171 N 
ATOM      4  C   UNL     1       0.098  -7.424   1.766  0.00  0.00    +0.275 A 
ATOM      5  O   UNL     1       0.094  -7.109   2.946  0.00  0.00    -0.266 OA
ATOM      6  C   UNL     1       0.116  -8.771   1.402  0.00  0.00    +0.097 A 
ATOM      7  C   UNL     1       0.120  -9.119   0.068  0.00  0.00    +0.066 A 
ATOM      8  N   UNL     1       0.107  -8.153  -0.847  0.00  0.00    -0.225 NA
ATOM      9  C   UNL     1       0.091  -6.892  -0.498  0.00  0.00    +0.199 A 
ATOM     10  S   UNL     1       0.065  -5.367  -1.416  0.00  0.00    -0.028 S 
ENDROOT
BRANCH   1  15
ATOM     11  C   UNL     1      -0.018   1.503   0.010  0.00  0.00    +0.044 C 
ATOM     12  C   UNL     1       0.002  -0.004   0.002  0.00  0.00    -0.050 A 
ATOM     13  C   UNL     1       0.006  -0.686  -1.202  0.00  0.00    +0.004 A 
ATOM     14  C   UNL     1       0.024  -2.066  -1.216  0.00  0.00    +0.011 A 
ATOM     15  C   UNL     1       0.039  -2.773  -0.013  0.00  0.00    +0.009 A 
ATOM     16  C   UNL     1       0.036  -2.079   1.197  0.00  0.00    +0.011 A 
ATOM     17  C   UNL     1       0.023  -0.699   1.198  0.00  0.00    +0.004 A 
ENDBRANCH   1  15
BRANCH   7  18
ATOM     18  C   UNL     1       0.139 -10.568  -0.347  0.00  0.00    +0.160 C 
BRANCH  18  19
ATOM     19  N   UNL     1      -1.109 -10.893  -1.042  0.00  0.00    -0.306 N 
ATOM     20  C   UNL     1      -1.316 -12.141  -1.506  0.00  0.00    +0.245 C 
ATOM     21  O   UNL     1      -0.468 -12.997  -1.348  0.00  0.00    -0.270 OA
ATOM     22  H   UNL     1      -1.787 -10.210  -1.168  0.00  0.00    +0.149 HD
BRANCH  20  23
ATOM     23  C   UNL     1      -2.574 -12.469  -2.206  0.00  0.00    +0.044 A 
ATOM     24  C   UNL     1      -3.548 -11.485  -2.393  0.00  0.00    +0.062 A 
ATOM     25  C   UNL     1      -4.724 -11.795  -3.050  0.00  0.00    +0.166 A 
ATOM     26  C   UNL     1      -4.939 -13.086  -3.524  0.00  0.00    +0.204 A 
ATOM     27  C   UNL     1      -3.970 -14.069  -3.338  0.00  0.00    +0.166 A 
ATOM     28  C   UNL     1      -2.790 -13.763  -2.688  0.00  0.00    +0.062 A 
BRANCH  27  29
ATOM     29  O   UNL     1      -4.184 -15.329  -3.803  0.00  0.00    -0.491 OA
ATOM     30  C   UNL     1      -3.147 -16.287  -3.577  0.00  0.00    +0.277 C 
ENDBRANCH  27  29
BRANCH  26  31
ATOM     31  O   UNL     1      -6.097 -13.388  -4.169  0.00  0.00    -0.488 OA
ATOM     32  C   UNL     1      -6.114 -13.213  -5.587  0.00  0.00    +0.277 C 
ENDBRANCH  26  31
BRANCH  25  33
ATOM     33  O   UNL     1      -5.672 -10.837  -3.232  0.00  0.00    -0.491 OA
ATOM     34  C   UNL     1      -5.386  -9.534  -2.720  0.00  0.00    +0.277 C 
ENDBRANCH  25  33
ENDBRANCH  20  23
ENDBRANCH  18  19
ENDBRANCH   7  18
TORSDOF 7
