REMARK  Name = ZINC39388829
REMARK  6 active torsions:
REMARK  status: ('A' for Active; 'I' for Inactive)
REMARK    1  A    between atoms: C_1  and  C_2
REMARK    2  A    between atoms: C_5  and  N_8
REMARK    3  A    between atoms: C_16  and  C_19
REMARK    4  A    between atoms: N_21  and  C_22
REMARK    5  A    between atoms: C_22  and  C_23
REMARK    6  A    between atoms: C_23  and  C_24
REMARK                            x       y       z     vdW  Elec       q    Type
REMARK                         _______ _______ _______ _____ _____    ______ ____
ROOT
ATOM      1  N   UNL     1       0.058  -4.167  -0.021  0.00  0.00    -0.294 N 
ATOM      2  C   UNL     1      -0.033  -5.043  -1.208  0.00  0.00    +0.127 C 
ATOM      3  C   UNL     1       0.077  -6.490  -0.670  0.00  0.00    +0.130 C 
ATOM      4  N   UNL     1       0.734  -6.317   0.629  0.00  0.00    -0.259 N 
ATOM      5  C   UNL     1       0.178  -5.048   1.148  0.00  0.00    +0.272 C 
ATOM      6  N   UNL     1       0.953  -4.362   2.185  0.00  0.00    -0.231 N 
ATOM      7  N   UNL     1       1.898  -4.991   2.793  0.00  0.00    -0.174 NA
ATOM      8  C   UNL     1       2.265  -6.212   2.493  0.00  0.00    +0.204 C 
ATOM      9  C   UNL     1       1.646  -6.948   1.377  0.00  0.00    +0.274 C 
ATOM     10  O   UNL     1       1.967  -8.096   1.136  0.00  0.00    -0.268 OA
ATOM     11  H   UNL     1       0.755  -3.440   2.412  0.00  0.00    +0.172 HD
ENDROOT
BRANCH   1  16
ATOM     12  C   UNL     1      -0.016   1.503   0.012  0.00  0.00    +0.044 C 
ATOM     13  C   UNL     1       0.003  -0.004   0.003  0.00  0.00    -0.050 A 
ATOM     14  C   UNL     1      -1.037  -0.711   0.577  0.00  0.00    +0.005 A 
ATOM     15  C   UNL     1      -1.022  -2.092   0.571  0.00  0.00    +0.023 A 
ATOM     16  C   UNL     1       0.040  -2.771  -0.013  0.00  0.00    +0.032 A 
ATOM     17  C   UNL     1       1.083  -2.058  -0.590  0.00  0.00    +0.023 A 
ATOM     18  C   UNL     1       1.059  -0.677  -0.585  0.00  0.00    +0.005 A 
ENDBRANCH   1  16
BRANCH   8  19
ATOM     19  C   UNL     1       3.311  -6.866   3.294  0.00  0.00    +0.269 C 
ATOM     20  O   UNL     1       3.663  -7.999   3.027  0.00  0.00    -0.268 OA
ATOM     21  N   UNL     1       3.881  -6.208   4.323  0.00  0.00    -0.310 N 
ATOM     22  H   UNL     1       3.600  -5.304   4.536  0.00  0.00    +0.149 HD
BRANCH  21  23
ATOM     23  C   UNL     1       4.923  -6.859   5.121  0.00  0.00    +0.109 C 
BRANCH  23  24
ATOM     24  C   UNL     1       5.397  -5.903   6.218  0.00  0.00    +0.056 C 
BRANCH  24  25
ATOM     25  C   UNL     1       6.469  -6.573   7.039  0.00  0.00    -0.021 A 
ATOM     26  C   UNL     1       7.900  -6.619   6.731  0.00  0.00    +0.003 A 
ATOM     27  C   UNL     1       8.686  -6.119   5.691  0.00  0.00    +0.010 A 
ATOM     28  C   UNL     1      10.035  -6.339   5.694  0.00  0.00    +0.001 A 
ATOM     29  C   UNL     1      10.630  -7.056   6.722  0.00  0.00    +0.002 A 
ATOM     30  C   UNL     1       9.873  -7.559   7.758  0.00  0.00    +0.026 A 
ATOM     31  C   UNL     1       8.499  -7.347   7.776  0.00  0.00    +0.047 A 
ATOM     32  N   UNL     1       7.495  -7.709   8.646  0.00  0.00    -0.360 N 
ATOM     33  C   UNL     1       6.294  -7.234   8.194  0.00  0.00    +0.087 A 
ATOM     34  H   UNL     1       7.621  -8.221   9.460  0.00  0.00    +0.165 HD
ENDBRANCH  24  25
ENDBRANCH  23  24
ENDBRANCH  21  23
ENDBRANCH   8  19
TORSDOF 5
