REMARK  Name = ZINC12883073
REMARK  5 active torsions:
REMARK  status: ('A' for Active; 'I' for Inactive)
REMARK    1  A    between atoms: C_1  and  C_2
REMARK    2  A    between atoms: C_2  and  C_3
REMARK    3  A    between atoms: C_23  and  C_30
REMARK    4  A    between atoms: C_30  and  C_32
REMARK    5  A    between atoms: C_35  and  C_38
REMARK                            x       y       z     vdW  Elec       q    Type
REMARK                         _______ _______ _______ _____ _____    ______ ____
ROOT
ATOM      1  C   UNL     1       3.448  -1.854   2.372  0.00  0.00    -0.047 A 
ATOM      2  C   UNL     1       3.819  -3.008   1.707  0.00  0.00    +0.005 A 
ATOM      3  C   UNL     1       3.444  -3.208   0.394  0.00  0.00    +0.024 A 
ATOM      4  C   UNL     1       2.688  -2.246  -0.272  0.00  0.00    +0.036 A 
ATOM      5  C   UNL     1       2.322  -1.088   0.407  0.00  0.00    -0.026 A 
ATOM      6  C   UNL     1       2.697  -0.893   1.717  0.00  0.00    +0.008 A 
ATOM      7  C   UNL     1       1.526  -0.266  -0.572  0.00  0.00    +0.060 C 
ATOM      8  C   UNL     1       1.502  -1.091  -1.834  0.00  0.00    +0.212 C 
ATOM      9  O   UNL     1       0.962  -0.797  -2.880  0.00  0.00    -0.277 OA
ATOM     10  N   UNL     1       2.194  -2.217  -1.577  0.00  0.00    -0.286 N 
ATOM     11  C   UNL     1       0.117   0.003  -0.059  0.00  0.00    +0.085 C 
ATOM     12  C   UNL     1      -0.931  -0.594  -0.956  0.00  0.00    -0.011 A 
ATOM     13  C   UNL     1      -1.241  -0.435  -2.288  0.00  0.00    +0.006 A 
ATOM     14  C   UNL     1      -2.291  -1.144  -2.844  0.00  0.00    +0.000 A 
ATOM     15  C   UNL     1      -3.028  -2.011  -2.058  0.00  0.00    +0.002 A 
ATOM     16  C   UNL     1      -2.722  -2.173  -0.723  0.00  0.00    +0.023 A 
ATOM     17  C   UNL     1      -1.666  -1.464  -0.155  0.00  0.00    +0.038 A 
ATOM     18  N   UNL     1      -1.167  -1.457   1.149  0.00  0.00    -0.285 N 
ATOM     19  C   UNL     1      -0.120  -0.622   1.289  0.00  0.00    +0.228 C 
ATOM     20  O   UNL     1       0.511  -0.415   2.304  0.00  0.00    -0.275 OA
ATOM     21  C   UNL     1      -0.019   1.534   0.011  0.00  0.00    +0.066 C 
ATOM     22  C   UNL     1       1.453   2.011   0.063  0.00  0.00    -0.055 C 
ATOM     23  C   UNL     1       1.883   1.486  -2.194  0.00  0.00    -0.076 C 
ATOM     24  C   UNL     1       1.875   3.026  -2.129  0.00  0.00    -0.020 C 
ATOM     25  C   UNL     1       1.570   3.366  -0.657  0.00  0.00    -0.016 C 
ATOM     26  H   UNL     1       2.333  -2.926  -2.224  0.00  0.00    +0.155 HD
ATOM     27  H   UNL     1      -1.534  -1.991   1.872  0.00  0.00    +0.155 HD
ATOM     28  N   UNL     1       2.122   1.058  -0.803  0.00  0.00    +0.395 N 
ATOM     29  H   UNL     1       3.129   1.033  -0.606  0.00  0.00    -0.079 HD
ENDROOT
BRANCH   1  31
ATOM     30  C   UNL     1       5.211  -0.926   3.848  0.00  0.00    +0.009 C 
ATOM     31  C   UNL     1       3.860  -1.643   3.806  0.00  0.00    +0.032 C 
ENDBRANCH   1  31
BRANCH  21  32
ATOM     32  C   UNL     1      -0.708   2.065  -1.220  0.00  0.00    +0.166 C 
ATOM     33  O   UNL     1      -0.055   2.379  -2.193  0.00  0.00    -0.292 OA
BRANCH  32  34
ATOM     34  C   UNL     1      -2.173   2.201  -1.243  0.00  0.00    +0.018 A 
ATOM     35  C   UNL     1      -2.930   1.835  -0.125  0.00  0.00    +0.011 A 
ATOM     36  C   UNL     1      -4.302   1.970  -0.152  0.00  0.00    +0.004 A 
ATOM     37  C   UNL     1      -4.931   2.458  -1.284  0.00  0.00    -0.050 A 
ATOM     38  C   UNL     1      -4.189   2.818  -2.396  0.00  0.00    +0.004 A 
ATOM     39  C   UNL     1      -2.816   2.693  -2.383  0.00  0.00    +0.011 A 
ATOM     40  C   UNL     1      -6.431   2.597  -1.307  0.00  0.00    +0.044 C 
ENDBRANCH  32  34
ENDBRANCH  21  32
TORSDOF 3
