REMARK  Name = ZINC20322479
REMARK  10 active torsions:
REMARK  status: ('A' for Active; 'I' for Inactive)
REMARK    1  A    between atoms: C_1  and  N_2
REMARK    2  A    between atoms: N_2  and  C_3
REMARK    3  A    between atoms: N_2  and  C_4
REMARK    4  A    between atoms: C_4  and  C_5
REMARK    5  A    between atoms: C_5  and  C_6
REMARK    6  A    between atoms: C_6  and  N_7
REMARK    7  A    between atoms: N_7  and  C_8
REMARK    8  A    between atoms: C_10  and  N_25
REMARK    9  A    between atoms: N_25  and  C_26
REMARK   10  A    between atoms: C_26  and  C_27
REMARK                            x       y       z     vdW  Elec       q    Type
REMARK                         _______ _______ _______ _____ _____    ______ ____
ROOT
ATOM      1  C   UNL     1       0.888  -2.256  -0.018  0.00  0.00    +0.041 A 
ATOM      2  C   UNL     1      -0.434  -2.720  -0.007  0.00  0.00    +0.048 A 
ATOM      3  C   UNL     1      -1.554  -1.912   0.008  0.00  0.00    +0.059 A 
ATOM      4  C   UNL     1      -1.385  -0.454   0.013  0.00  0.00    +0.135 A 
ATOM      5  C   UNL     1       0.002  -0.004   0.002  0.00  0.00    +0.063 A 
ATOM      6  C   UNL     1       1.145  -0.876  -0.014  0.00  0.00    +0.056 A 
ATOM      7  C   UNL     1       2.415  -0.256  -0.024  0.00  0.00    +0.196 C 
ATOM      8  O   UNL     1       3.439  -0.920  -0.039  0.00  0.00    -0.287 OA
ATOM      9  C   UNL     1       2.466   1.223  -0.015  0.00  0.00    +0.033 A 
ATOM     10  C   UNL     1       3.714   1.857  -0.023  0.00  0.00    +0.012 A 
ATOM     11  C   UNL     1       3.793   3.230  -0.015  0.00  0.00    +0.001 A 
ATOM     12  C   UNL     1       2.641   4.006   0.001  0.00  0.00    +0.001 A 
ATOM     13  C   UNL     1       1.401   3.411   0.009  0.00  0.00    +0.012 A 
ATOM     14  C   UNL     1       1.293   2.017   0.001  0.00  0.00    +0.031 A 
ATOM     15  C   UNL     1      -0.017   1.368   0.010  0.00  0.00    +0.176 A 
ATOM     16  O   UNL     1      -1.322   1.659   0.019  0.00  0.00    -0.353 OA
ATOM     17  N   UNL     1      -2.049   0.667   0.025  0.00  0.00    -0.076 NA
ENDROOT
BRANCH   1  18
ATOM     18  N   UNL     1       1.935  -3.154  -0.034  0.00  0.00    -0.343 N 
ATOM     19  H   UNL     1       2.972  -2.788  -0.042  0.00  0.00    +0.146 HD
BRANCH  18  20
ATOM     20  C   UNL     1       1.665  -4.593  -0.038  0.00  0.00    +0.100 C 
BRANCH  20  21
ATOM     21  C   UNL     1       2.989  -5.360  -0.056  0.00  0.00    -0.000 C 
BRANCH  21  22
ATOM     22  C   UNL     1       2.707  -6.864  -0.061  0.00  0.00    -0.078 C 
BRANCH  22  24
ATOM     23  C   UNL     1       3.760  -9.034   0.155  0.00  0.00    -0.097 C 
ATOM     24  N   UNL     1       3.978  -7.600  -0.077  0.00  0.00    +0.376 N 
ATOM     25  C   UNL     1       4.700  -7.376  -1.337  0.00  0.00    -0.097 C 
ATOM     26  H   UNL     1       4.603  -7.216   0.743  0.00  0.00    -0.083 HD
ENDBRANCH  22  24
ENDBRANCH  21  22
ENDBRANCH  20  21
ENDBRANCH  18  20
ENDBRANCH   1  18
BRANCH   3  27
ATOM     27  N   UNL     1      -2.816  -2.469   0.018  0.00  0.00    -0.338 N 
ATOM     28  H   UNL     1      -3.703  -1.819   0.030  0.00  0.00    +0.146 HD
BRANCH  27  29
ATOM     29  C   UNL     1      -2.974  -3.925   0.013  0.00  0.00    +0.137 C 
BRANCH  29  30
ATOM     30  C   UNL     1      -4.441  -4.272   0.026  0.00  0.00    -0.027 A 
ATOM     31  C   UNL     1      -5.099  -4.441   1.230  0.00  0.00    +0.009 A 
ATOM     32  C   UNL     1      -6.445  -4.753   1.247  0.00  0.00    +0.050 A 
ATOM     33  C   UNL     1      -7.136  -4.909   0.056  0.00  0.00    +0.166 A 
ATOM     34  C   UNL     1      -6.472  -4.743  -1.157  0.00  0.00    +0.167 A 
ATOM     35  C   UNL     1      -5.123  -4.425  -1.166  0.00  0.00    +0.054 A 
ATOM     36  O   UNL     1      -7.361  -4.947  -2.173  0.00  0.00    -0.453 OA
ATOM     37  C   UNL     1      -8.474  -5.638  -1.576  0.00  0.00    +0.466 C 
ATOM     38  O   UNL     1      -8.441  -5.216  -0.200  0.00  0.00    -0.453 OA
ENDBRANCH  29  30
ENDBRANCH  27  29
ENDBRANCH   3  27
TORSDOF 8
