REMARK  Name = ZINC12958149
REMARK  10 active torsions:
REMARK  status: ('A' for Active; 'I' for Inactive)
REMARK    1  A    between atoms: C_6  and  S_7
REMARK    2  A    between atoms: S_7  and  N_10
REMARK    3  A    between atoms: N_10  and  N_11
REMARK    4  A    between atoms: C_12  and  C_14
REMARK    5  A    between atoms: C_16  and  O_26
REMARK    6  A    between atoms: C_19  and  O_20
REMARK    7  A    between atoms: O_20  and  C_21
REMARK    8  A    between atoms: C_21  and  C_22
REMARK    9  A    between atoms: O_26  and  C_27
REMARK   10  A    between atoms: C_27  and  C_28
REMARK                            x       y       z     vdW  Elec       q    Type
REMARK                         _______ _______ _______ _____ _____    ______ ____
ROOT
ATOM      1  C   UNL     1       3.391   2.202   0.938  0.00  0.00    +0.083 A 
ATOM      2  C   UNL     1       3.632   3.158  -0.052  0.00  0.00    +0.062 A 
ATOM      3  C   UNL     1       4.820   3.865  -0.051  0.00  0.00    +0.122 A 
ATOM      4  C   UNL     1       5.778   3.621   0.926  0.00  0.00    +0.049 A 
ATOM      5  C   UNL     1       5.549   2.674   1.905  0.00  0.00    +0.050 A 
ATOM      6  C   UNL     1       4.361   1.960   1.919  0.00  0.00    +0.133 A 
ENDROOT
BRANCH   1   8
ATOM      7  N   UNL     1       1.193   1.683  -0.000  0.00  0.00    -0.228 N 
ATOM      8  C   UNL     1       2.123   1.447   0.946  0.00  0.00    +0.262 C 
ATOM      9  O   UNL     1       1.918   0.613   1.806  0.00  0.00    -0.269 OA
ATOM     10  H   UNL     1       1.356   2.349  -0.686  0.00  0.00    +0.171 HD
BRANCH   7  11
ATOM     11  N   UNL     1      -0.011   0.966   0.007  0.00  0.00    -0.108 NA
ATOM     12  H   UNL     1       0.002  -0.004   0.002  0.00  0.00    +0.172 HD
BRANCH  11  13
ATOM     13  S   UNL     1      -1.456   1.774   0.019  0.00  0.00    +0.074 S 
ATOM     14  O   UNL     1      -2.472   0.792  -0.128  0.00  0.00    -0.152 OA
ATOM     15  O   UNL     1      -1.413   2.667   1.123  0.00  0.00    -0.152 OA
BRANCH  13  21
ATOM     16  C   UNL     1      -1.023   4.066  -1.400  0.00  0.00    +0.030 A 
ATOM     17  C   UNL     1      -1.057   4.846  -2.540  0.00  0.00    +0.022 A 
ATOM     18  C   UNL     1      -1.587   4.335  -3.712  0.00  0.00    +0.041 A 
ATOM     19  C   UNL     1      -2.076   3.042  -3.743  0.00  0.00    +0.022 A 
ATOM     20  C   UNL     1      -2.036   2.260  -2.604  0.00  0.00    +0.030 A 
ATOM     21  C   UNL     1      -1.507   2.771  -1.433  0.00  0.00    +0.107 A 
ATOM     22 CL   UNL     1      -1.636   5.317  -5.143  0.00  0.00    -0.084 Cl
ENDBRANCH  13  21
ENDBRANCH  11  13
ENDBRANCH   7  11
ENDBRANCH   1   8
BRANCH   6  23
ATOM     23  O   UNL     1       4.137   1.030   2.882  0.00  0.00    -0.482 OA
BRANCH  23  24
ATOM     24  C   UNL     1       5.170   0.837   3.850  0.00  0.00    +0.342 C 
BRANCH  24  25
ATOM     25  C   UNL     1       4.741  -0.242   4.846  0.00  0.00    +0.424 C 
ATOM     26  F   UNL     1       4.511  -1.442   4.164  0.00  0.00    -0.167 F 
ATOM     27  F   UNL     1       5.753  -0.431   5.794  0.00  0.00    -0.167 F 
ATOM     28  F   UNL     1       3.567   0.160   5.492  0.00  0.00    -0.167 F 
ENDBRANCH  24  25
ENDBRANCH  23  24
ENDBRANCH   6  23
BRANCH   3  29
ATOM     29  O   UNL     1       5.054   4.799  -1.011  0.00  0.00    -0.483 OA
BRANCH  29  30
ATOM     30  C   UNL     1       6.305   5.489  -0.954  0.00  0.00    +0.342 C 
BRANCH  30  31
ATOM     31  C   UNL     1       6.387   6.492  -2.106  0.00  0.00    +0.424 C 
ATOM     32  F   UNL     1       5.340   7.414  -1.997  0.00  0.00    -0.167 F 
ATOM     33  F   UNL     1       7.611   7.167  -2.050  0.00  0.00    -0.167 F 
ATOM     34  F   UNL     1       6.285   5.812  -3.325  0.00  0.00    -0.167 F 
ENDBRANCH  30  31
ENDBRANCH  29  30
ENDBRANCH   3  29
TORSDOF 10
