REMARK  Name = ZINC39599412
REMARK  11 active torsions:
REMARK  status: ('A' for Active; 'I' for Inactive)
REMARK    1  A    between atoms: C_1  and  O_2
REMARK    2  A    between atoms: O_2  and  C_3
REMARK    3  A    between atoms: C_6  and  C_9
REMARK    4  A    between atoms: C_9  and  C_10
REMARK    5  A    between atoms: C_10  and  C_11
REMARK    6  A    between atoms: C_15  and  C_24
REMARK    7  A    between atoms: N_26  and  C_27
REMARK    8  A    between atoms: C_27  and  C_28
REMARK    9  A    between atoms: C_28  and  C_29
REMARK   10  A    between atoms: C_32  and  O_38
REMARK   11  A    between atoms: O_38  and  C_39
REMARK                            x       y       z     vdW  Elec       q    Type
REMARK                         _______ _______ _______ _____ _____    ______ ____
ROOT
ATOM      1  C   UNL     1       2.060  -3.272   6.491  0.00  0.00    +0.216 C 
ATOM      2  O   UNL     1       3.250  -3.454   6.348  0.00  0.00    -0.276 OA
ATOM      3  N   UNL     1       1.448  -3.674   7.623  0.00  0.00    -0.300 N 
ATOM      4  C   UNL     1       0.014  -3.546   7.975  0.00  0.00    +0.121 C 
ATOM      5  C   UNL     1      -0.333  -4.871   8.690  0.00  0.00    +0.100 C 
ATOM      6  C   UNL     1       1.012  -5.390   9.227  0.00  0.00    -0.004 C 
ATOM      7  C   UNL     1       2.056  -4.352   8.793  0.00  0.00    +0.115 C 
ATOM      8  C   UNL     1       1.338  -6.747   8.612  0.00  0.00    -0.010 C 
ATOM      9  C   UNL     1       2.650  -7.269   9.204  0.00  0.00    -0.082 C 
ATOM     10  N   UNL     1       2.517  -7.389  10.661  0.00  0.00    +0.379 N 
ATOM     11  C   UNL     1       2.295  -6.065  11.255  0.00  0.00    -0.082 C 
ATOM     12  C   UNL     1       0.969  -5.493  10.749  0.00  0.00    -0.010 C 
ATOM     13  H   UNL     1       1.736  -7.989  10.878  0.00  0.00    -0.086 HD
ATOM     14  H   UNL     1       3.361  -7.790  11.043  0.00  0.00    -0.086 HD
ENDROOT
BRANCH   5  15
ATOM     15  C   UNL     1      -0.925  -5.854   7.713  0.00  0.00    +0.218 C 
ATOM     16  O   UNL     1      -0.597  -5.822   6.546  0.00  0.00    -0.275 OA
ATOM     17  N   UNL     1      -1.819  -6.769   8.137  0.00  0.00    -0.315 N 
ATOM     18  H   UNL     1      -2.081  -6.795   9.071  0.00  0.00    +0.149 HD
BRANCH  17  19
ATOM     19  C   UNL     1      -2.395  -7.725   7.188  0.00  0.00    +0.109 C 
BRANCH  19  20
ATOM     20  C   UNL     1      -3.373  -8.646   7.921  0.00  0.00    +0.056 C 
BRANCH  20  21
ATOM     21  C   UNL     1      -3.965  -9.629   6.945  0.00  0.00    -0.021 A 
ATOM     22  C   UNL     1      -3.378 -10.905   6.529  0.00  0.00    +0.006 A 
ATOM     23  C   UNL     1      -2.200 -11.582   6.854  0.00  0.00    +0.056 A 
ATOM     24  C   UNL     1      -1.933 -12.804   6.271  0.00  0.00    +0.121 A 
ATOM     25  C   UNL     1      -2.831 -13.361   5.364  0.00  0.00    +0.047 A 
ATOM     26  C   UNL     1      -3.995 -12.702   5.036  0.00  0.00    +0.030 A 
ATOM     27  C   UNL     1      -4.283 -11.470   5.613  0.00  0.00    +0.047 A 
ATOM     28  N   UNL     1      -5.338 -10.591   5.490  0.00  0.00    -0.360 N 
ATOM     29  C   UNL     1      -5.133  -9.504   6.295  0.00  0.00    +0.087 A 
ATOM     30  H   UNL     1      -6.113 -10.725   4.922  0.00  0.00    +0.165 HD
BRANCH  24  31
ATOM     31  O   UNL     1      -0.787 -13.467   6.583  0.00  0.00    -0.495 OA
ATOM     32  C   UNL     1      -0.573 -14.727   5.944  0.00  0.00    +0.277 C 
ENDBRANCH  24  31
ENDBRANCH  20  21
ENDBRANCH  19  20
ENDBRANCH  17  19
ENDBRANCH   5  15
BRANCH   1  33
ATOM     33  C   UNL     1       1.265  -2.594   5.405  0.00  0.00    +0.100 C 
BRANCH  33  34
ATOM     34  C   UNL     1       2.191  -2.241   4.240  0.00  0.00    +0.044 C 
BRANCH  34  38
ATOM     35  C   UNL     1      -0.063  -0.320   1.159  0.00  0.00    +0.120 A 
ATOM     36  C   UNL     1       0.528   0.435   2.161  0.00  0.00    +0.046 A 
ATOM     37  C   UNL     1       1.256  -0.188   3.156  0.00  0.00    +0.007 A 
ATOM     38  C   UNL     1       1.396  -1.564   3.153  0.00  0.00    -0.047 A 
ATOM     39  C   UNL     1       0.808  -2.319   2.155  0.00  0.00    +0.007 A 
ATOM     40  C   UNL     1       0.074  -1.701   1.161  0.00  0.00    +0.046 A 
BRANCH  35  42
ATOM     41  C   UNL     1      -0.878   1.715   0.240  0.00  0.00    +0.277 C 
ATOM     42  O   UNL     1      -0.779   0.291   0.179  0.00  0.00    -0.495 OA
ENDBRANCH  35  42
ENDBRANCH  34  38
ENDBRANCH  33  34
ENDBRANCH   1  33
TORSDOF 9
