REMARK  Name = ZINC02216798
REMARK  4 active torsions:
REMARK  status: ('A' for Active; 'I' for Inactive)
REMARK    1  A    between atoms: C_1  and  C_2
REMARK    2  A    between atoms: C_2  and  C_4
REMARK    3  A    between atoms: C_4  and  S_5
REMARK    4  A    between atoms: S_5  and  C_6
REMARK                            x       y       z     vdW  Elec       q    Type
REMARK                         _______ _______ _______ _____ _____    ______ ____
ROOT
ATOM      1  C   UNL     1       1.449   6.568   0.023  0.00  0.00    +0.198 A 
ATOM      2  N   UNL     1       2.632   6.002   0.008  0.00  0.00    -0.120 NA
ATOM      3  N   UNL     1       2.510   4.722   0.002  0.00  0.00    -0.107 NA
ATOM      4  C   UNL     1       1.242   4.392   0.013  0.00  0.00    +0.260 A 
ATOM      5  N   UNL     1       0.521   5.562   0.026  0.00  0.00    -0.248 N 
ATOM      6  C   UNL     1      -0.852   5.539   0.038  0.00  0.00    +0.101 A 
ATOM      7  C   UNL     1      -1.574   4.352   0.038  0.00  0.00    +0.054 A 
ATOM      8  C   UNL     1      -3.031   4.485   0.050  0.00  0.00    -0.024 A 
ATOM      9  C   UNL     1      -3.531   5.739   0.061  0.00  0.00    -0.004 A 
ATOM     10  S   UNL     1      -2.107   6.794   0.057  0.00  0.00    -0.075 S 
ATOM     11  C   UNL     1      -4.974   6.141   0.074  0.00  0.00    +0.043 C 
ATOM     12  C   UNL     1      -5.820   4.916  -0.303  0.00  0.00    +0.005 C 
ATOM     13  C   UNL     1      -5.345   3.717   0.523  0.00  0.00    +0.005 C 
ATOM     14  C   UNL     1      -3.960   3.275   0.050  0.00  0.00    +0.037 C 
ATOM     15  C   UNL     1      -0.769   3.103   0.025  0.00  0.00    +0.169 A 
ATOM     16  N   UNL     1       0.588   3.173   0.013  0.00  0.00    -0.178 N 
ATOM     17  N   UNL     1       1.046   1.846   0.002  0.00  0.00    -0.150 NA
ATOM     18  C   UNL     1      -0.013   1.076   0.008  0.00  0.00    +0.246 A 
ATOM     19  N   UNL     1      -1.110   1.830   0.017  0.00  0.00    -0.214 NA
ENDROOT
BRANCH   1  20
ATOM     20  S   UNL     1       1.117   8.298   0.037  0.00  0.00    -0.081 S 
BRANCH  20  21
ATOM     21  C   UNL     1       2.763   9.061   0.025  0.00  0.00    +0.107 C 
BRANCH  21  23
ATOM     22  C   UNL     1       2.202  11.287  -1.217  0.00  0.00    +0.039 C 
ATOM     23  C   UNL     1       2.621  10.561   0.035  0.00  0.00    -0.069 C 
ATOM     24  C   UNL     1       2.862  11.235   1.133  0.00  0.00    +0.008 C 
ENDBRANCH  21  23
ENDBRANCH  20  21
ENDBRANCH   1  20
TORSDOF 3
