REMARK  Name = ZINC20721239
REMARK  5 active torsions:
REMARK  status: ('A' for Active; 'I' for Inactive)
REMARK    1  A    between atoms: C_1  and  O_2
REMARK    2  A    between atoms: O_2  and  C_3
REMARK    3  A    between atoms: C_3  and  C_5
REMARK    4  A    between atoms: C_8  and  N_11
REMARK    5  A    between atoms: C_23  and  C_25
REMARK                            x       y       z     vdW  Elec       q    Type
REMARK                         _______ _______ _______ _____ _____    ______ ____
ROOT
ATOM      1  N   UNL     1      -0.902  -6.865  -0.098  0.00  0.00    -0.269 N 
ATOM      2  C   UNL     1      -2.188  -7.229   0.073  0.00  0.00    +0.307 C 
ATOM      3  O   UNL     1      -3.050  -6.379   0.190  0.00  0.00    -0.252 OA
ATOM      4  N   UNL     1      -2.519  -8.535   0.114  0.00  0.00    -0.272 N 
ATOM      5  C   UNL     1      -1.482  -9.577   0.093  0.00  0.00    +0.116 C 
ATOM      6  C   UNL     1      -1.626 -10.405  -1.190  0.00  0.00    +0.076 C 
ATOM      7  C   UNL     1      -3.083 -10.741  -1.393  0.00  0.00    +0.066 A 
ATOM      8  C   UNL     1      -4.104 -10.096  -0.789  0.00  0.00    +0.064 A 
ATOM      9  N   UNL     1      -5.257 -10.675  -1.220  0.00  0.00    -0.346 N 
ATOM     10  H   UNL     1      -6.159 -10.427  -0.963  0.00  0.00    +0.167 HD
ATOM     11  C   UNL     1      -4.907 -11.663  -2.076  0.00  0.00    +0.197 A 
ATOM     12  N   UNL     1      -3.603 -11.694  -2.172  0.00  0.00    -0.240 NA
ATOM     13  C   UNL     1      -3.931  -8.955   0.188  0.00  0.00    +0.159 C 
ATOM     14  H   UNL     1      -0.227  -7.538  -0.276  0.00  0.00    +0.156 HD
ENDROOT
BRANCH  13  15
ATOM     15  C   UNL     1      -4.256  -9.416   1.585  0.00  0.00    +0.017 A 
ATOM     16  C   UNL     1      -4.218 -10.763   1.895  0.00  0.00    +0.011 A 
ATOM     17  C   UNL     1      -4.516 -11.188   3.176  0.00  0.00    +0.042 A 
ATOM     18  C   UNL     1      -4.854 -10.265   4.152  0.00  0.00    +0.161 A 
ATOM     19  C   UNL     1      -4.894  -8.915   3.843  0.00  0.00    +0.194 A 
ATOM     20  C   UNL     1      -4.589  -8.490   2.559  0.00  0.00    +0.167 A 
ATOM     21  F   UNL     1      -4.621  -7.173   2.257  0.00  0.00    -0.202 F 
ATOM     22  F   UNL     1      -5.224  -8.013   4.793  0.00  0.00    -0.199 F 
ATOM     23  F   UNL     1      -5.146 -10.681   5.403  0.00  0.00    -0.202 F 
ENDBRANCH  13  15
BRANCH   1  27
ATOM     24  C   UNL     1       0.176  -2.849   0.142  0.00  0.00    +0.059 A 
ATOM     25  C   UNL     1       1.046  -3.837   0.613  0.00  0.00    +0.017 A 
ATOM     26  C   UNL     1       0.686  -5.163   0.532  0.00  0.00    +0.024 A 
ATOM     27  C   UNL     1      -0.541  -5.521  -0.017  0.00  0.00    +0.035 A 
ATOM     28  C   UNL     1      -1.409  -4.540  -0.488  0.00  0.00    +0.024 A 
ATOM     29  C   UNL     1      -1.059  -3.212  -0.405  0.00  0.00    +0.017 A 
BRANCH  24  30
ATOM     30  C   UNL     1       0.557  -1.427   0.227  0.00  0.00    +0.339 C 
ATOM     31  O   UNL     1      -0.202  -0.569  -0.178  0.00  0.00    -0.245 OA
BRANCH  30  33
ATOM     32  C   UNL     1       2.051   0.316   0.806  0.00  0.00    +0.280 C 
ATOM     33  O   UNL     1       1.748  -1.079   0.755  0.00  0.00    -0.464 OA
ENDBRANCH  30  33
ENDBRANCH  24  30
ENDBRANCH   1  27
TORSDOF 4
