REMARK  Name = ZINC40356413
REMARK  22 active torsions:
REMARK  status: ('A' for Active; 'I' for Inactive)
REMARK    1  A    between atoms: C_1  and  C_2
REMARK    2  A    between atoms: C_2  and  C_3
REMARK    3  A    between atoms: C_3  and  C_4
REMARK    4  A    between atoms: C_3  and  C_5
REMARK    5  A    between atoms: C_3  and  C_6
REMARK    6  A    between atoms: C_9  and  O_17
REMARK    7  A    between atoms: C_10  and  C_12
REMARK    8  A    between atoms: C_12  and  C_13
REMARK    9  A    between atoms: C_12  and  C_14
REMARK   10  A    between atoms: C_12  and  C_15
REMARK   11  A    between atoms: C_15  and  C_16
REMARK   12  A    between atoms: O_17  and  C_18
REMARK   13  A    between atoms: C_18  and  C_19
REMARK   14  A    between atoms: C_19  and  C_20
REMARK   15  A    between atoms: C_20  and  C_21
REMARK   16  A    between atoms: C_21  and  N_22
REMARK   17  A    between atoms: N_25  and  C_26
REMARK   18  A    between atoms: C_26  and  C_27
REMARK   19  A    between atoms: N_35  and  C_36
REMARK   20  A    between atoms: C_36  and  C_37
REMARK   21  A    between atoms: C_36  and  C_38
REMARK   22  A    between atoms: C_36  and  C_39
REMARK                            x       y       z     vdW  Elec       q    Type
REMARK                         _______ _______ _______ _____ _____    ______ ____
ROOT
ATOM      1  C   UNL     1      -0.244 -10.520   0.644  0.00  0.00    +0.106 C 
ENDROOT
BRANCH   1   2
ATOM      2  N   UNL     1      -0.884 -11.203   1.772  0.00  0.00    -0.299 N 
ATOM      3  C   UNL     1      -0.896 -12.550   1.825  0.00  0.00    +0.300 C 
ATOM      4  O   UNL     1      -0.376 -13.198   0.937  0.00  0.00    -0.253 OA
ATOM      5  N   UNL     1      -1.484 -13.178   2.862  0.00  0.00    -0.299 N 
ATOM      6  H   UNL     1      -1.299 -10.686   2.480  0.00  0.00    +0.150 HD
ATOM      7  H   UNL     1      -1.899 -12.661   3.570  0.00  0.00    +0.150 HD
BRANCH   5   8
ATOM      8  C   UNL     1      -1.497 -14.642   2.920  0.00  0.00    +0.109 C 
BRANCH   8   9
ATOM      9  C   UNL     1      -2.222 -15.096   4.189  0.00  0.00    +0.009 C 
ATOM     10  C   UNL     1      -1.427 -14.648   5.417  0.00  0.00    +0.024 C 
ATOM     11  C   UNL     1      -2.172 -15.073   6.686  0.00  0.00    +0.109 C 
ATOM     12  N   UNL     1      -2.423 -16.520   6.624  0.00  0.00    -0.286 N 
ATOM     13  C   UNL     1      -3.101 -17.069   5.442  0.00  0.00    +0.109 C 
ATOM     14  C   UNL     1      -2.345 -16.621   4.188  0.00  0.00    +0.024 C 
ATOM     15  C   UNL     1      -2.038 -17.327   7.633  0.00  0.00    +0.303 C 
ATOM     16  O   UNL     1      -1.394 -16.877   8.560  0.00  0.00    -0.253 OA
ATOM     17  N   UNL     1      -2.367 -18.634   7.612  0.00  0.00    -0.294 N 
ATOM     18  H   UNL     1      -2.818 -19.009   6.840  0.00  0.00    +0.151 HD
BRANCH  17  19
ATOM     19  C   UNL     1      -2.043 -19.488   8.757  0.00  0.00    +0.028 C 
ATOM     20  C   UNL     1      -2.741 -18.951  10.008  0.00  0.00    +0.031 C 
ATOM     21  C   UNL     1      -2.521 -20.915   8.480  0.00  0.00    +0.031 C 
ATOM     22  C   UNL     1      -0.529 -19.492   8.979  0.00  0.00    +0.031 C 
ENDBRANCH  17  19
ENDBRANCH   8   9
ENDBRANCH   5   8
ENDBRANCH   1   2
BRANCH   1  23
ATOM     23  C   UNL     1      -0.370  -9.007   0.827  0.00  0.00    +0.022 C 
BRANCH  23  24
ATOM     24  C   UNL     1       0.298  -8.293  -0.350  0.00  0.00    +0.042 C 
BRANCH  24  25
ATOM     25  C   UNL     1       0.172  -6.779  -0.168  0.00  0.00    +0.229 C 
BRANCH  25  26
ATOM     26  O   UNL     1       0.795  -6.113  -1.267  0.00  0.00    -0.492 OA
BRANCH  26  30
ATOM     27  C   UNL     1       0.726  -1.989  -1.242  0.00  0.00    -0.041 A 
ATOM     28  C   UNL     1       0.139  -2.695  -0.208  0.00  0.00    +0.008 A 
ATOM     29  C   UNL     1       0.161  -4.076  -0.214  0.00  0.00    +0.046 A 
ATOM     30  C   UNL     1       0.772  -4.755  -1.259  0.00  0.00    +0.124 A 
ATOM     31  C   UNL     1       1.359  -4.043  -2.295  0.00  0.00    +0.000 A 
ATOM     32  C   UNL     1       1.330  -2.662  -2.287  0.00  0.00    +0.012 A 
BRANCH  27  33
ATOM     33  C   UNL     1       0.701  -0.482  -1.232  0.00  0.00    -0.010 C 
ATOM     34  C   UNL     1      -0.036   0.024  -2.474  0.00  0.00    +0.016 C 
ATOM     35  C   UNL     1       2.135   0.052  -1.238  0.00  0.00    +0.016 C 
BRANCH  33  37
ATOM     36  C   UNL     1      -0.047   1.538   0.034  0.00  0.00    +0.005 C 
ATOM     37  C   UNL     1      -0.022   0.008   0.024  0.00  0.00    +0.007 C 
ENDBRANCH  33  37
ENDBRANCH  27  33
BRANCH  31  38
ATOM     38  C   UNL     1       2.023  -4.777  -3.432  0.00  0.00    -0.007 C 
ATOM     39  C   UNL     1       2.586  -3.765  -4.432  0.00  0.00    +0.016 C 
ATOM     40  C   UNL     1       3.162  -5.641  -2.885  0.00  0.00    +0.016 C 
BRANCH  38  41
ATOM     41  C   UNL     1       0.997  -5.670  -4.132  0.00  0.00    +0.008 C 
ATOM     42  C   UNL     1       1.671  -6.415  -5.286  0.00  0.00    +0.005 C 
ENDBRANCH  38  41
ENDBRANCH  31  38
ENDBRANCH  26  30
ENDBRANCH  25  26
ENDBRANCH  24  25
ENDBRANCH  23  24
ENDBRANCH   1  23
TORSDOF 13
