REMARK  Name = ZINC39513864
REMARK  5 active torsions:
REMARK  status: ('A' for Active; 'I' for Inactive)
REMARK    1  A    between atoms: C_4  and  O_7
REMARK    2  A    between atoms: O_7  and  S_8
REMARK    3  A    between atoms: S_8  and  C_11
REMARK    4  A    between atoms: C_17  and  C_24
REMARK    5  A    between atoms: C_29  and  O_30
REMARK                            x       y       z     vdW  Elec       q    Type
REMARK                         _______ _______ _______ _____ _____    ______ ____
ROOT
ATOM      1  C   UNL     1       3.053  -2.444   1.837  0.00  0.00    +0.173 C 
ATOM      2  C   UNL     1       3.280  -3.737   1.014  0.00  0.00    +0.032 C 
ATOM      3  C   UNL     1       2.931  -4.876   1.995  0.00  0.00    +0.026 C 
ATOM      4  C   UNL     1       3.112  -4.305   3.410  0.00  0.00    +0.046 C 
ATOM      5  C   UNL     1       3.558  -2.838   3.248  0.00  0.00    +0.054 C 
ATOM      6  C   UNL     1       4.186  -5.094   4.156  0.00  0.00    +0.044 C 
ATOM      7  C   UNL     1       3.723  -6.545   4.323  0.00  0.00    +0.011 C 
ATOM      8  C   UNL     1       2.380  -6.562   5.058  0.00  0.00    +0.017 C 
ATOM      9  C   UNL     1       1.360  -5.738   4.269  0.00  0.00    +0.103 C 
ATOM     10  N   UNL     1       1.842  -4.356   4.137  0.00  0.00    -0.213 NA
ATOM     11 CL   UNL     1       0.666  -3.366   3.388  0.00  0.00    -0.021 Cl
ENDROOT
BRANCH   6  12
ATOM     12  C   UNL     1       5.471  -5.062   3.370  0.00  0.00    -0.001 A 
ATOM     13  C   UNL     1       5.618  -4.176   2.320  0.00  0.00    +0.007 A 
ATOM     14  C   UNL     1       6.797  -4.147   1.598  0.00  0.00    +0.001 A 
ATOM     15  C   UNL     1       7.832  -5.004   1.925  0.00  0.00    +0.004 A 
ATOM     16  C   UNL     1       7.690  -5.891   2.975  0.00  0.00    +0.046 A 
ATOM     17  C   UNL     1       6.510  -5.919   3.704  0.00  0.00    +0.120 A 
BRANCH  17  18
ATOM     18  O   UNL     1       6.371  -6.787   4.740  0.00  0.00    -0.506 OA
ATOM     19  H   UNL     1       6.007  -7.646   4.487  0.00  0.00    +0.292 HD
ENDBRANCH  17  18
ENDBRANCH   6  12
BRANCH   1  20
ATOM     20  S   UNL     1       4.032  -1.073   1.163  0.00  0.00    +0.124 S 
ATOM     21  O   UNL     1       5.374  -1.488   0.951  0.00  0.00    -0.136 OA
ATOM     22  O   UNL     1       3.748   0.125   1.872  0.00  0.00    -0.136 OA
BRANCH  20  23
ATOM     23  O   UNL     1       3.471  -0.842  -0.232  0.00  0.00    -0.346 OA
BRANCH  23  27
ATOM     24  C   UNL     1      -0.185   1.069  -0.278  0.00  0.00    +0.000 A 
ATOM     25  C   UNL     1       0.982   1.810  -0.316  0.00  0.00    +0.004 A 
ATOM     26  C   UNL     1       2.207   1.173  -0.301  0.00  0.00    +0.048 A 
ATOM     27  C   UNL     1       2.267  -0.212  -0.247  0.00  0.00    +0.156 A 
ATOM     28  C   UNL     1       1.095  -0.954  -0.208  0.00  0.00    +0.048 A 
ATOM     29  C   UNL     1      -0.128  -0.311  -0.224  0.00  0.00    +0.004 A 
ENDBRANCH  23  27
ENDBRANCH  20  23
ENDBRANCH   1  20
TORSDOF 5
