REMARK  Name = ZINC06137741
REMARK  4 active torsions:
REMARK  status: ('A' for Active; 'I' for Inactive)
REMARK    1  A    between atoms: C_4  and  C_7
REMARK    2  A    between atoms: C_10  and  C_13
REMARK    3  A    between atoms: C_26  and  N_31
REMARK    4  A    between atoms: N_34  and  C_35
REMARK                            x       y       z     vdW  Elec       q    Type
REMARK                         _______ _______ _______ _____ _____    ______ ____
ROOT
ATOM      1  C   UNL     1       3.532   1.517   0.122  0.00  0.00    +0.247 C 
ATOM      2  O   UNL     1       4.472   0.751   0.206  0.00  0.00    -0.270 OA
ATOM      3  N   UNL     1       3.744   2.848   0.130  0.00  0.00    -0.297 N 
ATOM      4  C   UNL     1       5.108   3.390   0.125  0.00  0.00    +0.113 C 
ATOM      5  C   UNL     1       5.254   4.440  -0.967  0.00  0.00    +0.027 C 
ATOM      6  C   UNL     1       4.126   5.470  -0.895  0.00  0.00    +0.018 C 
ATOM      7  C   UNL     1       2.791   4.737  -1.055  0.00  0.00    +0.054 C 
ATOM      8  C   UNL     1       2.613   3.789   0.138  0.00  0.00    +0.117 C 
ATOM      9  C   UNL     1       2.821   3.893  -2.308  0.00  0.00    +0.027 A 
ATOM     10  C   UNL     1       1.633   3.636  -2.916  0.00  0.00    +0.024 A 
ATOM     11  C   UNL     1       1.572   2.807  -4.042  0.00  0.00    +0.030 A 
ATOM     12  C   UNL     1       2.726   2.237  -4.506  0.00  0.00    +0.100 A 
ATOM     13  C   UNL     1       3.939   2.522  -3.850  0.00  0.00    +0.273 A 
ATOM     14  O   UNL     1       4.967   1.971  -4.212  0.00  0.00    -0.266 OA
ATOM     15  N   UNL     1       3.975   3.401  -2.819  0.00  0.00    -0.310 N 
ATOM     16  C   UNL     1       5.298   3.820  -2.352  0.00  0.00    +0.130 C 
ENDROOT
BRANCH   1  20
ATOM     17  C   UNL     1      -0.424  -0.002  -0.196  0.00  0.00    -0.018 A 
ATOM     18  C   UNL     1       0.590  -0.527  -0.997  0.00  0.00    +0.009 A 
ATOM     19  C   UNL     1       1.872  -0.036  -0.895  0.00  0.00    +0.013 A 
ATOM     20  C   UNL     1       2.157   0.989   0.011  0.00  0.00    +0.037 A 
ATOM     21  C   UNL     1       1.140   1.514   0.812  0.00  0.00    +0.013 A 
ATOM     22  C   UNL     1      -0.141   1.021   0.708  0.00  0.00    +0.009 A 
BRANCH  17  26
ATOM     23  C   UNL     1      -4.382  -1.522  -0.516  0.00  0.00    +0.000 A 
ATOM     24  C   UNL     1      -4.104  -0.507   0.383  0.00  0.00    +0.001 A 
ATOM     25  C   UNL     1      -2.821  -0.010   0.491  0.00  0.00    +0.008 A 
ATOM     26  C   UNL     1      -1.805  -0.533  -0.307  0.00  0.00    -0.018 A 
ATOM     27  C   UNL     1      -2.092  -1.551  -1.215  0.00  0.00    +0.008 A 
ATOM     28  C   UNL     1      -3.378  -2.043  -1.311  0.00  0.00    +0.001 A 
ENDBRANCH  17  26
ENDBRANCH   1  20
BRANCH  12  29
ATOM     29  N   UNL     1       2.701   1.383  -5.617  0.00  0.00    -0.265 N 
ATOM     30  C   UNL     1       3.472   1.649  -6.690  0.00  0.00    +0.308 C 
ATOM     31  O   UNL     1       4.127   2.673  -6.728  0.00  0.00    -0.252 OA
ATOM     32  N   UNL     1       3.517   0.781  -7.720  0.00  0.00    -0.269 N 
ATOM     33  H   UNL     1       2.052   0.495  -5.613  0.00  0.00    +0.157 HD
ATOM     34  H   UNL     1       2.864  -0.104  -7.722  0.00  0.00    +0.156 HD
BRANCH  32  35
ATOM     35  C   UNL     1       4.395   1.006  -8.786  0.00  0.00    +0.035 A 
ATOM     36  C   UNL     1       4.706   2.304  -9.170  0.00  0.00    +0.023 A 
ATOM     37  C   UNL     1       5.577   2.523 -10.218  0.00  0.00    +0.002 A 
ATOM     38  C   UNL     1       6.130   1.451 -10.895  0.00  0.00    +0.000 A 
ATOM     39  C   UNL     1       5.818   0.158 -10.520  0.00  0.00    +0.002 A 
ATOM     40  C   UNL     1       4.952  -0.068  -9.467  0.00  0.00    +0.023 A 
ENDBRANCH  32  35
ENDBRANCH  12  29
TORSDOF 4
