REMARK  Name = ZINC36436266
REMARK  5 active torsions:
REMARK  status: ('A' for Active; 'I' for Inactive)
REMARK    1  A    between atoms: C_4  and  C_7
REMARK    2  A    between atoms: N_9  and  C_20
REMARK    3  A    between atoms: N_12  and  C_13
REMARK    4  A    between atoms: C_20  and  N_21
REMARK    5  A    between atoms: N_24  and  C_27
REMARK                            x       y       z     vdW  Elec       q    Type
REMARK                         _______ _______ _______ _____ _____    ______ ____
ROOT
ATOM      1  C   UNL     1       3.782  -0.758   0.377  0.00  0.00    +0.167 A 
ATOM      2  N   UNL     1       4.925  -0.183   0.128  0.00  0.00    -0.152 NA
ATOM      3  N   UNL     1       5.833  -1.175  -0.268  0.00  0.00    -0.257 N 
ATOM      4  C   UNL     1       5.181  -2.356  -0.242  0.00  0.00    +0.181 A 
ATOM      5  S   UNL     1       5.844  -3.884  -0.640  0.00  0.00    -0.011 S 
ATOM      6  N   UNL     1       3.917  -2.117   0.159  0.00  0.00    -0.271 N 
ENDROOT
BRANCH   6   7
ATOM      7  C   UNL     1       2.912  -3.079   0.324  0.00  0.00    +0.051 A 
ATOM      8  C   UNL     1       1.986  -3.298  -0.687  0.00  0.00    +0.027 A 
ATOM      9  C   UNL     1       0.996  -4.247  -0.522  0.00  0.00    +0.017 A 
ATOM     10  C   UNL     1       0.927  -4.979   0.650  0.00  0.00    +0.018 A 
ATOM     11  C   UNL     1       1.849  -4.763   1.659  0.00  0.00    +0.017 A 
ATOM     12  C   UNL     1       2.844  -3.820   1.497  0.00  0.00    +0.027 A 
ATOM     13 BR   UNL     1      -0.430  -6.277   0.873  0.00  0.00    -0.050 Br
ENDBRANCH   6   7
BRANCH   1  17
ATOM     14  C   UNL     1       0.241   1.209   1.660  0.00  0.00    +0.000 A 
ATOM     15  C   UNL     1       1.351   1.952   1.300  0.00  0.00    +0.001 A 
ATOM     16  C   UNL     1       2.503   1.320   0.883  0.00  0.00    +0.011 A 
ATOM     17  C   UNL     1       2.549  -0.073   0.825  0.00  0.00    +0.020 A 
ATOM     18  C   UNL     1       1.427  -0.818   1.190  0.00  0.00    +0.011 A 
ATOM     19  C   UNL     1       0.280  -0.173   1.605  0.00  0.00    +0.001 A 
ENDBRANCH   1  17
BRANCH   3  20
ATOM     20  C   UNL     1       7.234  -0.967  -0.642  0.00  0.00    +0.072 C 
BRANCH  20  21
ATOM     21  N   UNL     1       8.032  -0.719   0.566  0.00  0.00    +0.395 N 
ATOM     22  C   UNL     1       8.019  -1.919   1.413  0.00  0.00    -0.057 C 
ATOM     23  C   UNL     1       8.755  -1.624   2.725  0.00  0.00    +0.086 C 
ATOM     24  N   UNL     1      10.099  -1.121   2.403  0.00  0.00    -0.333 N 
ATOM     25  C   UNL     1      10.215  -0.022   1.432  0.00  0.00    +0.086 C 
ATOM     26  C   UNL     1       9.411  -0.393   0.181  0.00  0.00    -0.057 C 
ATOM     27  H   UNL     1       7.634   0.055   1.077  0.00  0.00    -0.079 HD
BRANCH  24  28
ATOM     28  C   UNL     1      11.234  -1.672   3.003  0.00  0.00    +0.030 A 
ATOM     29  C   UNL     1      12.482  -1.103   2.785  0.00  0.00    +0.023 A 
ATOM     30  C   UNL     1      13.602  -1.649   3.380  0.00  0.00    +0.002 A 
ATOM     31  C   UNL     1      13.482  -2.763   4.191  0.00  0.00    +0.000 A 
ATOM     32  C   UNL     1      12.241  -3.332   4.410  0.00  0.00    +0.002 A 
ATOM     33  C   UNL     1      11.116  -2.787   3.823  0.00  0.00    +0.023 A 
ENDBRANCH  24  28
ENDBRANCH  20  21
ENDBRANCH   3  20
TORSDOF 5
