REMARK  Name = ZINC02242448
REMARK  9 active torsions:
REMARK  status: ('A' for Active; 'I' for Inactive)
REMARK    1  A    between atoms: C_1  and  C_2
REMARK    2  A    between atoms: C_2  and  N_3
REMARK    3  A    between atoms: N_3  and  C_4
REMARK    4  A    between atoms: N_3  and  C_6
REMARK    5  A    between atoms: C_4  and  C_5
REMARK    6  A    between atoms: C_9  and  C_12
REMARK    7  A    between atoms: C_20  and  O_32
REMARK    8  A    between atoms: C_23  and  C_24
REMARK    9  A    between atoms: C_23  and  N_72
REMARK                            x       y       z     vdW  Elec       q    Type
REMARK                         _______ _______ _______ _____ _____    ______ ____
ROOT
ATOM      1  C   UNL     1      -6.259   4.095  -1.121  0.00  0.00    -0.031 C 
ATOM      2  C   UNL     1      -6.700   5.203  -0.163  0.00  0.00    +0.011 C 
ATOM      3  C   UNL     1      -7.214   4.588   1.138  0.00  0.00    +0.005 C 
ATOM      4  C   UNL     1      -8.413   3.685   0.841  0.00  0.00    +0.000 C 
ATOM      5  C   UNL     1      -9.524   4.514   0.195  0.00  0.00    +0.003 C 
ATOM      6  C   UNL     1      -9.011   5.122  -1.112  0.00  0.00    +0.035 C 
ATOM      7  C   UNL     1      -7.812   6.026  -0.820  0.00  0.00    +0.066 C 
ATOM      8  C   UNL     1      -7.287   6.605  -2.139  0.00  0.00    +0.016 C 
ATOM      9  C   UNL     1      -6.829   5.458  -3.043  0.00  0.00    -0.075 C 
ATOM     10  N   UNL     1      -5.748   4.712  -2.364  0.00  0.00    +0.390 N 
ATOM     11  H   UNL     1      -4.992   5.365  -2.125  0.00  0.00    -0.080 HD
ENDROOT
BRANCH   1  15
ATOM     12  C   UNL     1      -3.127   1.817   0.686  0.00  0.00    +0.030 A 
ATOM     13  C   UNL     1      -2.844   3.040   0.093  0.00  0.00    +0.023 A 
ATOM     14  C   UNL     1      -3.858   3.772  -0.495  0.00  0.00    +0.004 A 
ATOM     15  C   UNL     1      -5.154   3.291  -0.484  0.00  0.00    -0.060 A 
ATOM     16  C   UNL     1      -5.440   2.076   0.110  0.00  0.00    +0.004 A 
ATOM     17  C   UNL     1      -4.431   1.337   0.695  0.00  0.00    +0.023 A 
BRANCH  12  18
ATOM     18  N   UNL     1      -2.103   1.072   1.277  0.00  0.00    -0.330 N 
BRANCH  18  20
ATOM     19  C   UNL     1      -0.013   1.086   0.008  0.00  0.00    +0.024 C 
ATOM     20  C   UNL     1      -0.729   1.579   1.267  0.00  0.00    +0.102 C 
ENDBRANCH  18  20
BRANCH  18  21
ATOM     21  C   UNL     1      -2.404  -0.216   1.908  0.00  0.00    +0.102 C 
ATOM     22  C   UNL     1      -2.747   0.006   3.382  0.00  0.00    +0.024 C 
ENDBRANCH  18  21
ENDBRANCH  12  18
ENDBRANCH   1  15
BRANCH   7  23
ATOM     23  O   UNL     1      -8.212   7.090   0.045  0.00  0.00    -0.388 OA
ATOM     24  H   UNL     1      -8.912   7.650  -0.317  0.00  0.00    +0.210 HD
ENDBRANCH   7  23
BRANCH  10  25
ATOM     25  C   UNL     1      -5.214   3.668  -3.263  0.00  0.00    +0.020 C 
BRANCH  25  26
ATOM     26  C   UNL     1      -4.507   4.335  -4.415  0.00  0.00    +0.199 C 
ATOM     27  O   UNL     1      -4.471   5.545  -4.485  0.00  0.00    -0.278 OA
ATOM     28  N   UNL     1      -3.915   3.587  -5.366  0.00  0.00    -0.303 N 
ATOM     29  C   UNL     1      -3.945   2.120  -5.291  0.00  0.00    +0.107 C 
ATOM     30  C   UNL     1      -4.503   1.575  -6.615  0.00  0.00    +0.019 C 
ATOM     31  C   UNL     1      -3.676   2.127  -7.777  0.00  0.00    +0.003 C 
ATOM     32  C   UNL     1      -3.784   3.654  -7.802  0.00  0.00    +0.019 C 
ATOM     33  C   UNL     1      -3.222   4.223  -6.495  0.00  0.00    +0.107 C 
ENDBRANCH  25  26
ENDBRANCH  10  25
TORSDOF 7
