REMARK  Name = ZINC44592962
REMARK  3 active torsions:
REMARK  status: ('A' for Active; 'I' for Inactive)
REMARK    1  A    between atoms: C_1  and  C_2
REMARK    2  A    between atoms: C_2  and  C_3
REMARK    3  A    between atoms: C_5  and  C_8
REMARK                            x       y       z     vdW  Elec       q    Type
REMARK                         _______ _______ _______ _____ _____    ______ ____
ROOT
ATOM      1  C   UNL     1       3.734  -1.535   2.973  0.00  0.00    +0.175 C 
ATOM      2  C   UNL     1       3.850  -3.053   3.069  0.00  0.00    -0.011 A 
ATOM      3  C   UNL     1       3.339  -3.933   2.119  0.00  0.00    +0.013 A 
ATOM      4  C   UNL     1       3.486  -5.269   2.284  0.00  0.00    +0.046 A 
ATOM      5  S   UNL     1       4.378  -5.353   3.830  0.00  0.00    -0.101 S 
ATOM      6  C   UNL     1       4.487  -3.612   4.136  0.00  0.00    -0.004 A 
ATOM      7  C   UNL     1       5.119  -2.886   5.278  0.00  0.00    +0.058 C 
ATOM      8  C   UNL     1       5.244  -1.406   4.881  0.00  0.00    +0.087 C 
ATOM      9  N   UNL     1       3.968  -0.958   4.302  0.00  0.00    -0.302 NA
ATOM     10  H   UNL     1       3.915   0.049   4.274  0.00  0.00    +0.123 HD
ENDROOT
BRANCH   1  13
ATOM     11  C   UNL     1       0.731  -0.503   1.223  0.00  0.00    +0.172 A 
ATOM     12  N   UNL     1       2.045  -0.740   1.302  0.00  0.00    -0.194 NA
ATOM     13  C   UNL     1       2.353  -1.163   2.496  0.00  0.00    +0.249 A 
ATOM     14  O   UNL     1       1.232  -1.210   3.226  0.00  0.00    -0.336 OA
ATOM     15  N   UNL     1       0.185  -0.769   2.375  0.00  0.00    -0.061 NA
BRANCH  11  17
ATOM     16  C   UNL     1      -0.019   1.526   0.010  0.00  0.00    +0.012 C 
ATOM     17  C   UNL     1       0.002  -0.004   0.002  0.00  0.00    +0.076 C 
ENDBRANCH  11  17
ENDBRANCH   1  13
TORSDOF 2
