REMARK  Name = ZINC39530059
REMARK  5 active torsions:
REMARK  status: ('A' for Active; 'I' for Inactive)
REMARK    1  A    between atoms: C_1  and  S_2
REMARK    2  A    between atoms: S_2  and  C_3
REMARK    3  A    between atoms: N_6  and  C_10
REMARK    4  A    between atoms: C_15  and  C_16
REMARK    5  A    between atoms: C_21  and  O_22
REMARK                            x       y       z     vdW  Elec       q    Type
REMARK                         _______ _______ _______ _____ _____    ______ ____
ROOT
ATOM      1  C   UNL     1       2.866  -3.024  -2.997  0.00  0.00    +0.038 A 
ATOM      2  C   UNL     1       1.968  -3.518  -3.932  0.00  0.00    +0.025 A 
ATOM      3  C   UNL     1       2.137  -4.788  -4.450  0.00  0.00    +0.022 A 
ATOM      4  C   UNL     1       3.202  -5.574  -4.041  0.00  0.00    +0.042 A 
ATOM      5  C   UNL     1       4.104  -5.094  -3.111  0.00  0.00    +0.030 A 
ATOM      6  C   UNL     1       3.946  -3.814  -2.586  0.00  0.00    +0.008 A 
ATOM      7 CL   UNL     1       3.404  -7.167  -4.700  0.00  0.00    -0.084 Cl
ENDROOT
BRANCH   1  10
ATOM      8  C   UNL     1       0.873  -0.423  -1.533  0.00  0.00    +0.129 C 
ATOM      9  C   UNL     1       1.901  -1.524  -1.253  0.00  0.00    +0.134 C 
ATOM     10  N   UNL     1       2.696  -1.742  -2.472  0.00  0.00    -0.326 N 
ATOM     11  C   UNL     1       3.307  -0.573  -3.122  0.00  0.00    +0.120 C 
ATOM     12  C   UNL     1       2.224   0.491  -3.328  0.00  0.00    +0.101 C 
ATOM     13  N   UNL     1       1.563   0.769  -2.045  0.00  0.00    -0.302 NA
ATOM     14  H   UNL     1       0.928   1.548  -2.127  0.00  0.00    +0.123 HD
BRANCH   8  16
ATOM     15  C   UNL     1      -0.022   1.810   0.012  0.00  0.00    +0.086 C 
ATOM     16  S   UNL     1       0.002  -0.004   0.002  0.00  0.00    -0.144 S 
ENDBRANCH   8  16
ENDBRANCH   1  10
BRANCH   6  17
ATOM     17  C   UNL     1       4.915  -3.292  -1.592  0.00  0.00    +0.025 A 
ATOM     18  C   UNL     1       6.240  -3.065  -1.958  0.00  0.00    +0.012 A 
ATOM     19  C   UNL     1       7.137  -2.579  -1.029  0.00  0.00    +0.001 A 
ATOM     20  C   UNL     1       6.726  -2.316   0.266  0.00  0.00    +0.004 A 
ATOM     21  C   UNL     1       5.414  -2.538   0.639  0.00  0.00    +0.046 A 
ATOM     22  C   UNL     1       4.501  -3.020  -0.284  0.00  0.00    +0.125 A 
BRANCH  22  23
ATOM     23  O   UNL     1       3.210  -3.233   0.081  0.00  0.00    -0.506 OA
ATOM     24  H   UNL     1       3.039  -4.121   0.422  0.00  0.00    +0.292 HD
ENDBRANCH  22  23
ENDBRANCH   6  17
TORSDOF 4
