REMARK  Name = ZINC59990810
REMARK  8 active torsions:
REMARK  status: ('A' for Active; 'I' for Inactive)
REMARK    1  A    between atoms: C_1  and  C_2
REMARK    2  A    between atoms: N_7  and  C_9
REMARK    3  A    between atoms: C_9  and  C_10
REMARK    4  A    between atoms: C_9  and  C_11
REMARK    5  A    between atoms: C_9  and  C_12
REMARK    6  A    between atoms: C_12  and  N_13
REMARK    7  A    between atoms: C_14  and  C_16
REMARK    8  A    between atoms: C_18  and  N_23
REMARK                            x       y       z     vdW  Elec       q    Type
REMARK                         _______ _______ _______ _____ _____    ______ ____
ROOT
ATOM      1  N   UNL     1       2.186  -4.461   1.142  0.00  0.00    -0.313 N 
ATOM      2  C   UNL     1       2.321  -5.782   0.914  0.00  0.00    +0.245 C 
ATOM      3  O   UNL     1       1.924  -6.584   1.738  0.00  0.00    -0.270 OA
ATOM      4  H   UNL     1       2.502  -3.821   0.485  0.00  0.00    +0.149 HD
ENDROOT
BRANCH   2   5
ATOM      5  C   UNL     1       2.950  -6.256  -0.336  0.00  0.00    +0.052 A 
ATOM      6  C   UNL     1       3.411  -5.338  -1.281  0.00  0.00    +0.046 A 
ATOM      7  C   UNL     1       3.997  -5.787  -2.446  0.00  0.00    +0.127 A 
ATOM      8  C   UNL     1       4.128  -7.145  -2.680  0.00  0.00    +0.034 A 
ATOM      9  C   UNL     1       3.674  -8.060  -1.748  0.00  0.00    +0.017 A 
ATOM     10  C   UNL     1       3.091  -7.625  -0.575  0.00  0.00    +0.026 A 
ATOM     11  I   UNL     1       2.411  -9.013   0.838  0.00  0.00    -0.043 I 
BRANCH   7  12
ATOM     12  N   UNL     1       4.487  -4.814  -3.449  0.00  0.00    +0.056 N 
ATOM     13  O   UNL     1       4.373  -3.628  -3.246  0.00  0.00    -0.126 OA
ATOM     14  O   UNL     1       5.001  -5.206  -4.470  0.00  0.00    -0.126 OA
ENDBRANCH   7  12
ENDBRANCH   2   5
BRANCH   1  15
ATOM     15  C   UNL     1       1.562  -3.991   2.382  0.00  0.00    +0.092 C 
BRANCH  15  16
ATOM     16  C   UNL     1       1.534  -2.461   2.390  0.00  0.00    -0.055 C 
ATOM     17  C   UNL     1       2.963  -1.924   2.303  0.00  0.00    -0.008 C 
ATOM     18  C   UNL     1       0.882  -1.970   3.685  0.00  0.00    -0.008 C 
BRANCH  16  24
ATOM     19  C   UNL     1      -0.019   1.526   0.010  0.00  0.00    +0.005 C 
ATOM     20  C   UNL     1       0.002  -0.004   0.002  0.00  0.00    -0.031 C 
ATOM     21  C   UNL     1      -1.434  -0.535   0.015  0.00  0.00    -0.001 C 
ATOM     22  C   UNL     1      -1.402  -2.064   0.086  0.00  0.00    -0.018 C 
ATOM     23  C   UNL     1      -0.613  -2.496   1.324  0.00  0.00    -0.078 C 
ATOM     24  N   UNL     1       0.758  -1.980   1.239  0.00  0.00    +0.384 N 
ATOM     25  C   UNL     1       0.740  -0.512   1.242  0.00  0.00    -0.075 C 
ATOM     26  H   UNL     1       1.188  -2.307   0.386  0.00  0.00    -0.081 HD
ENDBRANCH  16  24
ENDBRANCH  15  16
ENDBRANCH   1  15
TORSDOF 5
