REMARK  Name = ZINC04172635
REMARK  14 active torsions:
REMARK  status: ('A' for Active; 'I' for Inactive)
REMARK    1  A    between atoms: C_1  and  C_2
REMARK    2  A    between atoms: C_9  and  C_20
REMARK    3  A    between atoms: C_10  and  N_11
REMARK    4  A    between atoms: N_11  and  C_12
REMARK    5  A    between atoms: C_12  and  C_13
REMARK    6  A    between atoms: C_12  and  C_14
REMARK    7  A    between atoms: C_12  and  C_15
REMARK    8  A    between atoms: C_15  and  C_16
REMARK    9  A    between atoms: C_16  and  C_17
REMARK   10  A    between atoms: C_16  and  C_18
REMARK   11  A    between atoms: C_16  and  C_19
REMARK   12  A    between atoms: C_25  and  O_26
REMARK   13  A    between atoms: O_26  and  S_27
REMARK   14  A    between atoms: S_27  and  C_30
REMARK                            x       y       z     vdW  Elec       q    Type
REMARK                         _______ _______ _______ _____ _____    ______ ____
ROOT
ATOM      1  C   UNL     1      -1.062   1.412  -3.885  0.00  0.00    +0.044 C 
ATOM      2  C   UNL     1      -1.165   0.033  -3.287  0.00  0.00    -0.046 A 
ATOM      3  C   UNL     1      -0.666  -1.079  -3.989  0.00  0.00    +0.021 A 
ATOM      4  C   UNL     1      -0.755  -2.316  -3.459  0.00  0.00    +0.094 A 
ATOM      5  N   UNL     1      -1.332  -2.507  -2.232  0.00  0.00    -0.289 N 
ATOM      6  C   UNL     1      -1.829  -1.438  -1.522  0.00  0.00    +0.117 A 
ATOM      7  C   UNL     1      -1.735  -0.140  -2.065  0.00  0.00    +0.048 A 
ATOM      8  N   UNL     1      -2.327  -1.886  -0.381  0.00  0.00    -0.338 N 
ATOM      9  C   UNL     1      -2.172  -3.221  -0.322  0.00  0.00    +0.090 A 
ATOM     10  C   UNL     1      -1.546  -3.630  -1.480  0.00  0.00    +0.129 A 
ATOM     11  H   UNL     1      -2.740  -1.338   0.305  0.00  0.00    +0.167 HD
ENDROOT
BRANCH   9  12
ATOM     12  C   UNL     1      -2.598  -4.099   0.794  0.00  0.00    +0.046 A 
ATOM     13  C   UNL     1      -3.952  -4.247   1.090  0.00  0.00    +0.014 A 
ATOM     14  C   UNL     1      -4.343  -5.066   2.130  0.00  0.00    +0.001 A 
ATOM     15  C   UNL     1      -3.396  -5.740   2.880  0.00  0.00    +0.004 A 
ATOM     16  C   UNL     1      -2.051  -5.600   2.595  0.00  0.00    +0.049 A 
ATOM     17  C   UNL     1      -1.644  -4.786   1.551  0.00  0.00    +0.166 A 
BRANCH  17  18
ATOM     18  O   UNL     1      -0.322  -4.653   1.266  0.00  0.00    -0.342 OA
BRANCH  18  19
ATOM     19  S   UNL     1       0.361  -3.516   2.013  0.00  0.00    +0.151 S 
ATOM     20  O   UNL     1       1.660  -3.384   1.452  0.00  0.00    -0.131 OA
ATOM     21  O   UNL     1      -0.566  -2.439   2.048  0.00  0.00    -0.131 OA
BRANCH  19  22
ATOM     22  C   UNL     1       0.582  -4.046   3.678  0.00  0.00    +0.128 A 
ATOM     23  C   UNL     1      -0.404  -3.804   4.617  0.00  0.00    +0.032 A 
ATOM     24  C   UNL     1      -0.231  -4.220   5.924  0.00  0.00    +0.022 A 
ATOM     25  C   UNL     1       0.930  -4.877   6.293  0.00  0.00    +0.041 A 
ATOM     26  C   UNL     1       1.916  -5.118   5.353  0.00  0.00    +0.022 A 
ATOM     27  C   UNL     1       1.739  -4.707   4.045  0.00  0.00    +0.032 A 
ATOM     28 CL   UNL     1       1.148  -5.399   7.934  0.00  0.00    -0.084 Cl
ENDBRANCH  19  22
ENDBRANCH  18  19
ENDBRANCH  17  18
ENDBRANCH   9  12
BRANCH  10  29
ATOM     29  N   UNL     1      -1.198  -4.938  -1.821  0.00  0.00    -0.323 N 
ATOM     30  H   UNL     1      -1.487  -5.678  -1.264  0.00  0.00    +0.148 HD
BRANCH  29  31
ATOM     31  C   UNL     1      -0.398  -5.194  -3.021  0.00  0.00    +0.028 C 
ATOM     32  C   UNL     1      -1.229  -4.878  -4.266  0.00  0.00    +0.031 C 
ATOM     33  C   UNL     1       0.849  -4.308  -3.001  0.00  0.00    +0.031 C 
BRANCH  31  34
ATOM     34  C   UNL     1       0.023  -6.665  -3.049  0.00  0.00    +0.031 C 
BRANCH  34  35
ATOM     35  C   UNL     1       0.764  -7.008  -1.756  0.00  0.00    -0.036 C 
ATOM     36  C   UNL     1       0.087  -6.305  -0.578  0.00  0.00    +0.010 C 
ATOM     37  C   UNL     1       0.730  -8.522  -1.534  0.00  0.00    +0.010 C 
ATOM     38  C   UNL     1       2.217  -6.541  -1.861  0.00  0.00    +0.010 C 
ENDBRANCH  34  35
ENDBRANCH  31  34
ENDBRANCH  29  31
ENDBRANCH  10  29
TORSDOF 8
