REMARK  Name = ZINC49508693
REMARK  7 active torsions:
REMARK  status: ('A' for Active; 'I' for Inactive)
REMARK    1  A    between atoms: C_1  and  N_2
REMARK    2  A    between atoms: C_10  and  C_12
REMARK    3  A    between atoms: C_12  and  C_14
REMARK    4  A    between atoms: C_12  and  N_34
REMARK    5  A    between atoms: C_14  and  N_15
REMARK    6  A    between atoms: C_16  and  C_18
REMARK    7  A    between atoms: N_20  and  C_21
REMARK                            x       y       z     vdW  Elec       q    Type
REMARK                         _______ _______ _______ _____ _____    ______ ____
ROOT
ATOM      1  N   UNL     1       4.247  -3.758  -2.461  0.00  0.00    -0.309 N 
ATOM      2  C   UNL     1       4.357  -3.972  -3.787  0.00  0.00    +0.299 C 
ATOM      3  O   UNL     1       5.265  -3.463  -4.410  0.00  0.00    -0.265 OA
ATOM      4  H   UNL     1       3.522  -4.165  -1.962  0.00  0.00    +0.149 HD
ENDROOT
BRANCH   2   5
ATOM      5  C   UNL     1       3.361  -4.835  -4.488  0.00  0.00    +0.303 C 
ATOM      6  O   UNL     1       2.453  -5.344  -3.865  0.00  0.00    -0.265 OA
ATOM      7  N   UNL     1       3.471  -5.050  -5.815  0.00  0.00    -0.278 N 
ATOM      8  H   UNL     1       4.241  -4.712  -6.298  0.00  0.00    +0.155 HD
BRANCH   7   9
ATOM      9  C   UNL     1       2.475  -5.759  -6.493  0.00  0.00    +0.034 A 
ATOM     10  C   UNL     1       2.842  -6.588  -7.550  0.00  0.00    +0.028 A 
ATOM     11  C   UNL     1       1.895  -7.312  -8.234  0.00  0.00    -0.023 A 
ATOM     12  C   UNL     1       0.571  -7.182  -7.807  0.00  0.00    +0.043 A 
ATOM     13  C   UNL     1       0.193  -6.339  -6.774  0.00  0.00    -0.022 A 
ATOM     14  C   UNL     1       1.146  -5.615  -6.083  0.00  0.00    +0.028 A 
ATOM     15  C   UNL     1      -1.299  -6.413  -6.650  0.00  0.00    +0.056 C 
ATOM     16  C   UNL     1      -1.736  -7.423  -7.738  0.00  0.00    +0.118 C 
ATOM     17  N   UNL     1      -0.499  -7.880  -8.364  0.00  0.00    -0.271 N 
ATOM     18  C   UNL     1      -0.280  -8.838  -9.290  0.00  0.00    +0.220 C 
ATOM     19  O   UNL     1      -1.196  -9.292  -9.944  0.00  0.00    -0.275 OA
ATOM     20  C   UNL     1       1.133  -9.329  -9.492  0.00  0.00    +0.101 C 
ATOM     21  C   UNL     1       2.164  -8.206  -9.407  0.00  0.00    +0.046 C 
ENDBRANCH   7   9
ENDBRANCH   2   5
BRANCH   1  22
ATOM     22  C   UNL     1       5.225  -2.911  -1.772  0.00  0.00    +0.094 C 
BRANCH  22  23
ATOM     23  C   UNL     1       4.804  -2.730  -0.312  0.00  0.00    -0.020 C 
BRANCH  23  33
ATOM     24  C   UNL     1      -0.329   1.284   0.026  0.00  0.00    +0.129 C 
ATOM     25  N   UNL     1      -0.254  -0.173  -0.099  0.00  0.00    -0.333 N 
ATOM     26  C   UNL     1      -1.480  -0.980  -0.178  0.00  0.00    +0.105 C 
ATOM     27  C   UNL     1      -1.306  -2.189   0.750  0.00  0.00    +0.024 C 
ATOM     28  C   UNL     1      -0.148  -3.044   0.234  0.00  0.00    +0.038 C 
ATOM     29  C   UNL     1       1.076  -2.195   0.012  0.00  0.00    -0.026 A 
ATOM     30  C   UNL     1       0.985  -0.820  -0.152  0.00  0.00    +0.033 A 
ATOM     31  C   UNL     1       2.134  -0.066  -0.365  0.00  0.00    +0.023 A 
ATOM     32  C   UNL     1       3.367  -0.685  -0.417  0.00  0.00    +0.004 A 
ATOM     33  C   UNL     1       3.458  -2.055  -0.257  0.00  0.00    -0.059 A 
ATOM     34  C   UNL     1       2.317  -2.808  -0.034  0.00  0.00    +0.007 A 
ENDBRANCH  23  33
BRANCH  23  35
ATOM     35  N   UNL     1       5.797  -1.901   0.385  0.00  0.00    +0.385 N 
ATOM     36  C   UNL     1       7.128  -2.501   0.231  0.00  0.00    -0.078 C 
ATOM     37  C   UNL     1       8.177  -1.599   0.885  0.00  0.00    -0.019 C 
ATOM     38  C   UNL     1       7.853  -1.447   2.374  0.00  0.00    -0.004 C 
ATOM     39  C   UNL     1       6.434  -0.890   2.523  0.00  0.00    -0.019 C 
ATOM     40  C   UNL     1       5.450  -1.818   1.808  0.00  0.00    -0.078 C 
ATOM     41  H   UNL     1       5.800  -0.975  -0.015  0.00  0.00    -0.081 HD
ENDBRANCH  23  35
ENDBRANCH  22  23
ENDBRANCH   1  22
TORSDOF 6
