REMARK  Name = ZINC13069519
REMARK  4 active torsions:
REMARK  status: ('A' for Active; 'I' for Inactive)
REMARK    1  A    between atoms: C_4  and  C_7
REMARK    2  A    between atoms: C_7  and  C_8
REMARK    3  A    between atoms: C_7  and  C_14
REMARK    4  A    between atoms: N_16  and  N_17
REMARK                            x       y       z     vdW  Elec       q    Type
REMARK                         _______ _______ _______ _____ _____    ______ ____
ROOT
ATOM      1  C   UNL     1      -0.896   5.811   1.202  0.00  0.00    +0.241 C 
ATOM      2  O   UNL     1      -1.889   6.482   1.017  0.00  0.00    -0.273 OA
ATOM      3  N   UNL     1      -0.530   5.481   2.457  0.00  0.00    -0.223 N 
ATOM      4  H   UNL     1       0.265   4.944   2.605  0.00  0.00    +0.174 HD
ENDROOT
BRANCH   3   5
ATOM      5  N   UNL     1      -1.297   5.912   3.547  0.00  0.00    -0.137 N 
ATOM      6  C   UNL     1      -2.124   5.115   4.254  0.00  0.00    +0.263 C 
ATOM      7  O   UNL     1      -2.337   3.936   4.075  0.00  0.00    -0.271 OA
ATOM      8  C   UNL     1      -2.729   6.004   5.317  0.00  0.00    +0.114 C 
ATOM      9  C   UNL     1      -2.359   5.497   6.707  0.00  0.00    +0.035 C 
ATOM     10  C   UNL     1      -2.957   6.425   7.767  0.00  0.00    +0.003 C 
ATOM     11  C   UNL     1      -4.478   6.465   7.609  0.00  0.00    +0.000 C 
ATOM     12  C   UNL     1      -4.833   6.999   6.220  0.00  0.00    +0.003 C 
ATOM     13  C   UNL     1      -4.243   6.074   5.153  0.00  0.00    +0.035 C 
ATOM     14  N   UNL     1      -2.123   7.318   5.070  0.00  0.00    -0.284 N 
ATOM     15  C   UNL     1      -1.295   7.165   4.019  0.00  0.00    +0.326 C 
ATOM     16  O   UNL     1      -0.625   8.063   3.550  0.00  0.00    -0.251 OA
ATOM     17  H   UNL     1      -2.284   8.135   5.568  0.00  0.00    +0.151 HD
ENDBRANCH   3   5
BRANCH   1  18
ATOM     18  C   UNL     1      -0.070   5.347   0.030  0.00  0.00    +0.136 C 
BRANCH  18  22
ATOM     19  C   UNL     1       0.054   1.077  -0.024  0.00  0.00    +0.000 A 
ATOM     20  C   UNL     1      -1.160   1.733   0.059  0.00  0.00    +0.000 A 
ATOM     21  C   UNL     1      -1.200   3.114   0.082  0.00  0.00    +0.005 A 
ATOM     22  C   UNL     1      -0.026   3.841   0.011  0.00  0.00    -0.031 A 
ATOM     23  C   UNL     1       1.188   3.186  -0.077  0.00  0.00    +0.005 A 
ATOM     24  C   UNL     1       1.228   1.804  -0.094  0.00  0.00    +0.000 A 
ENDBRANCH  18  22
BRANCH  18  25
ATOM     25  C   UNL     1      -0.690   5.847  -1.250  0.00  0.00    -0.031 A 
ATOM     26  C   UNL     1       0.069   6.574  -2.147  0.00  0.00    +0.005 A 
ATOM     27  C   UNL     1      -0.498   7.029  -3.323  0.00  0.00    +0.000 A 
ATOM     28  C   UNL     1      -1.827   6.765  -3.597  0.00  0.00    +0.000 A 
ATOM     29  C   UNL     1      -2.588   6.043  -2.697  0.00  0.00    +0.000 A 
ATOM     30  C   UNL     1      -2.019   5.584  -1.523  0.00  0.00    +0.005 A 
ENDBRANCH  18  25
ENDBRANCH   1  18
TORSDOF 4
