REMARK  Name = ZINC24215491
REMARK  9 active torsions:
REMARK  status: ('A' for Active; 'I' for Inactive)
REMARK    1  A    between atoms: C_1  and  C_2
REMARK    2  A    between atoms: C_3  and  C_14
REMARK    3  A    between atoms: C_4  and  C_13
REMARK    4  A    between atoms: N_5  and  C_7
REMARK    5  A    between atoms: N_21  and  C_22
REMARK    6  A    between atoms: C_22  and  C_23
REMARK    7  A    between atoms: N_25  and  C_26
REMARK    8  A    between atoms: C_26  and  C_28
REMARK    9  A    between atoms: C_26  and  C_29
REMARK                            x       y       z     vdW  Elec       q    Type
REMARK                         _______ _______ _______ _____ _____    ______ ____
ROOT
ATOM      1  C   UNL     1      -0.052   0.127  -0.024  0.00  0.00    +0.054 C 
ATOM      2  C   UNL     1       0.236  -0.556  -1.331  0.00  0.00    +0.204 C 
ATOM      3  O   UNL     1      -0.211  -0.072  -2.350  0.00  0.00    -0.277 OA
ATOM      4  N   UNL     1       0.964  -1.674  -1.419  0.00  0.00    -0.318 N 
ATOM      5  C   UNL     1       1.577  -2.315  -0.259  0.00  0.00    +0.085 C 
ATOM      6  C   UNL     1       0.911  -1.819   1.026  0.00  0.00    -0.058 C 
ATOM      7  N   UNL     1       0.882  -0.347   1.006  0.00  0.00    +0.397 N 
ATOM      8  H   UNL     1       1.093  -2.110  -2.420  0.00  0.00    +0.149 HD
ATOM      9  H   UNL     1       1.889   0.020   0.758  0.00  0.00    -0.079 HD
ENDROOT
BRANCH   1  12
ATOM     10  C   UNL     1       2.689   1.700  -0.251  0.00  0.00    +0.068 C 
ATOM     11  C   UNL     1       1.312   2.312  -0.293  0.00  0.00    +0.063 A 
ATOM     12  C   UNL     1       0.102   1.616  -0.192  0.00  0.00    -0.009 A 
ATOM     13  C   UNL     1      -0.904   2.516  -0.279  0.00  0.00    +0.044 A 
ATOM     14  N   UNL     1      -0.350   3.741  -0.421  0.00  0.00    -0.237 N 
ATOM     15  N   UNL     1       1.042   3.585  -0.430  0.00  0.00    -0.171 NA
ATOM     16  C   UNL     1      -2.379   2.209  -0.223  0.00  0.00    +0.066 C 
BRANCH  14  17
ATOM     17  C   UNL     1      -1.045   4.952  -0.543  0.00  0.00    +0.066 A 
ATOM     18  C   UNL     1      -0.625   5.905  -1.462  0.00  0.00    +0.028 A 
ATOM     19  C   UNL     1      -1.315   7.096  -1.583  0.00  0.00    +0.002 A 
ATOM     20  C   UNL     1      -2.416   7.343  -0.784  0.00  0.00    +0.000 A 
ATOM     21  C   UNL     1      -2.833   6.398   0.135  0.00  0.00    +0.002 A 
ATOM     22  C   UNL     1      -2.151   5.204   0.258  0.00  0.00    +0.028 A 
ENDBRANCH  14  17
ENDBRANCH   1  12
BRANCH   7  23
ATOM     23  C   UNL     1       0.527   0.190   2.326  0.00  0.00    +0.020 C 
BRANCH  23  24
ATOM     24  C   UNL     1      -0.826  -0.332   2.734  0.00  0.00    +0.197 C 
ATOM     25  O   UNL     1      -1.404  -1.133   2.031  0.00  0.00    -0.278 OA
ATOM     26  N   UNL     1      -1.394   0.091   3.881  0.00  0.00    -0.310 N 
ATOM     27  H   UNL     1      -0.869   0.817   4.519  0.00  0.00    +0.149 HD
BRANCH  26  28
ATOM     28  C   UNL     1      -2.709  -0.417   4.278  0.00  0.00    +0.107 C 
ATOM     29  C   UNL     1      -2.541  -1.744   5.022  0.00  0.00    +0.033 C 
BRANCH  28  30
ATOM     30  C   UNL     1      -3.383   0.583   5.182  0.00  0.00    +0.010 A 
ATOM     31  C   UNL     1      -4.682   0.968   5.211  0.00  0.00    +0.013 A 
ATOM     32  C   UNL     1      -5.081   1.911   6.140  0.00  0.00    +0.008 A 
ATOM     33  C   UNL     1      -4.159   2.431   6.987  0.00  0.00    +0.045 A 
ATOM     34  S   UNL     1      -2.674   1.576   6.486  0.00  0.00    -0.100 S 
ENDBRANCH  28  30
ENDBRANCH  26  28
ENDBRANCH  23  24
ENDBRANCH   7  23
TORSDOF 6
