REMARK  Name = ZINC39461674
REMARK  10 active torsions:
REMARK  status: ('A' for Active; 'I' for Inactive)
REMARK    1  A    between atoms: C_1  and  C_2
REMARK    2  A    between atoms: C_2  and  C_3
REMARK    3  A    between atoms: C_3  and  C_4
REMARK    4  A    between atoms: C_4  and  C_5
REMARK    5  A    between atoms: C_9  and  C_11
REMARK    6  A    between atoms: C_11  and  N_12
REMARK    7  A    between atoms: N_15  and  C_22
REMARK    8  A    between atoms: C_16  and  C_19
REMARK    9  A    between atoms: C_19  and  C_20
REMARK   10  A    between atoms: C_20  and  O_21
REMARK                            x       y       z     vdW  Elec       q    Type
REMARK                         _______ _______ _______ _____ _____    ______ ____
ROOT
ATOM      1  N   UNL     1       5.043  -2.343  -4.896  0.00  0.00    -0.300 NA
ATOM      2  C   UNL     1       4.392  -1.689  -6.040  0.00  0.00    +0.066 C 
ATOM      3  C   UNL     1       5.140  -0.398  -6.380  0.00  0.00    -0.062 C 
ATOM      4  N   UNL     1       6.537  -0.712  -6.704  0.00  0.00    +0.385 N 
ATOM      5  C   UNL     1       7.182  -1.342  -5.544  0.00  0.00    -0.052 C 
ATOM      6  C   UNL     1       6.450  -2.641  -5.198  0.00  0.00    +0.069 C 
ATOM      7  H   UNL     1       6.566  -1.345  -7.489  0.00  0.00    -0.081 HD
ENDROOT
BRANCH   4   8
ATOM      8  C   UNL     1       7.251   0.525  -7.048  0.00  0.00    -0.068 C 
ATOM      9  C   UNL     1       7.102   1.533  -5.906  0.00  0.00    -0.015 C 
ATOM     10  C   UNL     1       7.845   2.822  -6.263  0.00  0.00    -0.002 C 
ATOM     11  C   UNL     1       7.254   3.413  -7.545  0.00  0.00    -0.000 C 
ATOM     12  C   UNL     1       7.402   2.405  -8.687  0.00  0.00    -0.002 C 
ATOM     13  C   UNL     1       6.659   1.116  -8.329  0.00  0.00    -0.015 C 
ENDBRANCH   4   8
BRANCH   1  14
ATOM     14  C   UNL     1       4.320  -3.559  -4.503  0.00  0.00    +0.139 C 
BRANCH  14  19
ATOM     15  C   UNL     1       1.406  -2.570  -2.605  0.00  0.00    +0.084 A 
ATOM     16  N   UNL     1       0.827  -2.767  -3.809  0.00  0.00    -0.350 N 
ATOM     17  H   UNL     1      -0.113  -2.654  -4.021  0.00  0.00    +0.166 HD
ATOM     18  C   UNL     1       1.814  -3.157  -4.674  0.00  0.00    +0.106 A 
ATOM     19  C   UNL     1       2.961  -3.185  -3.969  0.00  0.00    +0.047 A 
ATOM     20  N   UNL     1       2.683  -2.816  -2.710  0.00  0.00    -0.346 N 
ATOM     21  H   UNL     1       3.330  -2.746  -1.990  0.00  0.00    +0.167 HD
BRANCH  15  22
ATOM     22  C   UNL     1       0.696  -2.132  -1.350  0.00  0.00    +0.072 C 
BRANCH  22  23
ATOM     23  C   UNL     1       0.693  -0.604  -1.273  0.00  0.00    +0.007 C 
BRANCH  23  25
ATOM     24  C   UNL     1      -0.030   1.369   0.079  0.00  0.00    +0.004 C 
ATOM     25  C   UNL     1      -0.028  -0.159   0.001  0.00  0.00    -0.003 C 
ENDBRANCH  23  25
ENDBRANCH  22  23
ENDBRANCH  15  22
ENDBRANCH  14  19
ENDBRANCH   1  14
BRANCH   5  26
ATOM     26  C   UNL     1       8.642  -1.653  -5.878  0.00  0.00    +0.014 C 
BRANCH  26  27
ATOM     27  C   UNL     1       9.332  -2.244  -4.647  0.00  0.00    +0.154 C 
BRANCH  27  28
ATOM     28  O   UNL     1      10.724  -2.419  -4.919  0.00  0.00    -0.395 OA
ATOM     29  H   UNL     1      11.225  -2.792  -4.181  0.00  0.00    +0.209 HD
ENDBRANCH  27  28
ENDBRANCH  26  27
ENDBRANCH   5  26
TORSDOF 9
