REMARK  Name = ZINC09586633
REMARK  7 active torsions:
REMARK  status: ('A' for Active; 'I' for Inactive)
REMARK    1  A    between atoms: C_1  and  C_2
REMARK    2  A    between atoms: N_4  and  C_5
REMARK    3  A    between atoms: C_5  and  C_7
REMARK    4  A    between atoms: C_5  and  C_18
REMARK    5  A    between atoms: C_7  and  C_8
REMARK    6  A    between atoms: N_20  and  N_21
REMARK    7  A    between atoms: C_22  and  C_24
REMARK                            x       y       z     vdW  Elec       q    Type
REMARK                         _______ _______ _______ _____ _____    ______ ____
ROOT
ATOM      1  C   UNL     1       5.669   0.430   1.402  0.00  0.00    +0.250 C 
ATOM      2  O   UNL     1       6.402   1.394   1.467  0.00  0.00    -0.272 OA
ATOM      3  N   UNL     1       6.191  -0.810   1.328  0.00  0.00    -0.233 N 
ATOM      4  H   UNL     1       5.604  -1.581   1.276  0.00  0.00    +0.173 HD
ENDROOT
BRANCH   3   5
ATOM      5  N   UNL     1       7.581  -0.987   1.326  0.00  0.00    -0.229 N 
ATOM      6  C   UNL     1       8.103  -2.227   1.252  0.00  0.00    +0.281 C 
ATOM      7  O   UNL     1       7.367  -3.193   1.187  0.00  0.00    -0.267 OA
ATOM      8  H   UNL     1       8.167  -0.216   1.378  0.00  0.00    +0.173 HD
BRANCH   6   9
ATOM      9  C   UNL     1       9.567  -2.413   1.250  0.00  0.00    +0.155 A 
ATOM     10  C   UNL     1      10.146  -3.764   1.176  0.00  0.00    +0.020 A 
ATOM     11  C   UNL     1       9.368  -4.913   1.093  0.00  0.00    +0.011 A 
ATOM     12  C   UNL     1       9.986  -6.144   1.021  0.00  0.00    +0.001 A 
ATOM     13  C   UNL     1      11.370  -6.247   1.024  0.00  0.00    +0.001 A 
ATOM     14  C   UNL     1      12.160  -5.119   1.099  0.00  0.00    +0.014 A 
ATOM     15  C   UNL     1      11.557  -3.868   1.173  0.00  0.00    +0.050 A 
ATOM     16  C   UNL     1      12.322  -2.616   1.256  0.00  0.00    +0.272 A 
ATOM     17  O   UNL     1      13.540  -2.629   1.264  0.00  0.00    -0.266 OA
ATOM     18  N   UNL     1      11.644  -1.452   1.324  0.00  0.00    -0.242 N 
ATOM     19  H   UNL     1      12.153  -0.627   1.379  0.00  0.00    +0.192 HD
ATOM     20  N   UNL     1      10.367  -1.376   1.320  0.00  0.00    -0.166 NA
ENDBRANCH   6   9
ENDBRANCH   3   5
BRANCH   1  21
ATOM     21  C   UNL     1       4.174   0.620   1.404  0.00  0.00    +0.165 C 
BRANCH  21  25
ATOM     22  C   UNL     1       3.984   4.407   1.932  0.00  0.00    +0.109 C 
ATOM     23  C   UNL     1       4.318   3.052   1.363  0.00  0.00    +0.211 C 
ATOM     24  O   UNL     1       5.009   2.965   0.369  0.00  0.00    -0.276 OA
ATOM     25  N   UNL     1       3.849   1.937   1.957  0.00  0.00    -0.304 N 
ATOM     26  H   UNL     1       3.297   2.006   2.752  0.00  0.00    +0.149 HD
ENDBRANCH  21  25
BRANCH  21  27
ATOM     27  C   UNL     1       3.646   0.524  -0.029  0.00  0.00    +0.069 C 
BRANCH  27  28
ATOM     28  C   UNL     1       2.140   0.591  -0.015  0.00  0.00    -0.020 A 
ATOM     29  C   UNL     1       1.295  -0.452  -0.013  0.00  0.00    +0.087 A 
ATOM     30  N   UNL     1       0.002  -0.004   0.002  0.00  0.00    -0.360 N 
ATOM     31  H   UNL     1      -0.784  -0.572   0.006  0.00  0.00    +0.165 HD
ATOM     32  C   UNL     1      -0.017   1.373   0.010  0.00  0.00    +0.047 A 
ATOM     33  C   UNL     1       1.322   1.806  -0.001  0.00  0.00    +0.003 A 
ATOM     34  C   UNL     1       1.612   3.171   0.004  0.00  0.00    +0.010 A 
ATOM     35  C   UNL     1       0.593   4.082   0.019  0.00  0.00    +0.001 A 
ATOM     36  C   UNL     1      -0.729   3.659   0.029  0.00  0.00    +0.002 A 
ATOM     37  C   UNL     1      -1.038   2.317   0.029  0.00  0.00    +0.026 A 
ENDBRANCH  27  28
ENDBRANCH  21  27
ENDBRANCH   1  21
TORSDOF 6
