REMARK  Name = ZINC63952577
REMARK  6 active torsions:
REMARK  status: ('A' for Active; 'I' for Inactive)
REMARK    1  A    between atoms: C_1  and  C_2
REMARK    2  A    between atoms: C_8  and  C_11
REMARK    3  A    between atoms: C_11  and  C_12
REMARK    4  A    between atoms: C_12  and  N_13
REMARK    5  A    between atoms: C_18  and  C_21
REMARK    6  A    between atoms: C_21  and  C_22
REMARK                            x       y       z     vdW  Elec       q    Type
REMARK                         _______ _______ _______ _____ _____    ______ ____
ROOT
ATOM      1  N   UNL     1      -1.377  -2.600   5.613  0.00  0.00    -0.312 N 
ATOM      2  C   UNL     1      -2.568  -2.599   6.318  0.00  0.00    +0.238 A 
ATOM      3  N   UNL     1      -2.558  -2.363   7.624  0.00  0.00    -0.173 NA
ATOM      4  C   UNL     1      -3.704  -2.363   8.295  0.00  0.00    +0.297 A 
ATOM      5  O   UNL     1      -3.724  -2.125   9.629  0.00  0.00    -0.264 OA
ATOM      6  C   UNL     1      -4.888  -2.613   7.598  0.00  0.00    +0.134 A 
ATOM      7  N   UNL     1      -4.835  -2.841   6.300  0.00  0.00    -0.145 NA
ATOM      8  N   UNL     1      -3.708  -2.828   5.679  0.00  0.00    -0.113 NA
ATOM      9  H   UNL     1      -0.540  -2.433   6.075  0.00  0.00    +0.149 HD
ENDROOT
BRANCH   1  10
ATOM     10  C   UNL     1      -1.379  -2.854   4.170  0.00  0.00    +0.109 C 
BRANCH  10  11
ATOM     11  C   UNL     1       0.055  -2.799   3.641  0.00  0.00    +0.052 C 
BRANCH  11  19
ATOM     12  C   UNL     1      -0.018   1.503   0.010  0.00  0.00    +0.044 C 
ATOM     13  C   UNL     1       0.002  -0.004   0.002  0.00  0.00    -0.050 A 
ATOM     14  C   UNL     1       0.005  -0.680  -1.226  0.00  0.00    +0.005 A 
ATOM     15  C   UNL     1       0.023  -2.026  -1.317  0.00  0.00    +0.026 A 
ATOM     16  C   UNL     1       0.039  -2.826  -0.141  0.00  0.00    +0.043 A 
ATOM     17  N   UNL     1       0.057  -4.126   0.030  0.00  0.00    -0.380 N 
ATOM     18  C   UNL     1       0.067  -4.408   1.470  0.00  0.00    +0.144 C 
ATOM     19  C   UNL     1       0.052  -3.060   2.156  0.00  0.00    -0.040 C 
ATOM     20  C   UNL     1       0.036  -2.137   1.168  0.00  0.00    -0.001 A 
ATOM     21  C   UNL     1       0.022  -0.669   1.180  0.00  0.00    +0.013 A 
ATOM     22  H   UNL     1       0.062  -4.790  -0.677  0.00  0.00    +0.160 HD
ENDBRANCH  11  19
ENDBRANCH  10  11
ENDBRANCH   1  10
BRANCH   6  23
ATOM     23  C   UNL     1      -6.210  -2.623   8.321  0.00  0.00    +0.098 C 
BRANCH  23  24
ATOM     24  C   UNL     1      -6.798  -1.235   8.312  0.00  0.00    -0.041 A 
ATOM     25  C   UNL     1      -6.502  -0.353   9.335  0.00  0.00    +0.004 A 
ATOM     26  C   UNL     1      -7.041   0.920   9.327  0.00  0.00    +0.000 A 
ATOM     27  C   UNL     1      -7.875   1.311   8.296  0.00  0.00    +0.000 A 
ATOM     28  C   UNL     1      -8.170   0.429   7.273  0.00  0.00    +0.000 A 
ATOM     29  C   UNL     1      -7.628  -0.842   7.279  0.00  0.00    +0.004 A 
ENDBRANCH  23  24
ENDBRANCH   6  23
TORSDOF 5
