REMARK  Name = ZINC26569586
REMARK  8 active torsions:
REMARK  status: ('A' for Active; 'I' for Inactive)
REMARK    1  A    between atoms: C_1  and  O_2
REMARK    2  A    between atoms: O_2  and  C_3
REMARK    3  A    between atoms: C_3  and  C_5
REMARK    4  A    between atoms: C_5  and  C_15
REMARK    5  A    between atoms: C_15  and  C_17
REMARK    6  A    between atoms: C_17  and  S_18
REMARK    7  A    between atoms: S_18  and  C_19
REMARK    8  A    between atoms: C_22  and  C_25
REMARK                            x       y       z     vdW  Elec       q    Type
REMARK                         _______ _______ _______ _____ _____    ______ ____
ROOT
ATOM      1  C   UNL     1      -1.245   2.144   0.020  0.00  0.00    +0.183 C 
ATOM      2  O   UNL     1      -1.262   3.359   0.026  0.00  0.00    -0.291 OA
ENDROOT
BRANCH   1   3
ATOM      3  C   UNL     1      -0.018   1.458   0.010  0.00  0.00    +0.138 C 
ATOM      4  C   UNL     1       1.192   2.178   0.002  0.00  0.00    +0.110 C 
ATOM      5  N   UNL     1       1.300   3.531   0.003  0.00  0.00    -0.301 N 
ATOM      6  C   UNL     1       2.651   3.860  -0.003  0.00  0.00    +0.054 A 
ATOM      7  C   UNL     1       3.332   5.069  -0.005  0.00  0.00    +0.025 A 
ATOM      8  C   UNL     1       4.712   5.081  -0.019  0.00  0.00    +0.002 A 
ATOM      9  C   UNL     1       5.421   3.891  -0.031  0.00  0.00    +0.002 A 
ATOM     10  C   UNL     1       4.753   2.683  -0.030  0.00  0.00    +0.025 A 
ATOM     11  C   UNL     1       3.365   2.660  -0.016  0.00  0.00    +0.054 A 
ATOM     12  N   UNL     1       2.433   1.629  -0.012  0.00  0.00    -0.301 N 
ATOM     13  H   UNL     1       0.395   4.155   0.007  0.00  0.00    +0.153 HD
ATOM     14  H   UNL     1       2.550   0.535  -0.019  0.00  0.00    +0.153 HD
BRANCH   3  15
ATOM     15  C   UNL     1       0.002  -0.004   0.002  0.00  0.00    +0.345 C 
ATOM     16  O   UNL     1       1.064  -0.598  -0.011  0.00  0.00    -0.245 OA
BRANCH  15  18
ATOM     17  C   UNL     1      -1.063  -2.120   0.001  0.00  0.00    +0.280 C 
ATOM     18  O   UNL     1      -1.157  -0.695   0.009  0.00  0.00    -0.464 OA
ENDBRANCH  15  18
ENDBRANCH   3  15
ENDBRANCH   1   3
BRANCH   1  19
ATOM     19  C   UNL     1      -2.540   1.373   0.022  0.00  0.00    +0.157 C 
BRANCH  19  20
ATOM     20  S   UNL     1      -3.932   2.530   0.035  0.00  0.00    -0.080 S 
BRANCH  20  21
ATOM     21  C   UNL     1      -5.277   1.392   0.035  0.00  0.00    +0.167 A 
ATOM     22  N   UNL     1      -6.597   1.723   0.043  0.00  0.00    -0.333 N 
ATOM     23  H   UNL     1      -6.899   2.781   0.050  0.00  0.00    +0.168 HD
ATOM     24  C   UNL     1      -7.309   0.536   0.040  0.00  0.00    +0.067 A 
ATOM     25  C   UNL     1      -6.393  -0.467   0.030  0.00  0.00    +0.139 A 
ATOM     26  N   UNL     1      -5.171   0.082   0.021  0.00  0.00    -0.230 NA
BRANCH  24  27
ATOM     27  C   UNL     1      -8.780   0.389   0.047  0.00  0.00    +0.000 A 
ATOM     28  C   UNL     1      -9.598   1.520   0.063  0.00  0.00    +0.013 A 
ATOM     29  C   UNL     1     -10.969   1.377   0.065  0.00  0.00    +0.039 A 
ATOM     30  C   UNL     1     -11.536   0.113   0.060  0.00  0.00    +0.123 A 
ATOM     31  C   UNL     1     -10.730  -1.014   0.049  0.00  0.00    +0.039 A 
ATOM     32  C   UNL     1      -9.357  -0.882   0.042  0.00  0.00    +0.013 A 
ATOM     33  F   UNL     1     -12.881  -0.022   0.067  0.00  0.00    -0.205 F 
ENDBRANCH  24  27
ENDBRANCH  20  21
ENDBRANCH  19  20
ENDBRANCH   1  19
TORSDOF 7
