REMARK  Name = ZINC16982636
REMARK  9 active torsions:
REMARK  status: ('A' for Active; 'I' for Inactive)
REMARK    1  A    between atoms: C_1  and  C_2
REMARK    2  A    between atoms: C_2  and  N_14
REMARK    3  A    between atoms: C_5  and  N_11
REMARK    4  A    between atoms: N_14  and  N_15
REMARK    5  A    between atoms: C_16  and  C_18
REMARK    6  A    between atoms: C_18  and  N_29
REMARK    7  A    between atoms: C_19  and  C_20
REMARK    8  A    between atoms: C_24  and  N_26
REMARK    9  A    between atoms: C_30  and  C_32
REMARK                            x       y       z     vdW  Elec       q    Type
REMARK                         _______ _______ _______ _____ _____    ______ ____
ROOT
ATOM      1  C   UNL     1       0.002  -4.376  -2.080  0.00  0.00    +0.098 C 
ATOM      2  C   UNL     1      -0.340  -4.949  -0.903  0.00  0.00    +0.036 C 
ENDROOT
BRANCH   2   3
ATOM      3  C   UNL     1      -0.266  -6.409  -0.746  0.00  0.00    -0.021 A 
ATOM      4  C   UNL     1       0.623  -7.156  -1.528  0.00  0.00    +0.008 A 
ATOM      5  C   UNL     1       0.687  -8.524  -1.374  0.00  0.00    +0.003 A 
ATOM      6  C   UNL     1      -0.125  -9.160  -0.451  0.00  0.00    +0.033 A 
ATOM      7  C   UNL     1      -1.006  -8.429   0.326  0.00  0.00    +0.127 A 
ATOM      8  C   UNL     1      -1.078  -7.058   0.189  0.00  0.00    +0.040 A 
BRANCH   7   9
ATOM      9  N   UNL     1      -1.870  -9.118   1.311  0.00  0.00    +0.056 N 
ATOM     10  O   UNL     1      -1.805 -10.319   1.435  0.00  0.00    -0.126 OA
ATOM     11  O   UNL     1      -2.640  -8.481   1.990  0.00  0.00    -0.126 OA
ENDBRANCH   7   9
ENDBRANCH   2   3
BRANCH   1  13
ATOM     12  N   UNL     1      -0.089  -2.143  -1.097  0.00  0.00    -0.232 N 
ATOM     13  C   UNL     1       0.074  -2.912  -2.192  0.00  0.00    +0.274 C 
ATOM     14  O   UNL     1       0.280  -2.394  -3.273  0.00  0.00    -0.267 OA
ATOM     15  H   UNL     1      -0.325  -2.551  -0.249  0.00  0.00    +0.173 HD
BRANCH  12  16
ATOM     16  N   UNL     1       0.082  -0.755  -1.183  0.00  0.00    -0.268 N 
ATOM     17  H   UNL     1       0.240  -0.339  -2.045  0.00  0.00    +0.170 HD
BRANCH  16  19
ATOM     18  C   UNL     1      -0.125  -0.657   1.276  0.00  0.00    +0.063 C 
ATOM     19  C   UNL     1       0.025  -0.002  -0.073  0.00  0.00    +0.030 C 
ATOM     20  C   UNL     1       0.105   1.388  -0.169  0.00  0.00    +0.042 C 
ATOM     21  C   UNL     1      -0.135   2.192   0.969  0.00  0.00    +0.050 C 
ATOM     22  C   UNL     1      -0.056   3.542   0.873  0.00  0.00    +0.173 C 
ATOM     23  C   UNL     1       0.264   4.149  -0.359  0.00  0.00    +0.213 C 
ATOM     24  O   UNL     1       0.334   5.369  -0.439  0.00  0.00    -0.285 OA
ATOM     25  C   UNL     1       0.505   3.359  -1.494  0.00  0.00    +0.104 C 
ATOM     26  C   UNL     1       0.433   1.998  -1.407  0.00  0.00    +0.191 C 
ATOM     27  O   UNL     1       0.670   1.234  -2.500  0.00  0.00    -0.287 OA
BRANCH  22  28
ATOM     28  N   UNL     1      -0.308   4.382   2.065  0.00  0.00    +0.060 N 
ATOM     29  O   UNL     1      -0.584   3.864   3.122  0.00  0.00    -0.126 OA
ATOM     30  O   UNL     1      -0.238   5.586   1.982  0.00  0.00    -0.126 OA
ENDBRANCH  22  28
ENDBRANCH  16  19
ENDBRANCH  12  16
ENDBRANCH   1  13
BRANCH   1  31
ATOM     31  N   UNL     1       0.287  -5.177  -3.189  0.00  0.00    -0.277 N 
ATOM     32  C   UNL     1       1.468  -5.050  -3.826  0.00  0.00    +0.248 C 
ATOM     33  O   UNL     1       2.311  -4.285  -3.398  0.00  0.00    -0.270 OA
ATOM     34  H   UNL     1      -0.364  -5.824  -3.501  0.00  0.00    +0.155 HD
BRANCH  32  35
ATOM     35  C   UNL     1       1.739  -5.840  -5.046  0.00  0.00    +0.037 A 
ATOM     36  C   UNL     1       0.734  -6.627  -5.609  0.00  0.00    +0.013 A 
ATOM     37  C   UNL     1       0.993  -7.362  -6.747  0.00  0.00    +0.001 A 
ATOM     38  C   UNL     1       2.247  -7.320  -7.330  0.00  0.00    +0.000 A 
ATOM     39  C   UNL     1       3.248  -6.541  -6.778  0.00  0.00    +0.001 A 
ATOM     40  C   UNL     1       3.000  -5.797  -5.643  0.00  0.00    +0.013 A 
ENDBRANCH  32  35
ENDBRANCH   1  31
TORSDOF 8
