REMARK  Name = ZINC34958305
REMARK  7 active torsions:
REMARK  status: ('A' for Active; 'I' for Inactive)
REMARK    1  A    between atoms: C_1  and  C_2
REMARK    2  A    between atoms: C_5  and  O_12
REMARK    3  A    between atoms: C_8  and  C_10
REMARK    4  A    between atoms: C_8  and  C_11
REMARK    5  A    between atoms: O_12  and  C_13
REMARK    6  A    between atoms: C_14  and  C_19
REMARK    7  A    between atoms: N_20  and  O_21
REMARK                            x       y       z     vdW  Elec       q    Type
REMARK                         _______ _______ _______ _____ _____    ______ ____
ROOT
ATOM      1  C   UNL     1      -4.436  -0.091   0.731  0.00  0.00    +0.226 A 
ATOM      2  C   UNL     1      -5.753  -0.552   0.596  0.00  0.00    +0.079 A 
ATOM      3  C   UNL     1      -6.743   0.347   0.189  0.00  0.00    +0.018 A 
ATOM      4  C   UNL     1      -6.377   1.658  -0.065  0.00  0.00    +0.021 A 
ATOM      5  C   UNL     1      -5.057   2.037   0.091  0.00  0.00    +0.114 A 
ATOM      6  N   UNL     1      -4.140   1.172   0.481  0.00  0.00    -0.221 NA
ENDROOT
BRANCH   2   7
ATOM      7  C   UNL     1      -6.090  -1.964   0.879  0.00  0.00    +0.168 C 
ATOM      8  N   UNL     1      -5.159  -2.791   1.257  0.00  0.00    -0.071 NA
ATOM      9  N   UNL     1      -7.395  -2.405   0.742  0.00  0.00    -0.340 N 
ATOM     10  H   UNL     1      -8.088  -1.789   0.460  0.00  0.00    +0.144 HD
ATOM     11  H   UNL     1      -7.615  -3.332   0.927  0.00  0.00    +0.144 HD
BRANCH   8  12
ATOM     12  O   UNL     1      -5.481  -4.143   1.528  0.00  0.00    -0.408 OA
ATOM     13  H   UNL     1      -4.725  -4.680   1.802  0.00  0.00    +0.328 HD
ENDBRANCH   8  12
ENDBRANCH   2   7
BRANCH   1  14
ATOM     14  O   UNL     1      -3.461  -0.947   1.124  0.00  0.00    -0.473 OA
BRANCH  14  18
ATOM     15  C   UNL     1      -0.019   1.524   0.010  0.00  0.00    +0.007 C 
ATOM     16  C   UNL     1       0.002  -0.004   0.002  0.00  0.00    -0.010 C 
ATOM     17  C   UNL     1      -1.412  -0.559  -0.088  0.00  0.00    +0.048 C 
ATOM     18  C   UNL     1      -2.138  -0.412   1.248  0.00  0.00    +0.176 C 
ATOM     19  C   UNL     1      -1.378  -1.199   2.313  0.00  0.00    +0.051 C 
ATOM     20  C   UNL     1       0.034  -0.651   2.488  0.00  0.00    -0.031 C 
ATOM     21  C   UNL     1       0.787  -0.561   1.172  0.00  0.00    +0.010 C 
ATOM     22  C   UNL     1       0.803  -1.618   3.413  0.00  0.00    +0.011 C 
ATOM     23  C   UNL     1      -0.015   0.711   3.188  0.00  0.00    +0.011 C 
ENDBRANCH  14  18
ENDBRANCH   1  14
TORSDOF 4
