REMARK  Name = ZINC12126118
REMARK  6 active torsions:
REMARK  status: ('A' for Active; 'I' for Inactive)
REMARK    1  A    between atoms: C_1  and  C_2
REMARK    2  A    between atoms: C_2  and  C_3
REMARK    3  A    between atoms: C_2  and  C_4
REMARK    4  A    between atoms: C_13  and  N_20
REMARK    5  A    between atoms: C_15  and  C_17
REMARK    6  A    between atoms: C_21  and  C_23
REMARK                            x       y       z     vdW  Elec       q    Type
REMARK                         _______ _______ _______ _____ _____    ______ ____
ROOT
ATOM      1  C   UNL     1       1.669   6.927  -0.214  0.00  0.00    +0.053 A 
ATOM      2  C   UNL     1       1.898   8.258  -0.399  0.00  0.00    +0.093 A 
ATOM      3  C   UNL     1       3.228   8.712  -0.491  0.00  0.00    +0.253 A 
ATOM      4  O   UNL     1       3.471   9.896  -0.656  0.00  0.00    -0.268 OA
ATOM      5  N   UNL     1       4.229   7.811  -0.388  0.00  0.00    -0.291 N 
ATOM      6  H   UNL     1       5.152   8.101  -0.445  0.00  0.00    +0.172 HD
ATOM      7  C   UNL     1       3.937   6.496  -0.209  0.00  0.00    +0.234 A 
ATOM      8  N   UNL     1       2.692   6.079  -0.124  0.00  0.00    -0.217 NA
ATOM      9  N   UNL     1       4.968   5.580  -0.109  0.00  0.00    -0.185 N 
ATOM     10  C   UNL     1       4.833   4.231   0.049  0.00  0.00    +0.132 A 
ATOM     11  C   UNL     1       6.085   3.701   0.108  0.00  0.00    +0.069 A 
ATOM     12  C   UNL     1       7.001   4.750  -0.026  0.00  0.00    +0.068 A 
ATOM     13  N   UNL     1       6.337   5.869  -0.152  0.00  0.00    -0.167 NA
ENDROOT
BRANCH  10  14
ATOM     14  N   UNL     1       3.635   3.527   0.138  0.00  0.00    -0.266 N 
ATOM     15  C   UNL     1       3.647   2.179   0.175  0.00  0.00    +0.249 C 
ATOM     16  O   UNL     1       4.703   1.579   0.130  0.00  0.00    -0.270 OA
ATOM     17  H   UNL     1       2.793   4.006   0.175  0.00  0.00    +0.157 HD
BRANCH  15  18
ATOM     18  C   UNL     1       2.376   1.433   0.270  0.00  0.00    +0.040 A 
ATOM     19  C   UNL     1       1.161   2.120   0.322  0.00  0.00    +0.016 A 
ATOM     20  C   UNL     1      -0.022   1.419   0.411  0.00  0.00    +0.042 A 
ATOM     21  C   UNL     1      -0.010   0.034   0.449  0.00  0.00    +0.158 A 
ATOM     22  C   UNL     1       1.194  -0.656   0.397  0.00  0.00    +0.159 A 
ATOM     23  C   UNL     1       2.385   0.037   0.308  0.00  0.00    +0.054 A 
ATOM     24  F   UNL     1       1.200  -2.006   0.434  0.00  0.00    -0.202 F 
ATOM     25  F   UNL     1      -1.173  -0.648   0.537  0.00  0.00    -0.202 F 
ENDBRANCH  15  18
ENDBRANCH  10  14
BRANCH   1  27
ATOM     26  C   UNL     1      -0.002   5.402  -1.230  0.00  0.00    +0.014 C 
ATOM     27  C   UNL     1       0.256   6.414  -0.112  0.00  0.00    +0.032 C 
ATOM     28  C   UNL     1       0.056   5.737   1.245  0.00  0.00    +0.014 C 
ENDBRANCH   1  27
BRANCH  12  29
ATOM     29  C   UNL     1       8.502   4.613  -0.019  0.00  0.00    +0.040 C 
ATOM     30  C   UNL     1       9.089   3.304   0.512  0.00  0.00    +0.010 C 
ATOM     31  C   UNL     1       9.203   4.586   1.341  0.00  0.00    +0.010 C 
ENDBRANCH  12  29
TORSDOF 4
