REMARK  Name = ZINC26854271
REMARK  9 active torsions:
REMARK  status: ('A' for Active; 'I' for Inactive)
REMARK    1  A    between atoms: C_1  and  C_2
REMARK    2  A    between atoms: C_2  and  C_3
REMARK    3  A    between atoms: C_3  and  C_27
REMARK    4  A    between atoms: N_6  and  N_10
REMARK    5  A    between atoms: C_11  and  C_13
REMARK    6  A    between atoms: C_13  and  N_14
REMARK    7  A    between atoms: N_14  and  C_15
REMARK    8  A    between atoms: N_14  and  C_16
REMARK    9  A    between atoms: C_16  and  C_17
REMARK                            x       y       z     vdW  Elec       q    Type
REMARK                         _______ _______ _______ _____ _____    ______ ____
ROOT
ATOM      1  N   UNL     1       6.502  -3.121  -3.241  0.00  0.00    -0.225 N 
ATOM      2  C   UNL     1       5.497  -2.276  -2.937  0.00  0.00    +0.213 C 
ATOM      3  O   UNL     1       4.782  -1.842  -3.816  0.00  0.00    -0.276 OA
ATOM      4  H   UNL     1       7.150  -3.514  -2.444  0.00  0.00    +0.173 HD
ENDROOT
BRANCH   1   8
ATOM      5  C   UNL     1       7.568  -3.710  -6.683  0.00  0.00    +0.139 C 
ATOM      6  C   UNL     1       7.726  -3.031  -5.337  0.00  0.00    +0.268 C 
ATOM      7  O   UNL     1       8.580  -2.233  -5.015  0.00  0.00    -0.271 OA
ATOM      8  N   UNL     1       6.720  -3.499  -4.572  0.00  0.00    -0.137 N 
ATOM      9  C   UNL     1       5.959  -4.375  -5.240  0.00  0.00    +0.327 C 
ATOM     10  O   UNL     1       4.994  -4.935  -4.758  0.00  0.00    -0.251 OA
ATOM     11  N   UNL     1       6.380  -4.562  -6.504  0.00  0.00    -0.280 N 
ATOM     12  H   UNL     1       6.018  -5.183  -7.336  0.00  0.00    +0.152 HD
BRANCH   5  13
ATOM     13  C   UNL     1       7.330  -2.690  -7.767  0.00  0.00    -0.015 A 
ATOM     14  C   UNL     1       8.401  -2.145  -8.450  0.00  0.00    +0.006 A 
ATOM     15  C   UNL     1       8.183  -1.213  -9.447  0.00  0.00    +0.000 A 
ATOM     16  C   UNL     1       6.894  -0.818  -9.754  0.00  0.00    +0.000 A 
ATOM     17  C   UNL     1       5.823  -1.359  -9.067  0.00  0.00    +0.000 A 
ATOM     18  C   UNL     1       6.041  -2.295  -8.073  0.00  0.00    +0.006 A 
ENDBRANCH   5  13
BRANCH   5  20
ATOM     19  C   UNL     1       8.916  -5.695  -5.989  0.00  0.00    +0.007 C 
ATOM     20  C   UNL     1       8.800  -4.558  -7.006  0.00  0.00    +0.037 C 
ENDBRANCH   5  20
ENDBRANCH   1   8
BRANCH   2  21
ATOM     21  C   UNL     1       5.262  -1.869  -1.505  0.00  0.00    +0.020 C 
BRANCH  21  22
ATOM     22  N   UNL     1       4.118  -0.950  -1.439  0.00  0.00    +0.386 N 
ATOM     23  C   UNL     1       4.421   0.318  -2.117  0.00  0.00    -0.095 C 
ATOM     24  H   UNL     1       3.274  -1.421  -1.965  0.00  0.00    -0.081 HD
BRANCH  22  25
ATOM     25  C   UNL     1       3.709  -0.717  -0.047  0.00  0.00    -0.043 C 
BRANCH  25  26
ATOM     26  C   UNL     1       2.397   0.024  -0.026  0.00  0.00    -0.060 A 
ATOM     27  C   UNL     1       1.207  -0.680  -0.015  0.00  0.00    +0.005 A 
ATOM     28  C   UNL     1       0.002  -0.004   0.002  0.00  0.00    +0.049 A 
ATOM     29  C   UNL     1      -0.017   1.383   0.010  0.00  0.00    +0.162 A 
ATOM     30  C   UNL     1       1.179   2.090   0.002  0.00  0.00    +0.162 A 
ATOM     31  C   UNL     1       2.385   1.406  -0.018  0.00  0.00    +0.051 A 
ATOM     32  O   UNL     1       1.184   3.451   0.018  0.00  0.00    -0.485 OA
ATOM     33  C   UNL     1      -0.040   4.103  -0.340  0.00  0.00    +0.270 C 
ATOM     34  C   UNL     1      -1.189   3.413   0.408  0.00  0.00    +0.270 C 
ATOM     35  O   UNL     1      -1.212   2.035   0.019  0.00  0.00    -0.485 OA
ENDBRANCH  25  26
ENDBRANCH  22  25
ENDBRANCH  21  22
ENDBRANCH   2  21
TORSDOF 7
