REMARK  Name = ZINC61592786
REMARK  7 active torsions:
REMARK  status: ('A' for Active; 'I' for Inactive)
REMARK    1  A    between atoms: C_1  and  C_2
REMARK    2  A    between atoms: C_2  and  C_3
REMARK    3  A    between atoms: C_3  and  C_4
REMARK    4  A    between atoms: C_8  and  C_22
REMARK    5  A    between atoms: C_10  and  S_13
REMARK    6  A    between atoms: S_13  and  C_14
REMARK    7  A    between atoms: N_20  and  C_21
REMARK                            x       y       z     vdW  Elec       q    Type
REMARK                         _______ _______ _______ _____ _____    ______ ____
ROOT
ATOM      1  C   UNL     1      -1.413  -2.063   0.004  0.00  0.00    -0.010 C 
ATOM      2  C   UNL     1      -0.784  -2.572   1.303  0.00  0.00    +0.005 C 
ATOM      3  C   UNL     1      -1.607  -2.080   2.495  0.00  0.00    +0.020 C 
ATOM      4  C   UNL     1      -3.038  -2.609   2.380  0.00  0.00    +0.105 C 
ATOM      5  C   UNL     1      -3.667  -2.100   1.082  0.00  0.00    +0.071 C 
ATOM      6  C   UNL     1      -2.844  -2.592  -0.110  0.00  0.00    +0.019 C 
ENDROOT
BRANCH   4   7
ATOM      7  C   UNL     1      -3.018  -4.080   2.372  0.00  0.00    +0.067 C 
ATOM      8  N   UNL     1      -3.002  -5.216   2.366  0.00  0.00    -0.196 NA
ENDBRANCH   4   7
BRANCH   1   9
ATOM      9  C   UNL     1      -1.433  -0.534   0.013  0.00  0.00    +0.003 C 
BRANCH   9  11
ATOM     10  C   UNL     1      -0.019   1.526   0.010  0.00  0.00    +0.004 C 
ATOM     11  C   UNL     1       0.002  -0.004   0.002  0.00  0.00    -0.003 C 
ENDBRANCH   9  11
ENDBRANCH   1   9
BRANCH   5  12
ATOM     12  S   UNL     1      -5.363  -2.727   0.946  0.00  0.00    -0.081 S 
BRANCH  12  13
ATOM     13  C   UNL     1      -6.209  -1.963   2.289  0.00  0.00    +0.192 A 
ATOM     14  N   UNL     1      -5.682  -1.139   3.148  0.00  0.00    -0.145 NA
ATOM     15  N   UNL     1      -6.681  -0.759   4.055  0.00  0.00    -0.226 N 
ATOM     16  H   UNL     1      -6.577  -0.151   4.803  0.00  0.00    +0.194 HD
ATOM     17  C   UNL     1      -7.816  -1.393   3.694  0.00  0.00    +0.345 A 
ATOM     18  O   UNL     1      -8.897  -1.308   4.250  0.00  0.00    -0.245 OA
ATOM     19  N   UNL     1      -7.539  -2.135   2.603  0.00  0.00    -0.274 N 
ATOM     20  C   UNL     1      -8.489  -2.981   1.876  0.00  0.00    +0.156 C 
ENDBRANCH  12  13
ENDBRANCH   5  12
TORSDOF 5
