REMARK  Name = ZINC14273278
REMARK  8 active torsions:
REMARK  status: ('A' for Active; 'I' for Inactive)
REMARK    1  A    between atoms: C_1  and  C_2
REMARK    2  A    between atoms: C_2  and  C_3
REMARK    3  A    between atoms: C_2  and  C_4
REMARK    4  A    between atoms: C_2  and  C_5
REMARK    5  A    between atoms: C_12  and  N_16
REMARK    6  A    between atoms: C_13  and  C_14
REMARK    7  A    between atoms: C_17  and  C_19
REMARK    8  A    between atoms: C_22  and  C_24
REMARK                            x       y       z     vdW  Elec       q    Type
REMARK                         _______ _______ _______ _____ _____    ______ ____
ROOT
ATOM      1  N   UNL     1      -1.119   2.575   0.022  0.00  0.00    -0.272 N 
ATOM      2  C   UNL     1      -2.366   2.062   0.026  0.00  0.00    +0.284 C 
ATOM      3  O   UNL     1      -2.527   0.855   0.020  0.00  0.00    -0.266 OA
ATOM      4  H   UNL     1      -0.990   3.536   0.026  0.00  0.00    +0.156 HD
ENDROOT
BRANCH   1  11
ATOM      5  C   UNL     1       3.951  -1.290  -0.424  0.00  0.00    -0.000 C 
ATOM      6  C   UNL     1       4.473  -0.120   0.415  0.00  0.00    +0.009 C 
ATOM      7  C   UNL     1       3.797   1.179  -0.027  0.00  0.00    +0.037 C 
ATOM      8  C   UNL     1       2.288   0.975  -0.015  0.00  0.00    -0.018 A 
ATOM      9  C   UNL     1       1.753  -0.266  -0.017  0.00  0.00    -0.004 A 
ATOM     10  S   UNL     1       0.002  -0.004   0.002  0.00  0.00    -0.077 S 
ATOM     11  C   UNL     1      -0.021   1.728   0.011  0.00  0.00    +0.090 A 
ATOM     12  C   UNL     1       1.325   2.063   0.001  0.00  0.00    +0.084 A 
ATOM     13  C   UNL     1       2.493  -1.568  -0.032  0.00  0.00    +0.047 C 
BRANCH   5  15
ATOM     14  C   UNL     1       4.718  -2.895   1.331  0.00  0.00    +0.011 C 
ATOM     15  C   UNL     1       4.801  -2.534  -0.154  0.00  0.00    -0.035 C 
ATOM     16  C   UNL     1       4.277  -3.701  -0.993  0.00  0.00    +0.011 C 
ATOM     17  C   UNL     1       6.256  -2.249  -0.529  0.00  0.00    +0.011 C 
ENDBRANCH   5  15
BRANCH  12  18
ATOM     18  C   UNL     1       1.750   3.430   0.003  0.00  0.00    +0.102 C 
ATOM     19  N   UNL     1       2.087   4.515   0.006  0.00  0.00    -0.191 NA
ENDBRANCH  12  18
ENDBRANCH   1  11
BRANCH   2  20
ATOM     20  C   UNL     1      -3.525   2.956   0.036  0.00  0.00    +0.190 A 
ATOM     21  C   UNL     1      -4.847   2.567   0.041  0.00  0.00    +0.055 A 
ATOM     22  C   UNL     1      -5.612   3.737   0.052  0.00  0.00    +0.051 A 
ATOM     23  C   UNL     1      -4.740   4.788   0.053  0.00  0.00    +0.137 A 
ATOM     24  O   UNL     1      -3.486   4.305   0.049  0.00  0.00    -0.450 OA
BRANCH  23  25
ATOM     25  C   UNL     1      -5.113   6.216   0.064  0.00  0.00    +0.037 A 
ATOM     26  C   UNL     1      -6.042   6.706  -0.856  0.00  0.00    +0.033 A 
ATOM     27  C   UNL     1      -6.390   8.041  -0.836  0.00  0.00    +0.042 A 
ATOM     28  C   UNL     1      -5.811   8.898   0.086  0.00  0.00    +0.021 A 
ATOM     29  C   UNL     1      -4.886   8.421   0.996  0.00  0.00    +0.022 A 
ATOM     30  C   UNL     1      -4.533   7.086   0.992  0.00  0.00    +0.052 A 
ATOM     31 CL   UNL     1      -3.371   6.490   2.135  0.00  0.00    -0.083 Cl
ATOM     32 CL   UNL     1      -7.551   8.651  -1.975  0.00  0.00    -0.084 Cl
ENDBRANCH  23  25
ENDBRANCH   2  20
TORSDOF 5
