REMARK  Name = ZINC53146409
REMARK  3 active torsions:
REMARK  status: ('A' for Active; 'I' for Inactive)
REMARK    1  A    between atoms: C_4  and  C_8
REMARK    2  A    between atoms: C_8  and  C_9
REMARK    3  A    between atoms: C_15  and  N_18
REMARK                            x       y       z     vdW  Elec       q    Type
REMARK                         _______ _______ _______ _____ _____    ______ ____
ROOT
ATOM      1  C   UNL     1       4.102  -1.069   1.373  0.00  0.00    +0.142 A 
ATOM      2  N   UNL     1       4.785  -0.321   2.202  0.00  0.00    -0.133 NA
ATOM      3  N   UNL     1       4.942  -0.929   3.325  0.00  0.00    -0.129 NA
ATOM      4  C   UNL     1       4.357  -2.115   3.270  0.00  0.00    +0.161 A 
ATOM      5  N   UNL     1       3.801  -2.227   2.020  0.00  0.00    -0.284 N 
ATOM      6  C   UNL     1       3.117  -3.354   1.663  0.00  0.00    +0.117 A 
ATOM      7  C   UNL     1       2.975  -4.377   2.542  0.00  0.00    +0.041 A 
ATOM      8  C   UNL     1       3.533  -4.286   3.833  0.00  0.00    +0.028 A 
ATOM      9  C   UNL     1       4.222  -3.171   4.193  0.00  0.00    +0.050 A 
ENDROOT
BRANCH   7  10
ATOM     10  N   UNL     1       2.270  -5.528   2.165  0.00  0.00    -0.357 N 
ATOM     11  H   UNL     1       1.885  -5.592   1.277  0.00  0.00    +0.142 HD
ATOM     12  H   UNL     1       2.167  -6.261   2.793  0.00  0.00    +0.142 HD
ENDBRANCH   7  10
BRANCH   1  13
ATOM     13  C   UNL     1       3.713  -0.710  -0.038  0.00  0.00    +0.116 C 
BRANCH  13  17
ATOM     14  C   UNL     1       6.923  -1.671  -2.690  0.00  0.00    +0.004 A 
ATOM     15  C   UNL     1       5.918  -2.592  -2.461  0.00  0.00    +0.039 A 
ATOM     16  C   UNL     1       4.878  -2.281  -1.602  0.00  0.00    +0.128 A 
ATOM     17  C   UNL     1       4.845  -1.049  -0.973  0.00  0.00    +0.013 A 
ATOM     18  C   UNL     1       5.852  -0.129  -1.202  0.00  0.00    +0.047 A 
ATOM     19  C   UNL     1       6.891  -0.441  -2.062  0.00  0.00    +0.020 A 
ATOM     20 CL   UNL     1       5.812   1.417  -0.413  0.00  0.00    -0.083 Cl
ATOM     21  F   UNL     1       3.894  -3.181  -1.379  0.00  0.00    -0.205 F 
ENDBRANCH  13  17
ENDBRANCH   1  13
TORSDOF 3
