REMARK  Name = ZINC40019638
REMARK  18 active torsions:
REMARK  status: ('A' for Active; 'I' for Inactive)
REMARK    1  A    between atoms: C_1  and  C_2
REMARK    2  A    between atoms: C_2  and  C_3
REMARK    3  A    between atoms: C_3  and  C_4
REMARK    4  A    between atoms: C_4  and  N_5
REMARK    5  A    between atoms: N_5  and  C_6
REMARK    6  A    between atoms: N_5  and  C_10
REMARK    7  A    between atoms: C_6  and  C_7
REMARK    8  A    between atoms: C_7  and  C_8
REMARK    9  A    between atoms: C_8  and  C_9
REMARK   10  A    between atoms: C_10  and  C_11
REMARK   11  A    between atoms: C_11  and  C_12
REMARK   12  A    between atoms: C_12  and  N_13
REMARK   13  A    between atoms: C_14  and  C_30
REMARK   14  A    between atoms: C_16  and  C_21
REMARK   15  A    between atoms: C_21  and  C_23
REMARK   16  A    between atoms: C_32  and  C_38
REMARK   17  A    between atoms: C_33  and  O_37
REMARK   18  A    between atoms: C_34  and  C_36
REMARK                            x       y       z     vdW  Elec       q    Type
REMARK                         _______ _______ _______ _____ _____    ______ ____
ROOT
ATOM      1  N   UNL     1       4.690  -6.463  -0.607  0.00  0.00    -0.284 N 
ATOM      2  C   UNL     1       4.484  -6.754  -2.031  0.00  0.00    +0.145 C 
ATOM      3  C   UNL     1       5.836  -7.146  -2.580  0.00  0.00    +0.076 C 
ATOM      4  C   UNL     1       6.711  -7.079  -1.550  0.00  0.00    +0.249 C 
ATOM      5  C   UNL     1       5.994  -6.649  -0.331  0.00  0.00    +0.288 C 
ATOM      6  O   UNL     1       6.505  -6.490   0.760  0.00  0.00    -0.266 OA
ATOM      7  O   UNL     1       8.033  -7.356  -1.624  0.00  0.00    -0.282 OA
ENDROOT
BRANCH   2   8
ATOM      8  C   UNL     1       3.972  -5.527  -2.741  0.00  0.00    -0.022 A 
ATOM      9  C   UNL     1       4.622  -4.317  -2.585  0.00  0.00    +0.012 A 
ATOM     10  C   UNL     1       4.154  -3.191  -3.234  0.00  0.00    -0.008 A 
ATOM     11  C   UNL     1       3.030  -3.276  -4.043  0.00  0.00    +0.123 A 
ATOM     12  C   UNL     1       2.379  -4.491  -4.198  0.00  0.00    -0.008 A 
ATOM     13  C   UNL     1       2.855  -5.615  -3.551  0.00  0.00    +0.012 A 
ATOM     14  C   UNL     1       1.158  -4.587  -5.077  0.00  0.00    +0.047 C 
ATOM     15  C   UNL     1       4.862  -1.872  -3.064  0.00  0.00    +0.047 C 
BRANCH  11  16
ATOM     16  O   UNL     1       2.567  -2.170  -4.683  0.00  0.00    -0.506 OA
ATOM     17  H   UNL     1       2.947  -2.036  -5.562  0.00  0.00    +0.292 HD
ENDBRANCH  11  16
ENDBRANCH   2   8
BRANCH   3  18
ATOM     18  C   UNL     1       6.141  -7.527  -3.962  0.00  0.00    +0.195 C 
ATOM     19  O   UNL     1       6.849  -6.814  -4.648  0.00  0.00    -0.287 OA
BRANCH  18  20
ATOM     20  C   UNL     1       5.589  -8.778  -4.523  0.00  0.00    +0.022 A 
ATOM     21  C   UNL     1       4.813  -9.622  -3.724  0.00  0.00    +0.014 A 
ATOM     22  C   UNL     1       4.300 -10.787  -4.252  0.00  0.00    +0.039 A 
ATOM     23  C   UNL     1       4.553 -11.123  -5.574  0.00  0.00    +0.123 A 
ATOM     24  C   UNL     1       5.323 -10.289  -6.371  0.00  0.00    +0.039 A 
ATOM     25  C   UNL     1       5.836  -9.118  -5.855  0.00  0.00    +0.014 A 
ATOM     26  F   UNL     1       4.049 -12.266  -6.086  0.00  0.00    -0.205 F 
ENDBRANCH  18  20
ENDBRANCH   3  18
BRANCH   1  27
ATOM     27  C   UNL     1       3.659  -6.040   0.344  0.00  0.00    +0.107 C 
BRANCH  27  28
ATOM     28  C   UNL     1       3.567  -4.513   0.350  0.00  0.00    +0.000 C 
BRANCH  28  29
ATOM     29  C   UNL     1       2.490  -4.070   1.343  0.00  0.00    -0.077 C 
BRANCH  29  30
ATOM     30  N   UNL     1       2.402  -2.604   1.348  0.00  0.00    +0.380 N 
ATOM     31  H   UNL     1       3.312  -2.213   1.540  0.00  0.00    -0.082 HD
BRANCH  30  32
ATOM     32  C   UNL     1       1.935  -2.137   0.036  0.00  0.00    -0.079 C 
BRANCH  32  33
ATOM     33  C   UNL     1       1.979  -0.608  -0.007  0.00  0.00    -0.019 C 
BRANCH  33  35
ATOM     34  C   UNL     1       1.660   1.402  -1.455  0.00  0.00    +0.004 C 
ATOM     35  C   UNL     1       1.615  -0.127  -1.413  0.00  0.00    -0.005 C 
ENDBRANCH  33  35
ENDBRANCH  32  33
ENDBRANCH  30  32
BRANCH  30  36
ATOM     36  C   UNL     1       1.455  -2.175   2.386  0.00  0.00    -0.079 C 
BRANCH  36  37
ATOM     37  C   UNL     1       2.012  -2.533   3.765  0.00  0.00    -0.019 C 
BRANCH  37  38
ATOM     38  C   UNL     1       1.084  -1.982   4.849  0.00  0.00    -0.005 C 
ATOM     39  C   UNL     1       1.641  -2.340   6.228  0.00  0.00    +0.004 C 
ENDBRANCH  37  38
ENDBRANCH  36  37
ENDBRANCH  30  36
ENDBRANCH  29  30
ENDBRANCH  28  29
ENDBRANCH  27  28
ENDBRANCH   1  27
TORSDOF 14
