REMARK  Name = ZINC11619359
REMARK  5 active torsions:
REMARK  status: ('A' for Active; 'I' for Inactive)
REMARK    1  A    between atoms: C_4  and  C_7
REMARK    2  A    between atoms: C_8  and  C_9
REMARK    3  A    between atoms: C_9  and  S_10
REMARK    4  A    between atoms: S_10  and  C_11
REMARK    5  A    between atoms: N_15  and  C_16
REMARK                            x       y       z     vdW  Elec       q    Type
REMARK                         _______ _______ _______ _____ _____    ______ ____
ROOT
ATOM      1  C   UNL     1       1.240  -0.449  -0.012  0.00  0.00    +0.214 A 
ATOM      2  N   UNL     1       0.002  -0.004   0.002  0.00  0.00    -0.101 NA
ATOM      3  N   UNL     1      -0.015   1.280   0.009  0.00  0.00    -0.022 NA
ATOM      4  N   UNL     1       1.185   1.748   0.000  0.00  0.00    -0.038 NA
ATOM      5  N   UNL     1       2.054   0.643  -0.014  0.00  0.00    -0.187 N 
ENDROOT
BRANCH   5   6
ATOM      6  C   UNL     1       3.457   0.661  -0.027  0.00  0.00    +0.073 A 
ATOM      7  C   UNL     1       4.171  -0.314   0.655  0.00  0.00    +0.028 A 
ATOM      8  C   UNL     1       5.552  -0.298   0.637  0.00  0.00    +0.005 A 
ATOM      9  C   UNL     1       6.224   0.695  -0.051  0.00  0.00    +0.038 A 
ATOM     10  C   UNL     1       5.516   1.673  -0.728  0.00  0.00    +0.125 A 
ATOM     11  C   UNL     1       4.132   1.658  -0.718  0.00  0.00    +0.066 A 
ATOM     12  F   UNL     1       6.175   2.643  -1.399  0.00  0.00    -0.205 F 
ENDBRANCH   5   6
BRANCH   1  13
ATOM     13  S   UNL     1       1.748  -2.136  -0.027  0.00  0.00    -0.080 S 
BRANCH  13  14
ATOM     14  C   UNL     1       0.133  -2.951  -0.015  0.00  0.00    +0.104 C 
BRANCH  14  16
ATOM     15  C   UNL     1      -0.063  -5.171   1.015  0.00  0.00    +0.004 C 
ATOM     16  C   UNL     1       0.324  -4.446  -0.025  0.00  0.00    -0.015 C 
BRANCH  15  20
ATOM     17  C   UNL     1       0.476  -9.384   0.986  0.00  0.00    +0.000 A 
ATOM     18  C   UNL     1      -0.104  -8.771   2.083  0.00  0.00    +0.001 A 
ATOM     19  C   UNL     1      -0.282  -7.403   2.098  0.00  0.00    +0.008 A 
ATOM     20  C   UNL     1       0.124  -6.637   1.005  0.00  0.00    -0.025 A 
ATOM     21  C   UNL     1       0.703  -7.262  -0.101  0.00  0.00    +0.008 A 
ATOM     22  C   UNL     1       0.881  -8.630  -0.101  0.00  0.00    +0.001 A 
ENDBRANCH  15  20
ENDBRANCH  14  16
ENDBRANCH  13  14
ENDBRANCH   1  13
TORSDOF 5
