REMARK  Name = ZINC31633419
REMARK  7 active torsions:
REMARK  status: ('A' for Active; 'I' for Inactive)
REMARK    1  A    between atoms: C_1  and  C_2
REMARK    2  A    between atoms: C_2  and  C_25
REMARK    3  A    between atoms: N_5  and  C_9
REMARK    4  A    between atoms: C_9  and  C_10
REMARK    5  A    between atoms: N_12  and  C_13
REMARK    6  A    between atoms: C_14  and  C_23
REMARK    7  A    between atoms: C_28  and  C_31
REMARK                            x       y       z     vdW  Elec       q    Type
REMARK                         _______ _______ _______ _____ _____    ______ ____
ROOT
ATOM      1  C   UNL     1      -0.019   1.526   0.010  0.00  0.00    +0.047 C 
ATOM      2  C   UNL     1       0.002  -0.004   0.002  0.00  0.00    +0.135 C 
ATOM      3  C   UNL     1       0.815  -0.520  -1.169  0.00  0.00    +0.251 C 
ATOM      4  O   UNL     1       0.595  -0.342  -2.348  0.00  0.00    -0.272 OA
ATOM      5  N   UNL     1       1.833  -1.217  -0.627  0.00  0.00    -0.215 N 
ATOM      6  C   UNL     1       1.777  -1.214   0.710  0.00  0.00    +0.310 C 
ATOM      7  O   UNL     1       2.586  -1.776   1.421  0.00  0.00    -0.252 OA
ATOM      8  N   UNL     1       0.724  -0.519   1.178  0.00  0.00    -0.281 N 
ATOM      9  H   UNL     1       0.487  -0.383   2.109  0.00  0.00    +0.152 HD
ENDROOT
BRANCH   2  10
ATOM     10  C   UNL     1      -1.401  -0.551  -0.040  0.00  0.00    -0.015 A 
ATOM     11  C   UNL     1      -2.002  -0.814  -1.258  0.00  0.00    +0.007 A 
ATOM     12  C   UNL     1      -3.286  -1.315  -1.304  0.00  0.00    +0.019 A 
ATOM     13  C   UNL     1      -3.980  -1.558  -0.117  0.00  0.00    +0.052 A 
ATOM     14  C   UNL     1      -3.368  -1.292   1.109  0.00  0.00    +0.019 A 
ATOM     15  C   UNL     1      -2.081  -0.795   1.140  0.00  0.00    +0.007 A 
BRANCH  13  16
ATOM     16  C   UNL     1      -5.314  -2.078  -0.157  0.00  0.00    +0.099 C 
ATOM     17  N   UNL     1      -6.372  -2.490  -0.189  0.00  0.00    -0.191 NA
ENDBRANCH  13  16
ENDBRANCH   2  10
BRANCH   5  18
ATOM     18  C   UNL     1       2.871  -1.896  -1.406  0.00  0.00    +0.214 C 
BRANCH  18  19
ATOM     19  C   UNL     1       4.020  -0.950  -1.644  0.00  0.00    +0.236 C 
ATOM     20  O   UNL     1       3.975   0.180  -1.206  0.00  0.00    -0.274 OA
ATOM     21  N   UNL     1       5.097  -1.360  -2.343  0.00  0.00    -0.278 N 
ATOM     22  H   UNL     1       5.133  -2.264  -2.693  0.00  0.00    +0.155 HD
BRANCH  21  23
ATOM     23  C   UNL     1       6.155  -0.488  -2.562  0.00  0.00    +0.090 A 
ATOM     24  C   UNL     1       7.327  -0.730  -3.255  0.00  0.00    +0.084 A 
ATOM     25  C   UNL     1       8.290   0.357  -3.344  0.00  0.00    -0.018 A 
ATOM     26  C   UNL     1       7.900   1.487  -2.716  0.00  0.00    -0.004 A 
ATOM     27  S   UNL     1       6.302   1.104  -2.053  0.00  0.00    -0.077 S 
ATOM     28  C   UNL     1       8.653   2.775  -2.597  0.00  0.00    +0.043 C 
ATOM     29  C   UNL     1       9.165   3.187  -3.984  0.00  0.00    +0.005 C 
ATOM     30  C   UNL     1      10.542   2.567  -4.199  0.00  0.00    +0.001 C 
ATOM     31  C   UNL     1      10.627   1.214  -3.497  0.00  0.00    +0.005 C 
ATOM     32  C   UNL     1       9.612   0.241  -4.090  0.00  0.00    +0.037 C 
BRANCH  24  33
ATOM     33  C   UNL     1       7.584  -2.002  -3.861  0.00  0.00    +0.102 C 
ATOM     34  N   UNL     1       7.787  -3.011  -4.341  0.00  0.00    -0.191 NA
ENDBRANCH  24  33
ENDBRANCH  21  23
ENDBRANCH  18  19
ENDBRANCH   5  18
TORSDOF 6
