REMARK  Name = ZINC02111158
REMARK  12 active torsions:
REMARK  status: ('A' for Active; 'I' for Inactive)
REMARK    1  A    between atoms: C_1  and  C_2
REMARK    2  A    between atoms: C_2  and  C_3
REMARK    3  A    between atoms: C_3  and  C_4
REMARK    4  A    between atoms: C_4  and  C_5
REMARK    5  A    between atoms: C_5  and  C_6
REMARK    6  A    between atoms: C_6  and  C_8
REMARK    7  A    between atoms: C_6  and  N_9
REMARK    8  A    between atoms: C_10  and  C_12
REMARK    9  A    between atoms: C_15  and  N_18
REMARK   10  A    between atoms: C_21  and  C_39
REMARK   11  A    between atoms: C_26  and  O_32
REMARK   12  A    between atoms: O_32  and  C_33
REMARK                            x       y       z     vdW  Elec       q    Type
REMARK                         _______ _______ _______ _____ _____    ______ ____
ROOT
ATOM      1  N   UNL     1       2.267  -3.193   1.732  0.00  0.00    -0.192 N 
ATOM      2  C   UNL     1       3.406  -2.928   1.054  0.00  0.00    +0.257 C 
ATOM      3  O   UNL     1       4.499  -3.420   1.235  0.00  0.00    -0.272 OA
ATOM      4  C   UNL     1       3.029  -1.891   0.024  0.00  0.00    +0.153 C 
ATOM      5  C   UNL     1       3.354  -2.355  -1.376  0.00  0.00    +0.053 A 
ATOM      6  C   UNL     1       2.435  -2.403  -2.367  0.00  0.00    -0.015 A 
ATOM      7  C   UNL     1       3.132  -2.861  -3.556  0.00  0.00    +0.007 A 
ATOM      8  C   UNL     1       2.705  -3.092  -4.868  0.00  0.00    +0.056 A 
ATOM      9  C   UNL     1       3.664  -3.539  -5.765  0.00  0.00    +0.121 A 
ATOM     10  C   UNL     1       4.984  -3.749  -5.384  0.00  0.00    +0.047 A 
ATOM     11  C   UNL     1       5.423  -3.519  -4.092  0.00  0.00    +0.030 A 
ATOM     12  C   UNL     1       4.479  -3.074  -3.170  0.00  0.00    +0.047 A 
ATOM     13  N   UNL     1       4.575  -2.760  -1.843  0.00  0.00    -0.356 N 
ATOM     14  H   UNL     1       5.385  -2.817  -1.312  0.00  0.00    +0.166 HD
ATOM     15  C   UNL     1       0.971  -2.066  -2.244  0.00  0.00    +0.056 C 
ATOM     16  C   UNL     1       0.710  -1.290  -0.944  0.00  0.00    +0.115 C 
ATOM     17  N   UNL     1       1.548  -1.878   0.102  0.00  0.00    -0.265 N 
ATOM     18  C   UNL     1       1.222  -2.520   1.223  0.00  0.00    +0.317 C 
ATOM     19  O   UNL     1       0.115  -2.500   1.724  0.00  0.00    -0.252 OA
ATOM     20  C   UNL     1       3.636  -0.519   0.326  0.00  0.00    +0.048 C 
ENDROOT
BRANCH   1  24
ATOM     21  C   UNL     1       2.028  -5.774   4.997  0.00  0.00    +0.037 A 
ATOM     22  C   UNL     1       3.271  -5.462   4.440  0.00  0.00    +0.015 A 
ATOM     23  C   UNL     1       3.346  -4.609   3.362  0.00  0.00    +0.025 A 
ATOM     24  C   UNL     1       2.187  -4.059   2.827  0.00  0.00    +0.046 A 
ATOM     25  C   UNL     1       0.949  -4.362   3.382  0.00  0.00    +0.025 A 
ATOM     26  C   UNL     1       0.865  -5.218   4.457  0.00  0.00    +0.015 A 
BRANCH  21  28
ATOM     27  N   UNL     1       0.744  -6.987   6.690  0.00  0.00    -0.309 N 
ATOM     28  C   UNL     1       1.944  -6.687   6.154  0.00  0.00    +0.244 C 
ATOM     29  O   UNL     1       2.956  -7.169   6.623  0.00  0.00    -0.270 OA
ATOM     30  H   UNL     1      -0.064  -6.602   6.316  0.00  0.00    +0.149 HD
BRANCH  27  31
ATOM     31  C   UNL     1       0.660  -7.893   7.838  0.00  0.00    +0.070 C 
ATOM     32  C   UNL     1       0.636  -9.341   7.344  0.00  0.00    +0.028 C 
BRANCH  31  33
ATOM     33  C   UNL     1      -0.619  -7.602   8.625  0.00  0.00    +0.022 C 
BRANCH  33  34
ATOM     34  C   UNL     1      -0.541  -6.196   9.224  0.00  0.00    +0.002 C 
BRANCH  34  35
ATOM     35  C   UNL     1      -1.820  -5.905  10.012  0.00  0.00    -0.000 C 
BRANCH  35  37
ATOM     36  C   UNL     1      -3.020  -4.209  11.398  0.00  0.00    +0.004 C 
ATOM     37  C   UNL     1      -1.741  -4.500  10.611  0.00  0.00    -0.003 C 
ENDBRANCH  35  37
ENDBRANCH  34  35
ENDBRANCH  33  34
ENDBRANCH  31  33
ENDBRANCH  27  31
ENDBRANCH  21  28
ENDBRANCH   1  24
BRANCH   9  38
ATOM     38  O   UNL     1       3.302  -3.779  -7.054  0.00  0.00    -0.495 OA
ATOM     39  C   UNL     1       4.325  -4.238  -7.940  0.00  0.00    +0.277 C 
ENDBRANCH   9  38
TORSDOF 8
