REMARK  Name = ZINC40981910
REMARK  9 active torsions:
REMARK  status: ('A' for Active; 'I' for Inactive)
REMARK    1  A    between atoms: C_1  and  C_2
REMARK    2  A    between atoms: C_2  and  C_3
REMARK    3  A    between atoms: C_3  and  S_4
REMARK    4  A    between atoms: S_4  and  C_5
REMARK    5  A    between atoms: C_10  and  C_20
REMARK    6  A    between atoms: C_23  and  O_26
REMARK    7  A    between atoms: O_26  and  C_27
REMARK    8  A    between atoms: C_27  and  C_28
REMARK    9  A    between atoms: C_27  and  C_29
REMARK                            x       y       z     vdW  Elec       q    Type
REMARK                         _______ _______ _______ _____ _____    ______ ____
ROOT
ATOM      1  C   UNL     1      -2.795  -3.301  -0.201  0.00  0.00    +0.210 A 
ATOM      2  N   UNL     1      -3.666  -2.286  -0.115  0.00  0.00    -0.187 NA
ATOM      3  C   UNL     1      -4.879  -2.759  -0.023  0.00  0.00    +0.219 A 
ATOM      4  N   UNL     1      -4.807  -4.112  -0.044  0.00  0.00    -0.220 N 
ATOM      5  N   UNL     1      -3.457  -4.438  -0.167  0.00  0.00    -0.141 NA
ATOM      6  C   UNL     1      -5.975  -4.979   0.049  0.00  0.00    +0.175 C 
ATOM      7  C   UNL     1      -7.236  -4.174  -0.176  0.00  0.00    +0.041 C 
ATOM      8  C   UNL     1      -7.241  -2.824  -0.143  0.00  0.00    +0.020 C 
ATOM      9  N   UNL     1      -6.094  -2.101   0.079  0.00  0.00    -0.287 N 
ATOM     10  C   UNL     1      -8.521  -2.048  -0.347  0.00  0.00    +0.052 C 
ATOM     11  C   UNL     1      -9.444  -2.819  -1.293  0.00  0.00    +0.014 C 
ATOM     12  C   UNL     1      -9.725  -4.194  -0.678  0.00  0.00    +0.080 C 
ATOM     13  C   UNL     1      -8.418  -4.894  -0.427  0.00  0.00    +0.163 C 
ATOM     14  O   UNL     1      -8.383  -6.108  -0.440  0.00  0.00    -0.292 OA
ATOM     15  H   UNL     1      -6.134  -1.157   0.300  0.00  0.00    +0.155 HD
ENDROOT
BRANCH   6  16
ATOM     16  C   UNL     1      -6.023  -5.608   1.417  0.00  0.00    -0.018 A 
ATOM     17  C   UNL     1      -6.114  -4.809   2.542  0.00  0.00    +0.009 A 
ATOM     18  C   UNL     1      -6.158  -5.383   3.797  0.00  0.00    +0.046 A 
ATOM     19  C   UNL     1      -6.112  -6.763   3.929  0.00  0.00    +0.121 A 
ATOM     20  C   UNL     1      -6.021  -7.563   2.800  0.00  0.00    +0.046 A 
ATOM     21  C   UNL     1      -5.983  -6.984   1.546  0.00  0.00    +0.009 A 
BRANCH  19  22
ATOM     22  O   UNL     1      -6.154  -7.330   5.164  0.00  0.00    -0.489 OA
BRANCH  22  23
ATOM     23  C   UNL     1      -6.367  -6.455   6.273  0.00  0.00    +0.167 C 
ATOM     24  C   UNL     1      -6.991  -7.239   7.429  0.00  0.00    +0.051 C 
ATOM     25  C   UNL     1      -5.029  -5.864   6.721  0.00  0.00    +0.051 C 
ENDBRANCH  22  23
ENDBRANCH  19  22
ENDBRANCH   6  16
BRANCH   1  26
ATOM     26  S   UNL     1      -1.046  -3.140  -0.344  0.00  0.00    -0.084 S 
BRANCH  26  27
ATOM     27  C   UNL     1      -0.768  -1.347  -0.333  0.00  0.00    +0.077 C 
BRANCH  27  29
ATOM     28  C   UNL     1       0.964   0.449  -0.444  0.00  0.00    +0.004 C 
ATOM     29  C   UNL     1       0.730  -1.063  -0.453  0.00  0.00    +0.008 C 
ENDBRANCH  27  29
ENDBRANCH  26  27
ENDBRANCH   1  26
TORSDOF 6
