REMARK  Name = ZINC39635768
REMARK  4 active torsions:
REMARK  status: ('A' for Active; 'I' for Inactive)
REMARK    1  A    between atoms: C_1  and  C_2
REMARK    2  A    between atoms: C_8  and  N_10
REMARK    3  A    between atoms: C_11  and  C_13
REMARK    4  A    between atoms: C_24  and  C_26
REMARK                            x       y       z     vdW  Elec       q    Type
REMARK                         _______ _______ _______ _____ _____    ______ ____
ROOT
ATOM      1  C   UNL     1       0.428   0.989   4.504  0.00  0.00    +0.100 C 
ATOM      2  C   UNL     1      -0.266   2.369   4.513  0.00  0.00    +0.121 C 
ATOM      3  N   UNL     1      -0.069   2.878   5.892  0.00  0.00    -0.296 N 
ATOM      4  C   UNL     1       1.313   2.470   6.241  0.00  0.00    +0.115 C 
ATOM      5  C   UNL     1       1.464   1.059   5.638  0.00  0.00    -0.004 C 
ATOM      6  C   UNL     1       2.871   0.872   5.081  0.00  0.00    -0.010 C 
ATOM      7  C   UNL     1       3.879   0.887   6.234  0.00  0.00    -0.082 C 
ATOM      8  N   UNL     1       3.558  -0.189   7.180  0.00  0.00    +0.379 N 
ATOM      9  C   UNL     1       2.241   0.050   7.782  0.00  0.00    -0.082 C 
ATOM     10  C   UNL     1       1.164  -0.001   6.694  0.00  0.00    -0.010 C 
ATOM     11  C   UNL     1      -0.948   3.557   6.655  0.00  0.00    +0.247 C 
ATOM     12  O   UNL     1      -2.093   3.706   6.277  0.00  0.00    -0.270 OA
ATOM     13  H   UNL     1       3.549  -1.072   6.693  0.00  0.00    -0.086 HD
ATOM     14  H   UNL     1       4.258  -0.215   7.906  0.00  0.00    -0.086 HD
ENDROOT
BRANCH  11  15
ATOM     15  C   UNL     1      -0.519   4.119   7.953  0.00  0.00    +0.037 A 
ATOM     16  C   UNL     1       0.846   4.355   8.194  0.00  0.00    +0.013 A 
ATOM     17  C   UNL     1       1.265   4.870   9.378  0.00  0.00    +0.009 A 
ATOM     18  C   UNL     1       0.329   5.176  10.383  0.00  0.00    -0.018 A 
ATOM     19  C   UNL     1       0.738   5.711  11.616  0.00  0.00    +0.008 A 
ATOM     20  C   UNL     1      -0.191   5.997  12.569  0.00  0.00    +0.001 A 
ATOM     21  C   UNL     1      -1.547   5.767  12.342  0.00  0.00    +0.001 A 
ATOM     22  C   UNL     1      -1.981   5.251  11.161  0.00  0.00    +0.008 A 
ATOM     23  C   UNL     1      -1.051   4.943  10.152  0.00  0.00    -0.017 A 
ATOM     24  C   UNL     1      -1.465   4.415   8.920  0.00  0.00    +0.021 A 
ENDBRANCH  11  15
BRANCH   1  26
ATOM     25  N   UNL     1       1.243  -0.498   2.703  0.00  0.00    -0.312 N 
ATOM     26  C   UNL     1       1.112   0.755   3.182  0.00  0.00    +0.218 C 
ATOM     27  O   UNL     1       1.545   1.694   2.548  0.00  0.00    -0.275 OA
ATOM     28  H   UNL     1       0.897  -1.250   3.210  0.00  0.00    +0.149 HD
BRANCH  25  35
ATOM     29  C   UNL     1      -0.104  -1.957   0.594  0.00  0.00    +0.009 C 
ATOM     30  C   UNL     1       1.409  -2.038   0.810  0.00  0.00    +0.006 C 
ATOM     31  C   UNL     1       2.104  -2.276  -0.532  0.00  0.00    +0.005 C 
ATOM     32  C   UNL     1       3.616  -2.357  -0.316  0.00  0.00    +0.000 C 
ATOM     33  C   UNL     1       4.116  -1.045   0.292  0.00  0.00    +0.002 C 
ATOM     34  C   UNL     1       3.421  -0.807   1.634  0.00  0.00    +0.022 C 
ATOM     35  C   UNL     1       1.909  -0.726   1.418  0.00  0.00    +0.076 C 
ENDBRANCH  25  35
ENDBRANCH   1  26
TORSDOF 3
