REMARK  Name = ZINC02253370
REMARK  2 active torsions:
REMARK  status: ('A' for Active; 'I' for Inactive)
REMARK    1  A    between atoms: C_4  and  C_7
REMARK    2  A    between atoms: C_24  and  C_26
REMARK                            x       y       z     vdW  Elec       q    Type
REMARK                         _______ _______ _______ _____ _____    ______ ____
ROOT
ATOM      1  C   UNL     1       3.693  -0.718  -0.048  0.00  0.00    +0.234 C 
ATOM      2  C   UNL     1       4.008  -1.153  -1.449  0.00  0.00    +0.027 C 
ATOM      3  C   UNL     1       3.593  -2.353  -1.907  0.00  0.00    +0.083 C 
ATOM      4  C   UNL     1       2.831  -3.216  -0.969  0.00  0.00    +0.042 A 
ATOM      5  C   UNL     1       2.090  -4.300  -1.419  0.00  0.00    +0.013 A 
ATOM      6  C   UNL     1       1.395  -5.076  -0.511  0.00  0.00    +0.001 A 
ATOM      7  C   UNL     1       1.437  -4.774   0.839  0.00  0.00    +0.004 A 
ATOM      8  C   UNL     1       2.173  -3.697   1.296  0.00  0.00    +0.046 A 
ATOM      9  C   UNL     1       2.875  -2.912   0.398  0.00  0.00    +0.131 A 
ATOM     10  O   UNL     1       3.608  -1.854   0.816  0.00  0.00    -0.479 OA
ATOM     11  N   UNL     1       3.860  -2.760  -3.172  0.00  0.00    -0.213 NA
ATOM     12  C   UNL     1       4.534  -2.055  -4.050  0.00  0.00    +0.237 C 
ATOM     13  N   UNL     1       4.887  -2.307  -5.330  0.00  0.00    -0.205 NA
ATOM     14  C   UNL     1       5.566  -1.306  -5.819  0.00  0.00    +0.203 C 
ATOM     15  N   UNL     1       5.692  -0.337  -4.871  0.00  0.00    -0.251 N 
ATOM     16  N   UNL     1       5.032  -0.807  -3.733  0.00  0.00    -0.208 N 
ATOM     17  C   UNL     1       4.795  -0.267  -2.389  0.00  0.00    +0.162 C 
ATOM     18  H   UNL     1       6.150   0.513  -4.967  0.00  0.00    +0.171 HD
ENDROOT
BRANCH  17  19
ATOM     19  C   UNL     1       4.057   1.040  -2.531  0.00  0.00    +0.014 A 
ATOM     20  C   UNL     1       3.098   1.189  -3.515  0.00  0.00    +0.008 A 
ATOM     21  C   UNL     1       2.422   2.388  -3.646  0.00  0.00    +0.001 A 
ATOM     22  C   UNL     1       2.704   3.438  -2.792  0.00  0.00    +0.003 A 
ATOM     23  C   UNL     1       3.662   3.291  -1.807  0.00  0.00    +0.039 A 
ATOM     24  C   UNL     1       4.337   2.089  -1.673  0.00  0.00    +0.129 A 
ATOM     25  F   UNL     1       5.270   1.942  -0.707  0.00  0.00    -0.205 F 
ENDBRANCH  17  19
BRANCH   1  29
ATOM     26  C   UNL     1      -0.037   1.363  -0.016  0.00  0.00    +0.000 A 
ATOM     27  C   UNL     1      -0.001   0.014  -0.316  0.00  0.00    +0.000 A 
ATOM     28  C   UNL     1       1.206  -0.659  -0.326  0.00  0.00    +0.007 A 
ATOM     29  C   UNL     1       2.377   0.016  -0.038  0.00  0.00    -0.003 A 
ATOM     30  C   UNL     1       2.341   1.365   0.261  0.00  0.00    +0.007 A 
ATOM     31  C   UNL     1       1.134   2.039   0.273  0.00  0.00    +0.000 A 
ENDBRANCH   1  29
TORSDOF 2
