REMARK  Name = ZINC06149435
REMARK  13 active torsions:
REMARK  status: ('A' for Active; 'I' for Inactive)
REMARK    1  A    between atoms: C_1  and  C_2
REMARK    2  A    between atoms: C_2  and  C_3
REMARK    3  A    between atoms: C_3  and  C_4
REMARK    4  A    between atoms: C_3  and  C_5
REMARK    5  A    between atoms: C_3  and  N_6
REMARK    6  A    between atoms: C_7  and  C_11
REMARK    7  A    between atoms: C_11  and  C_13
REMARK    8  A    between atoms: C_11  and  N_72
REMARK    9  A    between atoms: C_17  and  C_25
REMARK   10  A    between atoms: C_26  and  C_27
REMARK   11  A    between atoms: C_26  and  N_72
REMARK   12  A    between atoms: C_33  and  C_34
REMARK   13  A    between atoms: C_33  and  N_72
REMARK                            x       y       z     vdW  Elec       q    Type
REMARK                         _______ _______ _______ _____ _____    ______ ____
ROOT
ATOM      1  C   UNL     1       1.698  -3.942  -1.767  0.00  0.00    +0.040 C 
ENDROOT
BRANCH   1   2
ATOM      2  C   UNL     1       1.575  -4.215  -3.244  0.00  0.00    +0.011 A 
ATOM      3  C   UNL     1       1.113  -5.415  -3.673  0.00  0.00    +0.017 A 
ATOM      4  C   UNL     1       1.006  -5.649  -5.114  0.00  0.00    -0.001 A 
ATOM      5  C   UNL     1       0.535  -6.867  -5.617  0.00  0.00    +0.013 A 
ATOM      6  C   UNL     1       0.447  -7.053  -6.967  0.00  0.00    -0.050 A 
ATOM      7  C   UNL     1       0.820  -6.045  -7.846  0.00  0.00    +0.005 A 
ATOM      8  C   UNL     1       1.288  -4.838  -7.373  0.00  0.00    +0.026 A 
ATOM      9  C   UNL     1       1.385  -4.625  -6.002  0.00  0.00    +0.049 A 
ATOM     10  N   UNL     1       1.848  -3.426  -5.502  0.00  0.00    -0.322 N 
ATOM     11  H   UNL     1       2.121  -2.701  -6.133  0.00  0.00    +0.169 HD
ATOM     12  C   UNL     1       1.938  -3.219  -4.176  0.00  0.00    +0.251 A 
ATOM     13  O   UNL     1       2.347  -2.145  -3.769  0.00  0.00    -0.268 OA
ATOM     14  C   UNL     1      -0.060  -8.365  -7.508  0.00  0.00    +0.044 C 
ENDBRANCH   1   2
BRANCH   1  16
ATOM     15  N   UNL     1       3.865  -4.643  -0.619  0.00  0.00    -0.225 N 
ATOM     16  C   UNL     1       3.153  -3.808  -1.400  0.00  0.00    +0.143 A 
ATOM     17  N   UNL     1       3.974  -2.861  -1.783  0.00  0.00    -0.115 NA
ATOM     18  N   UNL     1       5.127  -3.096  -1.259  0.00  0.00    -0.023 NA
ATOM     19  N   UNL     1       5.065  -4.174  -0.557  0.00  0.00    -0.043 NA
BRANCH  15  20
ATOM     20  C   UNL     1       3.369  -5.855   0.037  0.00  0.00    +0.061 C 
ATOM     21  C   UNL     1       2.290  -5.479   1.054  0.00  0.00    +0.036 C 
ATOM     22  C   UNL     1       2.775  -6.797  -1.013  0.00  0.00    +0.036 C 
BRANCH  20  24
ATOM     23  C   UNL     1       4.007  -7.822   1.440  0.00  0.00    +0.006 C 
ATOM     24  C   UNL     1       4.525  -6.555   0.754  0.00  0.00    +0.026 C 
ENDBRANCH  20  24
ENDBRANCH  15  20
ENDBRANCH   1  16
BRANCH   1  25
ATOM     25  N   UNL     1       1.001  -2.675  -1.460  0.00  0.00    +0.395 N 
ATOM     26  H   UNL     1       1.253  -1.976  -2.168  0.00  0.00    -0.079 HD
BRANCH  25  27
ATOM     27  C   UNL     1      -0.462  -2.883  -1.490  0.00  0.00    -0.041 C 
BRANCH  27  28
ATOM     28  C   UNL     1      -0.908  -2.976  -2.926  0.00  0.00    -0.064 A 
ATOM     29  C   UNL     1      -0.906  -1.848  -3.725  0.00  0.00    +0.002 A 
ATOM     30  C   UNL     1      -1.311  -1.934  -5.044  0.00  0.00    +0.000 A 
ATOM     31  C   UNL     1      -1.727  -3.147  -5.561  0.00  0.00    +0.000 A 
ATOM     32  C   UNL     1      -1.734  -4.274  -4.761  0.00  0.00    +0.000 A 
ATOM     33  C   UNL     1      -1.325  -4.188  -3.443  0.00  0.00    +0.002 A 
ENDBRANCH  27  28
ENDBRANCH  25  27
BRANCH  25  34
ATOM     34  C   UNL     1       1.414  -2.181  -0.130  0.00  0.00    -0.041 C 
BRANCH  34  35
ATOM     35  C   UNL     1       0.866  -0.791   0.065  0.00  0.00    -0.064 A 
ATOM     36  C   UNL     1      -0.374  -0.613   0.650  0.00  0.00    +0.004 A 
ATOM     37  C   UNL     1      -0.877   0.661   0.830  0.00  0.00    +0.038 A 
ATOM     38  C   UNL     1      -0.140   1.760   0.422  0.00  0.00    +0.123 A 
ATOM     39  C   UNL     1       1.101   1.581  -0.165  0.00  0.00    +0.038 A 
ATOM     40  C   UNL     1       1.603   0.306  -0.343  0.00  0.00    +0.004 A 
ATOM     41  F   UNL     1      -0.631   3.007   0.597  0.00  0.00    -0.205 F 
ENDBRANCH  34  35
ENDBRANCH  25  34
ENDBRANCH   1  25
TORSDOF 9
