REMARK  Name = ZINC56282076
REMARK  6 active torsions:
REMARK  status: ('A' for Active; 'I' for Inactive)
REMARK    1  A    between atoms: C_1  and  C_2
REMARK    2  A    between atoms: C_2  and  C_4
REMARK    3  A    between atoms: C_2  and  N_11
REMARK    4  A    between atoms: N_11  and  C_12
REMARK    5  A    between atoms: C_13  and  C_15
REMARK    6  A    between atoms: C_19  and  N_25
REMARK                            x       y       z     vdW  Elec       q    Type
REMARK                         _______ _______ _______ _____ _____    ______ ____
ROOT
ATOM      1  N   UNL     1       0.304  -0.562   1.298  0.00  0.00    -0.293 N 
ATOM      2  C   UNL     1       1.634  -0.347   1.873  0.00  0.00    +0.133 C 
ATOM      3  C   UNL     1      -0.599  -1.319   1.952  0.00  0.00    +0.263 C 
ATOM      4  O   UNL     1      -0.279  -1.905   2.969  0.00  0.00    -0.268 OA
ENDROOT
BRANCH   3   5
ATOM      5  C   UNL     1      -1.970  -1.438   1.436  0.00  0.00    +0.103 A 
ATOM      6  C   UNL     1      -2.993  -2.082   2.058  0.00  0.00    +0.041 A 
ATOM      7  C   UNL     1      -4.139  -1.965   1.235  0.00  0.00    +0.003 A 
ATOM      8  C   UNL     1      -5.459  -2.419   1.354  0.00  0.00    +0.042 A 
ATOM      9  C   UNL     1      -6.363  -2.143   0.370  0.00  0.00    +0.127 A 
ATOM     10  C   UNL     1      -5.988  -1.415  -0.752  0.00  0.00    +0.035 A 
ATOM     11  C   UNL     1      -4.697  -0.958  -0.892  0.00  0.00    +0.028 A 
ATOM     12  C   UNL     1      -3.756  -1.226   0.098  0.00  0.00    +0.047 A 
ATOM     13  N   UNL     1      -2.426  -0.909   0.244  0.00  0.00    -0.351 N 
ATOM     14  H   UNL     1      -1.895  -0.398  -0.387  0.00  0.00    +0.166 HD
BRANCH   9  15
ATOM     15  N   UNL     1      -7.757  -2.624   0.499  0.00  0.00    +0.056 N 
ATOM     16  O   UNL     1      -8.090  -3.258   1.473  0.00  0.00    -0.126 OA
ATOM     17  O   UNL     1      -8.563  -2.382  -0.369  0.00  0.00    -0.126 OA
ENDBRANCH   9  15
ENDBRANCH   3   5
BRANCH   1  19
ATOM     18  C   UNL     1       1.068   1.005  -0.417  0.00  0.00    +0.033 C 
ATOM     19  C   UNL     1      -0.044   0.046   0.012  0.00  0.00    +0.103 C 
BRANCH  19  20
ATOM     20  C   UNL     1      -0.205  -1.033  -1.027  0.00  0.00    -0.027 A 
ATOM     21  C   UNL     1      -0.963  -0.795  -2.159  0.00  0.00    +0.008 A 
ATOM     22  C   UNL     1      -1.111  -1.784  -3.113  0.00  0.00    +0.038 A 
ATOM     23  C   UNL     1      -0.500  -3.014  -2.935  0.00  0.00    +0.123 A 
ATOM     24  C   UNL     1       0.259  -3.251  -1.801  0.00  0.00    +0.038 A 
ATOM     25  C   UNL     1       0.410  -2.259  -0.851  0.00  0.00    +0.008 A 
ATOM     26  F   UNL     1      -0.644  -3.982  -3.866  0.00  0.00    -0.205 F 
ENDBRANCH  19  20
ENDBRANCH   1  19
TORSDOF 4
