REMARK  Name = ZINC08419177
REMARK  8 active torsions:
REMARK  status: ('A' for Active; 'I' for Inactive)
REMARK    1  A    between atoms: C_1  and  C_2
REMARK    2  A    between atoms: C_7  and  N_12
REMARK    3  A    between atoms: C_9  and  C_11
REMARK    4  A    between atoms: N_12  and  C_13
REMARK    5  A    between atoms: C_13  and  N_15
REMARK    6  A    between atoms: N_15  and  N_16
REMARK    7  A    between atoms: C_17  and  C_19
REMARK    8  A    between atoms: C_19  and  C_20
REMARK                            x       y       z     vdW  Elec       q    Type
REMARK                         _______ _______ _______ _____ _____    ______ ____
ROOT
ATOM      1  N   UNL     1      -3.678   6.751  -1.592  0.00  0.00    -0.235 N 
ATOM      2  C   UNL     1      -3.232   5.501  -1.357  0.00  0.00    +0.233 C 
ATOM      3  O   UNL     1      -2.890   4.795  -2.282  0.00  0.00    -0.274 OA
ATOM      4  H   UNL     1      -3.952   7.316  -0.853  0.00  0.00    +0.173 HD
ENDROOT
BRANCH   1   5
ATOM      5  N   UNL     1      -3.745   7.235  -2.905  0.00  0.00    -0.246 N 
ATOM      6  H   UNL     1      -3.471   6.670  -3.645  0.00  0.00    +0.172 HD
BRANCH   5   7
ATOM      7  C   UNL     1      -4.191   8.485  -3.141  0.00  0.00    +0.147 C 
ATOM      8  S   UNL     1      -4.273   9.077  -4.745  0.00  0.00    -0.017 S 
BRANCH   7   9
ATOM      9  N   UNL     1      -4.571   9.270  -2.113  0.00  0.00    -0.322 N 
ATOM     10  H   UNL     1      -4.524   8.935  -1.204  0.00  0.00    +0.148 HD
BRANCH   9  16
ATOM     11  C   UNL     1      -7.257  12.511  -2.806  0.00  0.00    +0.008 C 
ATOM     12  C   UNL     1      -6.476  12.487  -1.491  0.00  0.00    -0.009 C 
ATOM     13  C   UNL     1      -5.285  13.443  -1.588  0.00  0.00    +0.003 C 
ATOM     14  C   UNL     1      -4.370  13.003  -2.733  0.00  0.00    +0.002 C 
ATOM     15  C   UNL     1      -3.865  11.584  -2.466  0.00  0.00    +0.022 C 
ATOM     16  C   UNL     1      -5.055  10.629  -2.369  0.00  0.00    +0.075 C 
ATOM     17  C   UNL     1      -5.970  11.068  -1.224  0.00  0.00    +0.009 C 
ATOM     18  C   UNL     1      -7.161  10.112  -1.127  0.00  0.00    +0.009 C 
ENDBRANCH   9  16
ENDBRANCH   7   9
ENDBRANCH   5   7
ENDBRANCH   1   5
BRANCH   2  19
ATOM     19  C   UNL     1      -3.160   4.981   0.056  0.00  0.00    +0.134 C 
BRANCH  19  20
ATOM     20  C   UNL     1      -2.633   3.569   0.044  0.00  0.00    -0.014 A 
ATOM     21  C   UNL     1      -3.365   2.443   0.031  0.00  0.00    +0.087 A 
ATOM     22  N   UNL     1      -2.541   1.351   0.021  0.00  0.00    -0.360 N 
ATOM     23  H   UNL     1      -2.839   0.428   0.018  0.00  0.00    +0.165 HD
ATOM     24  C   UNL     1      -1.225   1.757   0.017  0.00  0.00    +0.047 A 
ATOM     25  C   UNL     1      -1.225   3.164   0.029  0.00  0.00    +0.003 A 
ATOM     26  C   UNL     1      -0.015   3.861   0.021  0.00  0.00    +0.010 A 
ATOM     27  C   UNL     1       1.165   3.171   0.007  0.00  0.00    +0.001 A 
ATOM     28  C   UNL     1       1.170   1.783   0.001  0.00  0.00    +0.002 A 
ATOM     29  C   UNL     1      -0.013   1.076   0.008  0.00  0.00    +0.026 A 
ENDBRANCH  19  20
ENDBRANCH   2  19
TORSDOF 6
