REMARK  Name = ZINC19278118
REMARK  4 active torsions:
REMARK  status: ('A' for Active; 'I' for Inactive)
REMARK    1  A    between atoms: C_1  and  C_2
REMARK    2  A    between atoms: C_8  and  N_10
REMARK    3  A    between atoms: C_11  and  C_13
REMARK    4  A    between atoms: C_15  and  N_20
REMARK                            x       y       z     vdW  Elec       q    Type
REMARK                         _______ _______ _______ _____ _____    ______ ____
ROOT
ATOM      1  N   UNL     1      -0.698   1.558   1.213  0.00  0.00    -0.308 N 
ATOM      2  C   UNL     1      -0.575   0.877   2.369  0.00  0.00    +0.246 C 
ATOM      3  O   UNL     1       0.104  -0.130   2.412  0.00  0.00    -0.270 OA
ATOM      4  H   UNL     1      -1.314   2.469   1.175  0.00  0.00    +0.149 HD
ENDROOT
BRANCH   1  11
ATOM      5  C   UNL     1      -2.188   1.063  -1.221  0.00  0.00    +0.009 C 
ATOM      6  C   UNL     1      -0.753   1.593  -1.232  0.00  0.00    +0.006 C 
ATOM      7  C   UNL     1      -0.773   3.123  -1.223  0.00  0.00    +0.005 C 
ATOM      8  C   UNL     1       0.662   3.652  -1.234  0.00  0.00    +0.000 C 
ATOM      9  C   UNL     1       1.402   3.145   0.006  0.00  0.00    +0.002 C 
ATOM     10  C   UNL     1       1.423   1.615  -0.003  0.00  0.00    +0.022 C 
ATOM     11  C   UNL     1      -0.013   1.086   0.008  0.00  0.00    +0.076 C 
ENDBRANCH   1  11
BRANCH   2  12
ATOM     12  C   UNL     1      -1.267   1.353   3.585  0.00  0.00    +0.057 A 
ATOM     13  C   UNL     1      -2.044   2.512   3.541  0.00  0.00    +0.047 A 
ATOM     14  C   UNL     1      -2.691   2.949   4.678  0.00  0.00    +0.127 A 
ATOM     15  C   UNL     1      -2.563   2.247   5.865  0.00  0.00    +0.034 A 
ATOM     16  C   UNL     1      -1.791   1.101   5.918  0.00  0.00    +0.023 A 
ATOM     17  C   UNL     1      -1.142   0.649   4.785  0.00  0.00    +0.053 A 
ATOM     18 CL   UNL     1      -0.172  -0.789   4.854  0.00  0.00    -0.083 Cl
BRANCH  14  19
ATOM     19  N   UNL     1      -3.519   4.175   4.631  0.00  0.00    +0.056 N 
ATOM     20  O   UNL     1      -4.088   4.564   5.636  0.00  0.00    -0.126 OA
ATOM     21  O   UNL     1      -3.633   4.793   3.588  0.00  0.00    -0.126 OA
ENDBRANCH  14  19
ENDBRANCH   2  12
TORSDOF 3
