REMARK  Name = ZINC23300112
REMARK  8 active torsions:
REMARK  status: ('A' for Active; 'I' for Inactive)
REMARK    1  A    between atoms: C_1  and  C_2
REMARK    2  A    between atoms: C_2  and  N_3
REMARK    3  A    between atoms: N_3  and  C_4
REMARK    4  A    between atoms: C_11  and  C_13
REMARK    5  A    between atoms: C_13  and  N_14
REMARK    6  A    between atoms: C_19  and  C_26
REMARK    7  A    between atoms: C_22  and  C_24
REMARK    8  A    between atoms: C_22  and  C_25
REMARK                            x       y       z     vdW  Elec       q    Type
REMARK                         _______ _______ _______ _____ _____    ______ ____
ROOT
ATOM      1  N   UNL     1      -1.336   2.513   0.003  0.00  0.00    -0.215 N 
ATOM      2  C   UNL     1      -0.094   1.981   0.032  0.00  0.00    +0.247 C 
ATOM      3  O   UNL     1       0.181   0.801   0.073  0.00  0.00    -0.273 OA
ATOM      4  C   UNL     1       0.849   3.159  -0.003  0.00  0.00    +0.113 C 
ATOM      5  C   UNL     1       1.903   2.973  -1.085  0.00  0.00    +0.038 C 
ATOM      6  C   UNL     1       2.923   1.922  -0.646  0.00  0.00    -0.011 C 
ATOM      7  C   UNL     1       3.623   2.415   0.618  0.00  0.00    +0.009 C 
ATOM      8  C   UNL     1       2.627   2.597   1.758  0.00  0.00    -0.032 C 
ATOM      9  C   UNL     1       1.441   3.459   1.358  0.00  0.00    +0.041 C 
ATOM     10  C   UNL     1       3.361   3.301   2.918  0.00  0.00    +0.011 C 
ATOM     11  C   UNL     1       2.158   1.233   2.270  0.00  0.00    +0.011 C 
ATOM     12  C   UNL     1       3.961   1.729  -1.758  0.00  0.00    +0.007 C 
ATOM     13  N   UNL     1      -0.039   4.279  -0.392  0.00  0.00    -0.285 N 
ATOM     14  C   UNL     1      -1.297   3.825  -0.256  0.00  0.00    +0.310 C 
ATOM     15  O   UNL     1      -2.287   4.519  -0.379  0.00  0.00    -0.252 OA
ATOM     16  H   UNL     1       0.394   5.240  -0.708  0.00  0.00    +0.151 HD
ENDROOT
BRANCH   1  17
ATOM     17  C   UNL     1      -2.565   1.751   0.229  0.00  0.00    +0.214 C 
BRANCH  17  19
ATOM     18  N   UNL     1      -4.000   1.120   2.143  0.00  0.00    -0.270 N 
ATOM     19  C   UNL     1      -2.902   1.763   1.698  0.00  0.00    +0.238 C 
ATOM     20  O   UNL     1      -2.185   2.351   2.479  0.00  0.00    -0.274 OA
BRANCH  18  21
ATOM     21  C   UNL     1      -4.258   1.046   3.517  0.00  0.00    +0.036 A 
ATOM     22  C   UNL     1      -3.431   0.294   4.340  0.00  0.00    +0.026 A 
ATOM     23  C   UNL     1      -3.685   0.226   5.696  0.00  0.00    +0.040 A 
ATOM     24  C   UNL     1      -4.770   0.898   6.233  0.00  0.00    +0.124 A 
ATOM     25  C   UNL     1      -5.599   1.644   5.412  0.00  0.00    +0.040 A 
ATOM     26  C   UNL     1      -5.346   1.719   4.057  0.00  0.00    +0.026 A 
ATOM     27  F   UNL     1      -5.019   0.827   7.559  0.00  0.00    -0.205 F 
ENDBRANCH  18  21
BRANCH  18  29
ATOM     28  C   UNL     1      -4.494  -0.946   0.931  0.00  0.00    +0.025 C 
ATOM     29  C   UNL     1      -4.922   0.500   1.189  0.00  0.00    +0.110 C 
ENDBRANCH  18  29
ENDBRANCH  17  19
ENDBRANCH   1  17
TORSDOF 4
