REMARK  Name = ZINC65249282
REMARK  4 active torsions:
REMARK  status: ('A' for Active; 'I' for Inactive)
REMARK    1  A    between atoms: C_1  and  C_2
REMARK    2  A    between atoms: C_5  and  C_8
REMARK    3  A    between atoms: C_8  and  N_9
REMARK    4  A    between atoms: N_23  and  C_26
REMARK                            x       y       z     vdW  Elec       q    Type
REMARK                         _______ _______ _______ _____ _____    ______ ____
ROOT
ATOM      1  N   UNL     1       1.447  -4.746  -0.032  0.00  0.00    -0.295 N 
ATOM      2  C   UNL     1       1.710  -6.067  -0.040  0.00  0.00    +0.303 C 
ATOM      3  O   UNL     1       0.796  -6.870  -0.040  0.00  0.00    -0.253 OA
ATOM      4  N   UNL     1       2.986  -6.500  -0.050  0.00  0.00    -0.284 N 
ATOM      5  C   UNL     1       4.182  -5.643  -0.045  0.00  0.00    +0.111 C 
ATOM      6  C   UNL     1       5.416  -6.573  -0.035  0.00  0.00    +0.041 C 
ATOM      7  C   UNL     1       4.842  -7.895   0.502  0.00  0.00    +0.091 C 
ATOM      8  C   UNL     1       3.415  -7.914  -0.060  0.00  0.00    +0.130 C 
ATOM      9  C   UNL     1       5.644  -9.079   0.057  0.00  0.00    -0.009 A 
ATOM     10  C   UNL     1       5.996  -9.583  -1.176  0.00  0.00    +0.006 A 
ATOM     11  C   UNL     1       6.769 -10.727  -1.262  0.00  0.00    +0.000 A 
ATOM     12  C   UNL     1       7.189 -11.363  -0.107  0.00  0.00    +0.002 A 
ATOM     13  C   UNL     1       6.840 -10.862   1.129  0.00  0.00    +0.024 A 
ATOM     14  C   UNL     1       6.061  -9.712   1.226  0.00  0.00    +0.040 A 
ATOM     15  N   UNL     1       5.582  -9.024   2.344  0.00  0.00    -0.273 N 
ATOM     16  C   UNL     1       4.854  -7.942   2.002  0.00  0.00    +0.232 C 
ATOM     17  O   UNL     1       4.315  -7.161   2.757  0.00  0.00    -0.274 OA
ATOM     18  C   UNL     1       5.842  -9.431   3.727  0.00  0.00    +0.138 C 
ATOM     19  H   UNL     1       2.176  -4.106  -0.032  0.00  0.00    +0.151 HD
ENDROOT
BRANCH   1  20
ATOM     20  C   UNL     1       0.059  -4.275  -0.021  0.00  0.00    +0.141 C 
BRANCH  20  25
ATOM     21  C   UNL     1      -0.018   1.503   0.010  0.00  0.00    +0.044 C 
ATOM     22  C   UNL     1       0.002  -0.004   0.002  0.00  0.00    -0.050 A 
ATOM     23  C   UNL     1       0.006  -0.689  -1.199  0.00  0.00    +0.003 A 
ATOM     24  C   UNL     1       0.025  -2.071  -1.206  0.00  0.00    +0.005 A 
ATOM     25  C   UNL     1       0.040  -2.768  -0.013  0.00  0.00    -0.030 A 
ATOM     26  C   UNL     1       0.037  -2.084   1.188  0.00  0.00    +0.005 A 
ATOM     27  C   UNL     1       0.023  -0.702   1.195  0.00  0.00    +0.003 A 
ENDBRANCH  20  25
ENDBRANCH   1  20
TORSDOF 2
