REMARK  Name = ZINC56719745
REMARK  5 active torsions:
REMARK  status: ('A' for Active; 'I' for Inactive)
REMARK    1  A    between atoms: C_1  and  C_2
REMARK    2  A    between atoms: C_2  and  C_4
REMARK    3  A    between atoms: C_2  and  N_12
REMARK    4  A    between atoms: N_12  and  C_13
REMARK    5  A    between atoms: N_16  and  C_17
REMARK                            x       y       z     vdW  Elec       q    Type
REMARK                         _______ _______ _______ _____ _____    ______ ____
ROOT
ATOM      1  N   UNL     1      -1.418  -0.480   0.194  0.00  0.00    -0.282 N 
ATOM      2  C   UNL     1      -2.301   0.053   1.235  0.00  0.00    +0.134 C 
ATOM      3  C   UNL     1      -1.879  -1.404  -0.672  0.00  0.00    +0.307 C 
ATOM      4  O   UNL     1      -1.147  -1.847  -1.536  0.00  0.00    -0.252 OA
ATOM      5  N   UNL     1      -3.153  -1.836  -0.582  0.00  0.00    -0.266 N 
ATOM      6  H   UNL     1      -3.717  -1.535   0.148  0.00  0.00    +0.156 HD
ENDROOT
BRANCH   5   7
ATOM      7  C   UNL     1      -3.662  -2.721  -1.542  0.00  0.00    +0.080 A 
ATOM      8  C   UNL     1      -2.834  -3.677  -2.114  0.00  0.00    +0.027 A 
ATOM      9  C   UNL     1      -3.336  -4.549  -3.061  0.00  0.00    +0.006 A 
ATOM     10  C   UNL     1      -4.663  -4.472  -3.442  0.00  0.00    +0.049 A 
ATOM     11  C   UNL     1      -5.498  -3.519  -2.876  0.00  0.00    +0.164 A 
ATOM     12  C   UNL     1      -5.001  -2.646  -1.918  0.00  0.00    +0.183 A 
ATOM     13  O   UNL     1      -5.806  -1.712  -1.340  0.00  0.00    -0.483 OA
ATOM     14  C   UNL     1      -7.038  -1.423  -2.009  0.00  0.00    +0.270 C 
ATOM     15  C   UNL     1      -7.699  -2.753  -2.396  0.00  0.00    +0.270 C 
ATOM     16  O   UNL     1      -6.800  -3.457  -3.266  0.00  0.00    -0.485 OA
ENDBRANCH   5   7
BRANCH   1  18
ATOM     17  C   UNL     1      -0.021   1.514  -0.034  0.00  0.00    +0.033 C 
ATOM     18  C   UNL     1      -0.034  -0.010   0.096  0.00  0.00    +0.107 C 
BRANCH  18  19
ATOM     19  C   UNL     1       0.723  -0.416   1.335  0.00  0.00    +0.011 A 
ATOM     20  C   UNL     1       1.004   0.522   2.310  0.00  0.00    +0.046 A 
ATOM     21  C   UNL     1       1.700   0.149   3.448  0.00  0.00    +0.124 A 
ATOM     22  C   UNL     1       2.113  -1.162   3.608  0.00  0.00    +0.041 A 
ATOM     23  C   UNL     1       1.832  -2.099   2.633  0.00  0.00    +0.041 A 
ATOM     24  C   UNL     1       1.132  -1.728   1.497  0.00  0.00    +0.128 A 
ATOM     25  F   UNL     1       0.852  -2.646   0.546  0.00  0.00    -0.205 F 
ATOM     26  F   UNL     1       1.975   1.066   4.402  0.00  0.00    -0.205 F 
ENDBRANCH  18  19
ENDBRANCH   1  18
TORSDOF 3
