REMARK  Name = ZINC04398498
REMARK  7 active torsions:
REMARK  status: ('A' for Active; 'I' for Inactive)
REMARK    1  A    between atoms: C_4  and  N_7
REMARK    2  A    between atoms: C_8  and  C_26
REMARK    3  A    between atoms: N_9  and  P_10
REMARK    4  A    between atoms: P_10  and  N_12
REMARK    5  A    between atoms: P_10  and  N_19
REMARK    6  A    between atoms: N_12  and  C_13
REMARK    7  A    between atoms: N_19  and  C_20
REMARK                            x       y       z     vdW  Elec       q    Type
REMARK                         _______ _______ _______ _____ _____    ______ ____
ROOT
ATOM      1  P   UNL     1       1.269  -1.609   0.744  0.00  0.00    +0.170 P 
ATOM      2  S   UNL     1       1.564   0.230   0.710  0.00  0.00    -0.006 S 
ENDROOT
BRANCH   1   5
ATOM      3  N   UNL     1       4.828  -2.974   0.630  0.00  0.00    -0.228 NA
ATOM      4  C   UNL     1       3.762  -2.277   0.360  0.00  0.00    +0.206 C 
ATOM      5  N   UNL     1       2.657  -2.378   1.160  0.00  0.00    -0.272 N 
ATOM      6  H   UNL     1       2.695  -2.904   1.974  0.00  0.00    +0.155 HD
BRANCH   3  10
ATOM      7  C   UNL     1       5.043  -5.152   4.145  0.00  0.00    +0.000 A 
ATOM      8  C   UNL     1       5.191  -5.792   2.928  0.00  0.00    +0.002 A 
ATOM      9  C   UNL     1       5.120  -5.073   1.753  0.00  0.00    +0.028 A 
ATOM     10  C   UNL     1       4.899  -3.696   1.794  0.00  0.00    +0.066 A 
ATOM     11  C   UNL     1       4.750  -3.055   3.025  0.00  0.00    +0.028 A 
ATOM     12  C   UNL     1       4.824  -3.787   4.193  0.00  0.00    +0.002 A 
ENDBRANCH   3  10
BRANCH   4  13
ATOM     13  C   UNL     1       3.745  -1.358  -0.835  0.00  0.00    +0.448 C 
ATOM     14  F   UNL     1       4.941  -1.497  -1.547  0.00  0.00    -0.163 F 
ATOM     15  F   UNL     1       2.667  -1.690  -1.663  0.00  0.00    -0.163 F 
ATOM     16  F   UNL     1       3.611  -0.034  -0.403  0.00  0.00    -0.163 F 
ENDBRANCH   4  13
ENDBRANCH   1   5
BRANCH   1  17
ATOM     17  N   UNL     1       0.789  -2.114  -0.741  0.00  0.00    -0.291 N 
ATOM     18  H   UNL     1       0.653  -1.468  -1.452  0.00  0.00    +0.154 HD
BRANCH  17  19
ATOM     19  C   UNL     1       0.577  -3.473  -0.982  0.00  0.00    +0.033 A 
ATOM     20  C   UNL     1       0.766  -4.398   0.037  0.00  0.00    +0.023 A 
ATOM     21  C   UNL     1       0.554  -5.742  -0.205  0.00  0.00    +0.002 A 
ATOM     22  C   UNL     1       0.155  -6.166  -1.459  0.00  0.00    +0.000 A 
ATOM     23  C   UNL     1      -0.034  -5.247  -2.475  0.00  0.00    +0.002 A 
ATOM     24  C   UNL     1       0.170  -3.902  -2.239  0.00  0.00    +0.023 A 
ENDBRANCH  17  19
ENDBRANCH   1  17
BRANCH   1  25
ATOM     25  N   UNL     1       0.102  -1.956   1.843  0.00  0.00    -0.291 N 
ATOM     26  H   UNL     1       0.305  -2.523   2.603  0.00  0.00    +0.154 HD
BRANCH  25  27
ATOM     27  C   UNL     1      -1.184  -1.434   1.684  0.00  0.00    +0.033 A 
ATOM     28  C   UNL     1      -1.497  -0.688   0.555  0.00  0.00    +0.023 A 
ATOM     29  C   UNL     1      -2.770  -0.174   0.401  0.00  0.00    +0.002 A 
ATOM     30  C   UNL     1      -3.731  -0.401   1.368  0.00  0.00    +0.000 A 
ATOM     31  C   UNL     1      -3.422  -1.144   2.493  0.00  0.00    +0.002 A 
ATOM     32  C   UNL     1      -2.153  -1.665   2.651  0.00  0.00    +0.023 A 
ENDBRANCH  25  27
ENDBRANCH   1  25
TORSDOF 7
