REMARK  Name = ZINC12489986
REMARK  12 active torsions:
REMARK  status: ('A' for Active; 'I' for Inactive)
REMARK    1  A    between atoms: C_1  and  C_2
REMARK    2  A    between atoms: C_2  and  O_3
REMARK    3  A    between atoms: O_3  and  C_4
REMARK    4  A    between atoms: C_8  and  N_10
REMARK    5  A    between atoms: N_10  and  C_11
REMARK    6  A    between atoms: C_11  and  C_13
REMARK    7  A    between atoms: C_11  and  C_19
REMARK    8  A    between atoms: N_21  and  C_22
REMARK    9  A    between atoms: C_22  and  C_23
REMARK   10  A    between atoms: C_29  and  C_31
REMARK   11  A    between atoms: C_31  and  N_32
REMARK   12  A    between atoms: C_33  and  C_35
REMARK                            x       y       z     vdW  Elec       q    Type
REMARK                         _______ _______ _______ _____ _____    ______ ____
ROOT
ATOM      1  N   UNL     1      -2.600   1.434   0.344  0.00  0.00    -0.254 N 
ATOM      2  C   UNL     1      -3.679   1.651  -0.434  0.00  0.00    +0.238 C 
ATOM      3  O   UNL     1      -3.535   1.979  -1.593  0.00  0.00    -0.274 OA
ENDROOT
BRANCH   1   8
ATOM      4  C   UNL     1      -3.358  -0.782   3.182  0.00  0.00    +0.122 A 
ATOM      5  C   UNL     1      -3.088   0.061   4.250  0.00  0.00    +0.046 A 
ATOM      6  C   UNL     1      -2.658   1.354   4.021  0.00  0.00    +0.005 A 
ATOM      7  C   UNL     1      -2.496   1.812   2.727  0.00  0.00    +0.024 A 
ATOM      8  C   UNL     1      -2.764   0.971   1.654  0.00  0.00    +0.041 A 
ATOM      9  C   UNL     1      -3.200  -0.326   1.883  0.00  0.00    +0.069 A 
BRANCH   4  10
ATOM     10  O   UNL     1      -3.781  -2.054   3.410  0.00  0.00    -0.492 OA
BRANCH  10  12
ATOM     11  C   UNL     1      -4.407  -3.906   4.830  0.00  0.00    +0.048 C 
ATOM     12  C   UNL     1      -3.926  -2.455   4.773  0.00  0.00    +0.225 C 
ENDBRANCH  10  12
ENDBRANCH   4  10
ENDBRANCH   1   8
BRANCH   1  13
ATOM     13  C   UNL     1      -1.256   1.683  -0.182  0.00  0.00    +0.197 C 
BRANCH  13  14
ATOM     14  C   UNL     1      -0.246   1.530   0.926  0.00  0.00    -0.018 A 
ATOM     15  C   UNL     1      -0.180   0.350   1.642  0.00  0.00    +0.006 A 
ATOM     16  C   UNL     1       0.749   0.208   2.656  0.00  0.00    +0.000 A 
ATOM     17  C   UNL     1       1.605   1.250   2.960  0.00  0.00    +0.000 A 
ATOM     18  C   UNL     1       1.535   2.432   2.247  0.00  0.00    +0.000 A 
ATOM     19  C   UNL     1       0.609   2.572   1.230  0.00  0.00    +0.006 A 
ENDBRANCH  13  14
BRANCH  13  20
ATOM     20  C   UNL     1      -0.954   0.693  -1.277  0.00  0.00    +0.239 C 
ATOM     21  O   UNL     1      -1.780  -0.139  -1.588  0.00  0.00    -0.273 OA
ATOM     22  N   UNL     1       0.233   0.736  -1.915  0.00  0.00    -0.311 N 
ATOM     23  H   UNL     1       0.894   1.401  -1.667  0.00  0.00    +0.149 HD
BRANCH  22  24
ATOM     24  C   UNL     1       0.524  -0.223  -2.984  0.00  0.00    +0.135 C 
BRANCH  24  25
ATOM     25  C   UNL     1       1.926   0.041  -3.537  0.00  0.00    +0.135 C 
ATOM     26  C   UNL     1       2.243  -0.964  -4.663  0.00  0.00    +0.035 C 
ATOM     27  C   UNL     1       2.534  -0.073  -5.895  0.00  0.00    +0.031 C 
ATOM     28  C   UNL     1       2.885   1.286  -5.238  0.00  0.00    +0.160 C 
ATOM     29  O   UNL     1       1.986   1.357  -4.110  0.00  0.00    -0.375 OA
ENDBRANCH  24  25
ENDBRANCH  22  24
ENDBRANCH  13  20
ENDBRANCH   1  13
BRANCH   2  30
ATOM     30  C   UNL     1      -5.064   1.487   0.136  0.00  0.00    +0.201 C 
BRANCH  30  31
ATOM     31  N   UNL     1      -6.056   1.695  -0.923  0.00  0.00    -0.302 N 
ATOM     32  C   UNL     1      -7.371   1.597  -0.643  0.00  0.00    +0.251 C 
ATOM     33  O   UNL     1      -7.734   1.335   0.488  0.00  0.00    -0.270 OA
ATOM     34  H   UNL     1      -5.766   1.903  -1.825  0.00  0.00    +0.150 HD
BRANCH  32  35
ATOM     35  C   UNL     1      -8.363   1.805  -1.702  0.00  0.00    +0.074 A 
ATOM     36  C   UNL     1      -9.746   1.750  -1.627  0.00  0.00    +0.021 A 
ATOM     37  C   UNL     1     -10.445   1.989  -2.784  0.00  0.00    +0.008 A 
ATOM     38  C   UNL     1      -9.762   2.262  -3.927  0.00  0.00    +0.046 A 
ATOM     39  S   UNL     1      -8.105   2.202  -3.422  0.00  0.00    -0.092 S 
ENDBRANCH  32  35
ENDBRANCH  30  31
ENDBRANCH   2  30
TORSDOF 11
