REMARK  Name = ZINC64623248
REMARK  10 active torsions:
REMARK  status: ('A' for Active; 'I' for Inactive)
REMARK    1  A    between atoms: C_1  and  C_2
REMARK    2  A    between atoms: C_2  and  O_3
REMARK    3  A    between atoms: O_3  and  C_4
REMARK    4  A    between atoms: C_4  and  C_6
REMARK    5  A    between atoms: C_6  and  C_7
REMARK    6  A    between atoms: C_10  and  N_13
REMARK    7  A    between atoms: C_22  and  O_38
REMARK    8  A    between atoms: C_29  and  C_31
REMARK    9  A    between atoms: C_34  and  C_37
REMARK   10  A    between atoms: O_38  and  C_39
REMARK                            x       y       z     vdW  Elec       q    Type
REMARK                         _______ _______ _______ _____ _____    ______ ____
ROOT
ATOM      1  N   UNL     1      -2.853  -7.731   0.570  0.00  0.00    -0.269 N 
ATOM      2  C   UNL     1      -2.511  -8.582   1.557  0.00  0.00    +0.307 C 
ATOM      3  O   UNL     1      -2.346  -8.166   2.688  0.00  0.00    -0.252 OA
ATOM      4  N   UNL     1      -2.351  -9.893   1.291  0.00  0.00    -0.276 N 
ATOM      5  C   UNL     1      -2.410 -10.364  -0.097  0.00  0.00    +0.114 C 
ATOM      6  C   UNL     1      -1.097 -11.088  -0.449  0.00  0.00    +0.052 C 
ATOM      7  C   UNL     1      -0.786 -12.007   0.706  0.00  0.00    -0.035 C 
ATOM      8  C   UNL     1      -0.506 -13.303   0.746  0.00  0.00    +0.003 A 
ATOM      9  C   UNL     1      -0.288 -14.294  -0.319  0.00  0.00    +0.055 A 
ATOM     10  C   UNL     1      -0.033 -15.571   0.078  0.00  0.00    +0.121 A 
ATOM     11  C   UNL     1       0.029 -15.978   1.419  0.00  0.00    +0.047 A 
ATOM     12  C   UNL     1      -0.147 -15.147   2.478  0.00  0.00    +0.029 A 
ATOM     13  C   UNL     1      -0.421 -13.735   2.175  0.00  0.00    +0.043 A 
ATOM     14  N   UNL     1      -0.607 -12.724   2.969  0.00  0.00    -0.375 N 
ATOM     15  C   UNL     1      -0.770 -11.521   2.151  0.00  0.00    +0.131 C 
ATOM     16  C   UNL     1      -2.113 -10.836   2.395  0.00  0.00    +0.134 C 
ATOM     17  H   UNL     1      -3.059  -8.072  -0.315  0.00  0.00    +0.156 HD
ATOM     18  H   UNL     1      -0.634 -12.760   3.938  0.00  0.00    +0.160 HD
ENDROOT
BRANCH  16  19
ATOM     19  C   UNL     1      -3.209 -11.869   2.430  0.00  0.00    -0.025 A 
ATOM     20  C   UNL     1      -4.114 -11.883   3.475  0.00  0.00    +0.006 A 
ATOM     21  C   UNL     1      -5.119 -12.831   3.507  0.00  0.00    +0.004 A 
ATOM     22  C   UNL     1      -5.221 -13.764   2.493  0.00  0.00    -0.050 A 
ATOM     23  C   UNL     1      -4.318 -13.750   1.446  0.00  0.00    +0.004 A 
ATOM     24  C   UNL     1      -3.314 -12.800   1.413  0.00  0.00    +0.006 A 
ATOM     25  C   UNL     1      -6.317 -14.798   2.527  0.00  0.00    +0.044 C 
ENDBRANCH  16  19
BRANCH   1  29
ATOM     26  C   UNL     1      -3.029  -3.635   1.316  0.00  0.00    -0.037 A 
ATOM     27  C   UNL     1      -2.644  -4.094   0.070  0.00  0.00    +0.006 A 
ATOM     28  C   UNL     1      -2.584  -5.451  -0.181  0.00  0.00    +0.023 A 
ATOM     29  C   UNL     1      -2.912  -6.355   0.820  0.00  0.00    +0.035 A 
ATOM     30  C   UNL     1      -3.299  -5.892   2.071  0.00  0.00    +0.023 A 
ATOM     31  C   UNL     1      -3.351  -4.534   2.317  0.00  0.00    +0.006 A 
BRANCH  26  32
ATOM     32  C   UNL     1      -3.093  -2.154   1.586  0.00  0.00    +0.155 C 
BRANCH  32  33
ATOM     33  C   UNL     1      -1.757  -1.679   2.096  0.00  0.00    +0.311 C 
ATOM     34  O   UNL     1      -0.846  -2.462   2.226  0.00  0.00    -0.250 OA
BRANCH  33  35
ATOM     35  O   UNL     1      -1.579  -0.385   2.405  0.00  0.00    -0.465 OA
BRANCH  35  37
ATOM     36  C   UNL     1      -0.275   1.497   3.179  0.00  0.00    +0.048 C 
ATOM     37  C   UNL     1      -0.287  -0.004   2.882  0.00  0.00    +0.229 C 
ENDBRANCH  35  37
ENDBRANCH  33  35
ENDBRANCH  32  33
ENDBRANCH  26  32
ENDBRANCH   1  29
BRANCH  10  38
ATOM     38  O   UNL     1       0.172 -16.509  -0.884  0.00  0.00    -0.495 OA
ATOM     39  C   UNL     1       0.438 -17.843  -0.443  0.00  0.00    +0.277 C 
ENDBRANCH  10  38
TORSDOF 7
