REMARK  Name = ZINC09831484
REMARK  8 active torsions:
REMARK  status: ('A' for Active; 'I' for Inactive)
REMARK    1  A    between atoms: C_1  and  C_2
REMARK    2  A    between atoms: C_5  and  C_8
REMARK    3  A    between atoms: C_8  and  N_9
REMARK    4  A    between atoms: C_10  and  C_12
REMARK    5  A    between atoms: C_12  and  C_13
REMARK    6  A    between atoms: C_13  and  C_14
REMARK    7  A    between atoms: N_27  and  C_28
REMARK    8  A    between atoms: C_28  and  C_29
REMARK                            x       y       z     vdW  Elec       q    Type
REMARK                         _______ _______ _______ _____ _____    ______ ____
ROOT
ATOM      1  C   UNL     1      -1.010   1.763  -6.110  0.00  0.00    +0.140 A 
ATOM      2  N   UNL     1      -0.853   2.924  -6.685  0.00  0.00    -0.132 NA
ATOM      3  N   UNL     1      -1.632   3.021  -7.702  0.00  0.00    -0.110 NA
ATOM      4  C   UNL     1      -2.336   1.918  -7.835  0.00  0.00    +0.240 A 
ATOM      5  N   UNL     1      -1.954   1.084  -6.825  0.00  0.00    -0.264 N 
ATOM      6  C   UNL     1      -2.525  -0.174  -6.683  0.00  0.00    +0.063 A 
ATOM      7  C   UNL     1      -2.146  -1.026  -5.657  0.00  0.00    +0.027 A 
ATOM      8  C   UNL     1      -2.729  -2.272  -5.547  0.00  0.00    +0.002 A 
ATOM      9  C   UNL     1      -3.693  -2.683  -6.455  0.00  0.00    +0.001 A 
ATOM     10  C   UNL     1      -4.082  -1.850  -7.482  0.00  0.00    +0.015 A 
ATOM     11  C   UNL     1      -3.501  -0.589  -7.604  0.00  0.00    +0.064 A 
ATOM     12  C   UNL     1      -3.889   0.333  -8.687  0.00  0.00    +0.263 A 
ATOM     13  O   UNL     1      -4.731   0.009  -9.503  0.00  0.00    -0.267 OA
ATOM     14  N   UNL     1      -3.294   1.542  -8.757  0.00  0.00    -0.272 N 
ENDROOT
BRANCH   1  15
ATOM     15  C   UNL     1      -0.281   1.264  -4.889  0.00  0.00    +0.086 C 
BRANCH  15  16
ATOM     16  C   UNL     1      -1.143   1.502  -3.647  0.00  0.00    +0.103 C 
BRANCH  16  18
ATOM     17  N   UNL     1      -0.986   1.108  -1.210  0.00  0.00    -0.311 N 
ATOM     18  C   UNL     1      -0.414   1.002  -2.426  0.00  0.00    +0.214 C 
ATOM     19  O   UNL     1       0.686   0.506  -2.538  0.00  0.00    -0.276 OA
ATOM     20  H   UNL     1      -1.866   1.506  -1.121  0.00  0.00    +0.149 HD
BRANCH  17  21
ATOM     21  C   UNL     1      -0.277   0.623  -0.024  0.00  0.00    +0.139 C 
BRANCH  21  26
ATOM     22  C   UNL     1      -3.533   1.520   4.666  0.00  0.00    +0.044 C 
ATOM     23  C   UNL     1      -2.684   1.286   3.443  0.00  0.00    -0.050 A 
ATOM     24  C   UNL     1      -2.796   0.101   2.740  0.00  0.00    +0.003 A 
ATOM     25  C   UNL     1      -2.017  -0.114   1.618  0.00  0.00    +0.005 A 
ATOM     26  C   UNL     1      -1.126   0.857   1.199  0.00  0.00    -0.030 A 
ATOM     27  C   UNL     1      -1.011   2.040   1.905  0.00  0.00    +0.005 A 
ATOM     28  C   UNL     1      -1.793   2.256   3.024  0.00  0.00    +0.003 A 
ENDBRANCH  21  26
ENDBRANCH  17  21
ENDBRANCH  16  18
ENDBRANCH  15  16
ENDBRANCH   1  15
BRANCH  14  29
ATOM     29  C   UNL     1      -3.668   2.469  -9.828  0.00  0.00    +0.163 C 
BRANCH  29  30
ATOM     30  C   UNL     1      -2.781   2.239 -11.025  0.00  0.00    -0.027 A 
ATOM     31  C   UNL     1      -1.597   2.941 -11.153  0.00  0.00    +0.007 A 
ATOM     32  C   UNL     1      -0.781   2.726 -12.247  0.00  0.00    +0.020 A 
ATOM     33  C   UNL     1      -1.155   1.816 -13.220  0.00  0.00    +0.041 A 
ATOM     34  C   UNL     1      -2.342   1.118 -13.095  0.00  0.00    +0.020 A 
ATOM     35  C   UNL     1      -3.155   1.330 -11.997  0.00  0.00    +0.007 A 
ATOM     36 CL   UNL     1      -0.133   1.551 -14.599  0.00  0.00    -0.084 Cl
ENDBRANCH  29  30
ENDBRANCH  14  29
TORSDOF 7
