REMARK  Name = ZINC26867175
REMARK  9 active torsions:
REMARK  status: ('A' for Active; 'I' for Inactive)
REMARK    1  A    between atoms: C_1  and  C_2
REMARK    2  A    between atoms: C_2  and  C_3
REMARK    3  A    between atoms: C_3  and  C_29
REMARK    4  A    between atoms: N_6  and  N_10
REMARK    5  A    between atoms: C_11  and  C_13
REMARK    6  A    between atoms: C_13  and  N_14
REMARK    7  A    between atoms: N_14  and  C_15
REMARK    8  A    between atoms: N_14  and  C_23
REMARK    9  A    between atoms: C_15  and  C_16
REMARK                            x       y       z     vdW  Elec       q    Type
REMARK                         _______ _______ _______ _____ _____    ______ ____
ROOT
ATOM      1  C   UNL     1      -5.288  -0.905   4.495  0.00  0.00    +0.021 C 
ENDROOT
BRANCH   1   3
ATOM      2  N   UNL     1      -3.719  -2.783   4.136  0.00  0.00    -0.225 N 
ATOM      3  C   UNL     1      -4.268  -1.897   4.990  0.00  0.00    +0.213 C 
ATOM      4  O   UNL     1      -3.941  -1.898   6.158  0.00  0.00    -0.276 OA
ATOM      5  H   UNL     1      -4.016  -2.781   3.077  0.00  0.00    +0.173 HD
BRANCH   2   9
ATOM      6  C   UNL     1      -0.823  -4.813   5.043  0.00  0.00    +0.111 C 
ATOM      7  C   UNL     1      -1.447  -3.612   4.360  0.00  0.00    +0.263 C 
ATOM      8  O   UNL     1      -0.874  -2.747   3.732  0.00  0.00    -0.271 OA
ATOM      9  N   UNL     1      -2.770  -3.705   4.596  0.00  0.00    -0.137 N 
ATOM     10  C   UNL     1      -3.066  -4.786   5.326  0.00  0.00    +0.326 C 
ATOM     11  O   UNL     1      -4.194  -5.083   5.667  0.00  0.00    -0.251 OA
ATOM     12  N   UNL     1      -1.976  -5.508   5.641  0.00  0.00    -0.284 N 
ATOM     13  C   UNL     1      -0.124  -5.711   4.020  0.00  0.00    +0.041 C 
ATOM     14  H   UNL     1      -1.822  -6.436   6.212  0.00  0.00    +0.151 HD
BRANCH   6  16
ATOM     15  C   UNL     1       0.730  -5.601   6.834  0.00  0.00    +0.006 C 
ATOM     16  C   UNL     1       0.160  -4.369   6.127  0.00  0.00    +0.032 C 
ENDBRANCH   6  16
ENDBRANCH   2   9
ENDBRANCH   1   3
BRANCH   1  17
ATOM     17  N   UNL     1      -5.832  -0.152   5.633  0.00  0.00    +0.390 N 
ATOM     18  H   UNL     1      -4.989   0.161   6.266  0.00  0.00    -0.080 HD
BRANCH  17  19
ATOM     19  C   UNL     1      -6.530   1.058   5.179  0.00  0.00    -0.067 C 
ATOM     20  C   UNL     1      -7.543   0.687   4.094  0.00  0.00    -0.015 C 
ATOM     21  C   UNL     1      -8.269   1.947   3.621  0.00  0.00    -0.002 C 
ATOM     22  C   UNL     1      -7.252   2.938   3.051  0.00  0.00    -0.000 C 
ATOM     23  C   UNL     1      -6.239   3.310   4.136  0.00  0.00    -0.002 C 
ATOM     24  C   UNL     1      -5.513   2.049   4.609  0.00  0.00    -0.015 C 
ENDBRANCH  17  19
BRANCH  17  25
ATOM     25  C   UNL     1      -6.718  -0.996   6.447  0.00  0.00    -0.042 C 
BRANCH  25  26
ATOM     26  C   UNL     1      -7.060  -0.277   7.727  0.00  0.00    -0.064 A 
ATOM     27  C   UNL     1      -6.265  -0.443   8.845  0.00  0.00    +0.004 A 
ATOM     28  C   UNL     1      -6.574   0.219  10.018  0.00  0.00    +0.038 A 
ATOM     29  C   UNL     1      -7.688   1.040  10.076  0.00  0.00    +0.123 A 
ATOM     30  C   UNL     1      -8.486   1.202   8.956  0.00  0.00    +0.038 A 
ATOM     31  C   UNL     1      -8.171   0.543   7.783  0.00  0.00    +0.004 A 
ATOM     32  F   UNL     1      -7.994   1.684  11.223  0.00  0.00    -0.205 F 
ENDBRANCH  25  26
ENDBRANCH  17  25
ENDBRANCH   1  17
TORSDOF 7
