REMARK  Name = ZINC49909165
REMARK  10 active torsions:
REMARK  status: ('A' for Active; 'I' for Inactive)
REMARK    1  A    between atoms: C_1  and  C_2
REMARK    2  A    between atoms: C_7  and  C_8
REMARK    3  A    between atoms: N_10  and  C_11
REMARK    4  A    between atoms: C_11  and  C_13
REMARK    5  A    between atoms: C_11  and  C_17
REMARK    6  A    between atoms: C_13  and  C_14
REMARK    7  A    between atoms: C_14  and  C_15
REMARK    8  A    between atoms: C_14  and  C_16
REMARK    9  A    between atoms: N_19  and  C_20
REMARK   10  A    between atoms: C_23  and  O_26
REMARK                            x       y       z     vdW  Elec       q    Type
REMARK                         _______ _______ _______ _____ _____    ______ ____
ROOT
ATOM      1  C   UNL     1       0.483   0.144   4.638  0.00  0.00    +0.159 C 
ENDROOT
BRANCH   1   4
ATOM      2  C   UNL     1       0.718   0.327   2.220  0.00  0.00    +0.245 C 
ATOM      3  O   UNL     1       0.086   1.365   2.265  0.00  0.00    -0.270 OA
ATOM      4  N   UNL     1       1.016  -0.329   3.359  0.00  0.00    -0.300 N 
ATOM      5  H   UNL     1       1.584  -1.115   3.331  0.00  0.00    +0.150 HD
BRANCH   2  12
ATOM      6  C   UNL     1       0.117   1.779  -0.210  0.00  0.00    +0.044 C 
ATOM      7  C   UNL     1       0.875   0.477  -0.262  0.00  0.00    -0.038 A 
ATOM      8  C   UNL     1       1.295  -0.031  -1.474  0.00  0.00    +0.004 A 
ATOM      9  C   UNL     1       1.990  -1.226  -1.523  0.00  0.00    +0.000 A 
ATOM     10  C   UNL     1       2.270  -1.919  -0.359  0.00  0.00    +0.001 A 
ATOM     11  C   UNL     1       1.857  -1.422   0.860  0.00  0.00    +0.013 A 
ATOM     12  C   UNL     1       1.159  -0.214   0.917  0.00  0.00    +0.040 A 
ENDBRANCH   2  12
ENDBRANCH   1   4
BRANCH   1  13
ATOM     13  C   UNL     1       1.348  -0.366   5.762  0.00  0.00    +0.234 C 
ATOM     14  O   UNL     1       2.063  -1.330   5.588  0.00  0.00    -0.274 OA
ATOM     15  N   UNL     1       1.328   0.250   6.961  0.00  0.00    -0.311 N 
ATOM     16  H   UNL     1       0.697   0.968   7.127  0.00  0.00    +0.149 HD
BRANCH  15  17
ATOM     17  C   UNL     1       2.258  -0.166   8.014  0.00  0.00    +0.073 C 
ATOM     18  C   UNL     1       1.666  -1.352   8.778  0.00  0.00    +0.025 C 
ATOM     19  C   UNL     1       2.637  -1.787   9.877  0.00  0.00    +0.033 C 
ATOM     20  C   UNL     1       2.868  -0.622  10.843  0.00  0.00    +0.115 C 
ATOM     21  C   UNL     1       3.459   0.564  10.079  0.00  0.00    +0.033 C 
ATOM     22  C   UNL     1       2.488   0.998   8.980  0.00  0.00    +0.025 C 
BRANCH  20  23
ATOM     23  O   UNL     1       3.775  -1.028  11.870  0.00  0.00    -0.392 OA
ATOM     24  H   UNL     1       3.967  -0.338  12.520  0.00  0.00    +0.210 HD
ENDBRANCH  20  23
ENDBRANCH  15  17
ENDBRANCH   1  13
BRANCH   1  25
ATOM     25  C   UNL     1      -0.945  -0.373   4.819  0.00  0.00    +0.034 C 
BRANCH  25  26
ATOM     26  C   UNL     1      -1.536   0.199   6.109  0.00  0.00    -0.015 C 
ATOM     27  C   UNL     1      -1.704   1.712   5.966  0.00  0.00    +0.007 C 
ATOM     28  C   UNL     1      -2.899  -0.443   6.375  0.00  0.00    +0.007 C 
ENDBRANCH  25  26
ENDBRANCH   1  25
TORSDOF 7
