REMARK  Name = ZINC65048472
REMARK  11 active torsions:
REMARK  status: ('A' for Active; 'I' for Inactive)
REMARK    1  A    between atoms: C_1  and  C_2
REMARK    2  A    between atoms: C_5  and  O_12
REMARK    3  A    between atoms: C_6  and  C_8
REMARK    4  A    between atoms: C_8  and  C_9
REMARK    5  A    between atoms: C_8  and  C_10
REMARK    6  A    between atoms: C_8  and  C_11
REMARK    7  A    between atoms: O_12  and  C_13
REMARK    8  A    between atoms: C_13  and  C_15
REMARK    9  A    between atoms: C_18  and  C_20
REMARK   10  A    between atoms: C_20  and  O_21
REMARK   11  A    between atoms: O_21  and  C_22
REMARK                            x       y       z     vdW  Elec       q    Type
REMARK                         _______ _______ _______ _____ _____    ______ ____
ROOT
ATOM      1  C   UNL     1       0.937   1.434  -0.036  0.00  0.00    +0.044 C 
ATOM      2  C   UNL     1       0.702  -0.054  -0.032  0.00  0.00    -0.050 A 
ATOM      3  C   UNL     1       1.152  -0.827  -1.087  0.00  0.00    +0.007 A 
ATOM      4  C   UNL     1       0.938  -2.191  -1.085  0.00  0.00    +0.047 A 
ATOM      5  C   UNL     1       0.270  -2.787  -0.024  0.00  0.00    +0.136 A 
ATOM      6  C   UNL     1      -0.180  -2.009   1.033  0.00  0.00    +0.001 A 
ATOM      7  C   UNL     1       0.041  -0.646   1.029  0.00  0.00    +0.011 A 
ENDROOT
BRANCH   6   8
ATOM      8  C   UNL     1      -0.904  -2.653   2.187  0.00  0.00    -0.009 C 
ATOM      9  C   UNL     1      -1.289  -1.581   3.209  0.00  0.00    +0.015 C 
ATOM     10  C   UNL     1      -2.168  -3.345   1.673  0.00  0.00    +0.015 C 
ATOM     11  C   UNL     1       0.009  -3.686   2.851  0.00  0.00    +0.015 C 
ENDBRANCH   6   8
BRANCH   5  12
ATOM     12  O   UNL     1       0.058  -4.129  -0.021  0.00  0.00    -0.421 OA
BRANCH  12  13
ATOM     13  C   UNL     1      -0.044  -4.757  -1.209  0.00  0.00    +0.363 C 
ATOM     14  O   UNL     1      -0.056  -4.111  -2.239  0.00  0.00    -0.243 OA
BRANCH  13  15
ATOM     15  C   UNL     1      -0.140  -6.224  -1.261  0.00  0.00    +0.155 A 
ATOM     16  C   UNL     1      -0.239  -6.904  -2.446  0.00  0.00    +0.082 A 
ATOM     17  S   UNL     1      -0.318  -8.504  -1.940  0.00  0.00    -0.077 S 
ATOM     18  C   UNL     1      -0.224  -8.269  -0.281  0.00  0.00    +0.105 A 
ATOM     19  N   UNL     1      -0.130  -6.973  -0.153  0.00  0.00    -0.235 NA
BRANCH  18  20
ATOM     20  C   UNL     1      -0.240  -9.311   0.808  0.00  0.00    +0.222 C 
BRANCH  20  21
ATOM     21  O   UNL     1      -1.588  -9.554   1.215  0.00  0.00    -0.376 OA
ATOM     22  C   UNL     1      -1.715 -10.532   2.249  0.00  0.00    +0.194 C 
ENDBRANCH  20  21
ENDBRANCH  18  20
ENDBRANCH  13  15
ENDBRANCH  12  13
ENDBRANCH   5  12
TORSDOF 6
