REMARK  Name = ZINC60324152
REMARK  12 active torsions:
REMARK  status: ('A' for Active; 'I' for Inactive)
REMARK    1  A    between atoms: C_1  and  C_2
REMARK    2  A    between atoms: C_2  and  C_3
REMARK    3  A    between atoms: C_2  and  C_4
REMARK    4  A    between atoms: C_2  and  O_5
REMARK    5  A    between atoms: O_5  and  C_6
REMARK    6  A    between atoms: N_8  and  C_9
REMARK    7  A    between atoms: C_9  and  C_16
REMARK    8  A    between atoms: C_16  and  N_17
REMARK    9  A    between atoms: C_18  and  C_20
REMARK   10  A    between atoms: C_20  and  C_21
REMARK   11  A    between atoms: C_21  and  C_22
REMARK   12  A    between atoms: N_32  and  C_35
REMARK                            x       y       z     vdW  Elec       q    Type
REMARK                         _______ _______ _______ _____ _____    ______ ____
ROOT
ATOM      1  N   UNL     1       3.888   1.929  -1.405  0.00  0.00    -0.313 N 
ATOM      2  C   UNL     1       4.058   3.248  -1.188  0.00  0.00    +0.213 C 
ATOM      3  O   UNL     1       4.480   3.959  -2.076  0.00  0.00    -0.276 OA
ATOM      4  H   UNL     1       3.551   1.360  -0.695  0.00  0.00    +0.149 HD
ENDROOT
BRANCH   1   5
ATOM      5  C   UNL     1       4.214   1.353  -2.712  0.00  0.00    +0.130 C 
BRANCH   5   6
ATOM      6  C   UNL     1       4.066  -0.168  -2.650  0.00  0.00    +0.053 C 
ATOM      7  C   UNL     1       5.041  -0.721  -1.591  0.00  0.00    +0.027 C 
ATOM      8  C   UNL     1       4.563  -2.082  -1.165  0.00  0.00    +0.002 C 
ATOM      9  C   UNL     1       5.233  -3.219  -1.960  0.00  0.00    +0.000 C 
ATOM     10  C   UNL     1       5.358  -2.903  -3.463  0.00  0.00    +0.000 C 
ATOM     11  C   UNL     1       4.121  -2.250  -4.019  0.00  0.00    +0.002 C 
ATOM     12  C   UNL     1       4.313  -0.720  -3.974  0.00  0.00    +0.027 C 
BRANCH   6  15
ATOM     13  C   UNL     1       1.661  -0.150  -3.041  0.00  0.00    +0.401 C 
ATOM     14  O   UNL     1       1.856   0.511  -4.042  0.00  0.00    -0.226 OA
ATOM     15  N   UNL     1       2.695  -0.495  -2.249  0.00  0.00    -0.274 N 
ATOM     16  H   UNL     1       2.532  -0.959  -1.413  0.00  0.00    +0.153 HD
BRANCH  13  17
ATOM     17  O   UNL     1       0.411  -0.539  -2.724  0.00  0.00    -0.445 OA
BRANCH  17  19
ATOM     18  C   UNL     1      -0.371  -0.707  -5.005  0.00  0.00    +0.055 C 
ATOM     19  C   UNL     1      -0.637  -0.139  -3.609  0.00  0.00    +0.107 C 
ATOM     20  C   UNL     1      -0.687   1.389  -3.681  0.00  0.00    +0.055 C 
ATOM     21  C   UNL     1      -1.974  -0.669  -3.088  0.00  0.00    +0.055 C 
ENDBRANCH  17  19
ENDBRANCH  13  17
ENDBRANCH   6  15
ENDBRANCH   5   6
ENDBRANCH   1   5
BRANCH   2  22
ATOM     22  C   UNL     1       3.722   3.841   0.156  0.00  0.00    +0.103 C 
BRANCH  22  23
ATOM     23  C   UNL     1       4.003   5.344   0.136  0.00  0.00    +0.083 C 
BRANCH  23  24
ATOM     24  C   UNL     1       3.668   5.937   1.480  0.00  0.00    +0.110 A 
ATOM     25  N   UNL     1       4.511   6.663   2.240  0.00  0.00    -0.336 N 
ATOM     26  H   UNL     1       5.428   6.895   2.024  0.00  0.00    +0.167 HD
ATOM     27  C   UNL     1       3.823   7.014   3.384  0.00  0.00    +0.149 A 
ATOM     28  C   UNL     1       4.140   7.754   4.543  0.00  0.00    +0.280 A 
ATOM     29  O   UNL     1       5.246   8.246   4.677  0.00  0.00    -0.265 OA
ATOM     30  N   UNL     1       3.202   7.912   5.501  0.00  0.00    -0.273 N 
ATOM     31  H   UNL     1       3.416   8.420   6.299  0.00  0.00    +0.173 HD
ATOM     32  C   UNL     1       1.978   7.375   5.365  0.00  0.00    +0.331 A 
ATOM     33  O   UNL     1       1.158   7.537   6.249  0.00  0.00    -0.246 OA
ATOM     34  N   UNL     1       1.635   6.662   4.276  0.00  0.00    -0.280 N 
ATOM     35  C   UNL     1       2.553   6.465   3.257  0.00  0.00    +0.168 A 
ATOM     36  N   UNL     1       2.512   5.828   2.084  0.00  0.00    -0.214 NA
ATOM     37  C   UNL     1       0.288   6.095   4.167  0.00  0.00    +0.155 C 
ENDBRANCH  23  24
ENDBRANCH  22  23
ENDBRANCH   2  22
TORSDOF 8
