REMARK  Name = ZINC02484167
REMARK  7 active torsions:
REMARK  status: ('A' for Active; 'I' for Inactive)
REMARK    1  A    between atoms: C_1  and  C_2
REMARK    2  A    between atoms: C_2  and  C_3
REMARK    3  A    between atoms: C_3  and  O_4
REMARK    4  A    between atoms: O_4  and  C_5
REMARK    5  A    between atoms: C_8  and  C_11
REMARK    6  A    between atoms: C_13  and  C_24
REMARK    7  A    between atoms: C_14  and  N_23
REMARK                            x       y       z     vdW  Elec       q    Type
REMARK                         _______ _______ _______ _____ _____    ______ ____
ROOT
ATOM      1  C   UNL     1       2.490   1.045  -0.016  0.00  0.00    +0.101 C 
ATOM      2  C   UNL     1       3.277   1.401   1.214  0.00  0.00    +0.098 C 
ATOM      3  C   UNL     1       4.295   2.292   1.142  0.00  0.00    +0.198 C 
ATOM      4  O   UNL     1       4.627   2.883  -0.017  0.00  0.00    -0.445 OA
ATOM      5  C   UNL     1       4.274   2.314  -1.185  0.00  0.00    +0.115 C 
ATOM      6  C   UNL     1       3.263   1.428  -1.255  0.00  0.00    +0.046 C 
ATOM      7  C   UNL     1       2.896   0.830  -2.476  0.00  0.00    +0.163 C 
ATOM      8  O   UNL     1       1.966   0.050  -2.503  0.00  0.00    -0.292 OA
ATOM      9  C   UNL     1       3.637   1.141  -3.748  0.00  0.00    +0.080 C 
ATOM     10  C   UNL     1       5.079   1.524  -3.400  0.00  0.00    +0.016 C 
ATOM     11  C   UNL     1       5.046   2.702  -2.424  0.00  0.00    +0.075 C 
ENDROOT
BRANCH   1  15
ATOM     12  C   UNL     1      -1.237   3.137   0.031  0.00  0.00    +0.121 A 
ATOM     13  C   UNL     1      -1.218   1.750   0.017  0.00  0.00    +0.046 A 
ATOM     14  C   UNL     1      -0.013   1.076   0.008  0.00  0.00    +0.008 A 
ATOM     15  C   UNL     1       1.176   1.783   0.000  0.00  0.00    -0.034 A 
ATOM     16  C   UNL     1       1.160   3.165   0.008  0.00  0.00    +0.008 A 
ATOM     17  C   UNL     1      -0.043   3.844   0.024  0.00  0.00    +0.046 A 
BRANCH  12  18
ATOM     18  O   UNL     1      -2.422   3.802   0.045  0.00  0.00    -0.492 OA
BRANCH  18  19
ATOM     19  C   UNL     1      -3.611   3.009   0.052  0.00  0.00    +0.229 C 
BRANCH  19  21
ATOM     20  C   UNL     1      -6.108   3.078   0.075  0.00  0.00    +0.007 C 
ATOM     21  C   UNL     1      -4.835   3.926   0.068  0.00  0.00    +0.038 C 
ENDBRANCH  19  21
ENDBRANCH  18  19
ENDBRANCH  12  18
ENDBRANCH   1  15
BRANCH   3  22
ATOM     22  N   UNL     1       5.003   2.597   2.277  0.00  0.00    -0.328 N 
ATOM     23  H   UNL     1       5.734   3.234   2.237  0.00  0.00    +0.145 HD
ATOM     24  H   UNL     1       4.773   2.176   3.120  0.00  0.00    +0.145 HD
ENDBRANCH   3  22
BRANCH   2  25
ATOM     25  C   UNL     1       2.949   0.796   2.469  0.00  0.00    +0.101 C 
ATOM     26  N   UNL     1       2.688   0.316   3.465  0.00  0.00    -0.191 NA
ENDBRANCH   2  25
TORSDOF 6
