REMARK  Name = ZINC09539776
REMARK  12 active torsions:
REMARK  status: ('A' for Active; 'I' for Inactive)
REMARK    1  A    between atoms: C_1  and  C_2
REMARK    2  A    between atoms: C_5  and  C_35
REMARK    3  A    between atoms: C_6  and  N_8
REMARK    4  A    between atoms: C_9  and  C_11
REMARK    5  A    between atoms: C_11  and  C_13
REMARK    6  A    between atoms: C_11  and  N_16
REMARK    7  A    between atoms: C_13  and  C_14
REMARK    8  A    between atoms: C_13  and  C_15
REMARK    9  A    between atoms: N_16  and  C_17
REMARK   10  A    between atoms: C_20  and  S_26
REMARK   11  A    between atoms: C_22  and  N_23
REMARK   12  A    between atoms: S_26  and  N_29
REMARK                            x       y       z     vdW  Elec       q    Type
REMARK                         _______ _______ _______ _____ _____    ______ ____
ROOT
ATOM      1  N   UNL     1      -3.170   2.584   4.668  0.00  0.00    -0.331 N 
ATOM      2  H   UNL     1      -3.738   1.843   4.933  0.00  0.00    +0.147 HD
ENDROOT
BRANCH   1   3
ATOM      3  C   UNL     1      -2.138   2.380   3.750  0.00  0.00    +0.058 A 
ATOM      4  C   UNL     1      -1.257   3.412   3.452  0.00  0.00    +0.027 A 
ATOM      5  C   UNL     1      -0.234   3.204   2.547  0.00  0.00    +0.030 A 
ATOM      6  C   UNL     1      -0.093   1.974   1.931  0.00  0.00    +0.108 A 
ATOM      7  C   UNL     1      -0.968   0.945   2.225  0.00  0.00    +0.063 A 
ATOM      8  C   UNL     1      -1.990   1.144   3.133  0.00  0.00    +0.149 A 
BRANCH   8   9
ATOM      9  N   UNL     1      -2.927   0.042   3.447  0.00  0.00    +0.058 N 
ATOM     10  O   UNL     1      -2.863  -1.006   2.829  0.00  0.00    -0.126 OA
ATOM     11  O   UNL     1      -3.761   0.183   4.323  0.00  0.00    -0.126 OA
ENDBRANCH   8   9
BRANCH   6  12
ATOM     12  S   UNL     1       1.210   1.716   0.773  0.00  0.00    +0.061 S 
ATOM     13  O   UNL     1       1.462   0.318   0.750  0.00  0.00    -0.153 OA
ATOM     14  O   UNL     1       2.221   2.667   1.080  0.00  0.00    -0.153 OA
BRANCH  12  15
ATOM     15  N   UNL     1       0.623   2.116  -0.723  0.00  0.00    -0.172 NA
ATOM     16  C   UNL     1      -0.025   1.108  -1.577  0.00  0.00    +0.137 C 
ATOM     17  C   UNL     1      -1.374   1.675  -2.049  0.00  0.00    +0.177 C 
ATOM     18  O   UNL     1      -1.162   2.962  -2.635  0.00  0.00    -0.377 OA
ATOM     19  C   UNL     1      -0.643   3.939  -1.730  0.00  0.00    +0.177 C 
ATOM     20  C   UNL     1       0.738   3.489  -1.240  0.00  0.00    +0.137 C 
ENDBRANCH  12  15
ENDBRANCH   6  12
ENDBRANCH   1   3
BRANCH   1  21
ATOM     21  C   UNL     1      -3.396   3.917   5.232  0.00  0.00    +0.160 C 
BRANCH  21  23
ATOM     22  N   UNL     1      -3.647   4.850   7.509  0.00  0.00    -0.284 N 
ATOM     23  C   UNL     1      -3.774   3.791   6.685  0.00  0.00    +0.238 C 
ATOM     24  O   UNL     1      -4.191   2.736   7.114  0.00  0.00    -0.273 OA
ATOM     25  H   UNL     1      -3.388   5.714   7.152  0.00  0.00    +0.155 HD
BRANCH  22  31
ATOM     26  C   UNL     1      -4.089   1.931  11.440  0.00  0.00    +0.044 C 
ATOM     27  C   UNL     1      -4.109   3.300  10.811  0.00  0.00    -0.049 A 
ATOM     28  C   UNL     1      -4.368   4.414  11.589  0.00  0.00    +0.004 A 
ATOM     29  C   UNL     1      -4.389   5.672  11.015  0.00  0.00    +0.005 A 
ATOM     30  C   UNL     1      -4.150   5.820   9.663  0.00  0.00    -0.029 A 
ATOM     31  C   UNL     1      -3.889   4.704   8.879  0.00  0.00    +0.037 A 
ATOM     32  C   UNL     1      -3.875   3.441   9.457  0.00  0.00    +0.027 A 
ATOM     33  C   UNL     1      -4.173   7.191   9.039  0.00  0.00    +0.045 C 
ENDBRANCH  22  31
ENDBRANCH  21  23
BRANCH  21  34
ATOM     34  C   UNL     1      -4.528   4.609   4.469  0.00  0.00    +0.012 C 
ATOM     35  C   UNL     1      -4.093   4.853   3.022  0.00  0.00    +0.009 C 
ATOM     36  C   UNL     1      -5.772   3.718   4.484  0.00  0.00    +0.009 C 
ENDBRANCH  21  34
ENDBRANCH   1  21
TORSDOF 8
