REMARK  Name = ZINC13135784
REMARK  7 active torsions:
REMARK  status: ('A' for Active; 'I' for Inactive)
REMARK    1  A    between atoms: C_1  and  C_2
REMARK    2  A    between atoms: N_10  and  C_17
REMARK    3  A    between atoms: N_13  and  C_14
REMARK    4  A    between atoms: C_14  and  C_15
REMARK    5  A    between atoms: C_15  and  N_16
REMARK    6  A    between atoms: C_28  and  C_31
REMARK    7  A    between atoms: C_28  and  C_32
REMARK                            x       y       z     vdW  Elec       q    Type
REMARK                         _______ _______ _______ _____ _____    ______ ____
ROOT
ATOM      1  C   UNL     1       0.826   1.429  -0.320  0.00  0.00    +0.066 C 
ATOM      2  C   UNL     1       0.600  -0.059  -0.239  0.00  0.00    +0.045 A 
ATOM      3  C   UNL     1      -0.132  -0.699  -1.234  0.00  0.00    +0.003 A 
ATOM      4  C   UNL     1      -0.337  -2.054  -1.165  0.00  0.00    -0.026 A 
ATOM      5  C   UNL     1       0.196  -2.782  -0.075  0.00  0.00    +0.037 A 
ATOM      6  C   UNL     1       0.084  -4.228   0.182  0.00  0.00    +0.096 A 
ATOM      7  C   UNL     1       0.707  -4.693   1.339  0.00  0.00    +0.105 A 
ATOM      8  C   UNL     1       0.671  -6.045   1.692  0.00  0.00    +0.274 A 
ATOM      9  O   UNL     1       1.220  -6.442   2.706  0.00  0.00    -0.266 OA
ATOM     10  N   UNL     1       0.011  -6.903   0.878  0.00  0.00    -0.248 N 
ATOM     11  C   UNL     1      -0.591  -6.421  -0.249  0.00  0.00    +0.203 A 
ATOM     12  N   UNL     1      -0.558  -5.157  -0.580  0.00  0.00    -0.214 NA
ATOM     13  N   UNL     1      -1.258  -7.300  -1.068  0.00  0.00    -0.316 N 
ATOM     14  S   UNL     1       1.429  -3.250   2.074  0.00  0.00    -0.062 S 
ATOM     15  C   UNL     1       0.920  -2.041   0.877  0.00  0.00    +0.112 A 
ATOM     16  N   UNL     1       1.102  -0.742   0.770  0.00  0.00    -0.244 NA
ATOM     17  C   UNL     1      -1.111  -2.796  -2.221  0.00  0.00    +0.070 C 
ATOM     18  C   UNL     1      -1.927  -1.803  -3.053  0.00  0.00    +0.068 C 
ATOM     19  O   UNL     1      -1.067  -0.730  -3.451  0.00  0.00    -0.369 OA
ATOM     20  C   UNL     1      -0.688   0.121  -2.369  0.00  0.00    +0.197 C 
ATOM     21  C   UNL     1      -2.481  -2.506  -4.294  0.00  0.00    +0.041 C 
ATOM     22  C   UNL     1      -3.080  -1.253  -2.211  0.00  0.00    +0.041 C 
ATOM     23  H   UNL     1      -1.298  -8.241  -0.837  0.00  0.00    +0.149 HD
ENDROOT
BRANCH  10  24
ATOM     24  C   UNL     1      -0.053  -8.267   1.188  0.00  0.00    +0.054 A 
ATOM     25  C   UNL     1       0.928  -9.133   0.722  0.00  0.00    +0.026 A 
ATOM     26  C   UNL     1       0.863 -10.478   1.029  0.00  0.00    +0.003 A 
ATOM     27  C   UNL     1      -0.177 -10.964   1.800  0.00  0.00    +0.020 A 
ATOM     28  C   UNL     1      -1.156 -10.104   2.266  0.00  0.00    +0.043 A 
ATOM     29  C   UNL     1      -1.094  -8.756   1.966  0.00  0.00    +0.046 A 
ATOM     30 CL   UNL     1      -2.461 -10.717   3.233  0.00  0.00    -0.083 Cl
ENDBRANCH  10  24
BRANCH  13  31
ATOM     31  C   UNL     1      -1.907  -6.815  -2.288  0.00  0.00    +0.085 C 
BRANCH  31  32
ATOM     32  C   UNL     1      -2.572  -7.988  -3.012  0.00  0.00    -0.067 C 
BRANCH  32  33
ATOM     33  N   UNL     1      -3.223  -7.502  -4.236  0.00  0.00    +0.379 N 
ATOM     34  H   UNL     1      -3.662  -8.275  -4.713  0.00  0.00    -0.090 HD
ATOM     35  H   UNL     1      -3.922  -6.815  -3.995  0.00  0.00    -0.090 HD
ATOM     36  H   UNL     1      -2.533  -7.082  -4.840  0.00  0.00    -0.090 HD
ENDBRANCH  32  33
ENDBRANCH  31  32
ENDBRANCH  13  31
TORSDOF 4
