REMARK  Name = ZINC08385020
REMARK  9 active torsions:
REMARK  status: ('A' for Active; 'I' for Inactive)
REMARK    1  A    between atoms: C_1  and  C_2
REMARK    2  A    between atoms: C_9  and  N_17
REMARK    3  A    between atoms: C_10  and  C_11
REMARK    4  A    between atoms: C_11  and  O_13
REMARK    5  A    between atoms: O_13  and  C_14
REMARK    6  A    between atoms: C_14  and  C_15
REMARK    7  A    between atoms: C_14  and  C_16
REMARK    8  A    between atoms: C_18  and  C_20
REMARK    9  A    between atoms: C_22  and  N_27
REMARK                            x       y       z     vdW  Elec       q    Type
REMARK                         _______ _______ _______ _____ _____    ______ ____
ROOT
ATOM      1  C   UNL     1      -1.434   3.622   2.530  0.00  0.00    +0.008 C 
ATOM      2  C   UNL     1      -0.938   3.098   1.181  0.00  0.00    -0.009 C 
ATOM      3  C   UNL     1      -0.734   1.582   1.262  0.00  0.00    +0.008 C 
ATOM      4  C   UNL     1      -0.013   1.086   0.008  0.00  0.00    +0.037 C 
ATOM      5  C   UNL     1      -0.755   1.593  -1.222  0.00  0.00    -0.021 A 
ATOM      6  C   UNL     1      -1.621   2.626  -1.135  0.00  0.00    -0.004 A 
ATOM      7  S   UNL     1      -2.225   2.852  -2.784  0.00  0.00    -0.077 S 
ATOM      8  C   UNL     1      -1.342   1.592  -3.580  0.00  0.00    +0.087 A 
ATOM      9  C   UNL     1      -0.600   1.027  -2.551  0.00  0.00    +0.091 A 
ATOM     10  C   UNL     1      -1.979   3.403   0.095  0.00  0.00    +0.046 C 
ENDROOT
BRANCH   8  11
ATOM     11  N   UNL     1      -1.369   1.236  -4.918  0.00  0.00    -0.275 N 
ATOM     12  C   UNL     1      -2.160   1.906  -5.779  0.00  0.00    +0.250 C 
ATOM     13  O   UNL     1      -2.850   2.825  -5.380  0.00  0.00    -0.270 OA
ATOM     14  H   UNL     1      -0.818   0.503  -5.236  0.00  0.00    +0.156 HD
BRANCH  12  15
ATOM     15  C   UNL     1      -2.189   1.526  -7.206  0.00  0.00    +0.057 A 
ATOM     16  C   UNL     1      -1.398   0.472  -7.667  0.00  0.00    +0.047 A 
ATOM     17  C   UNL     1      -1.429   0.122  -9.000  0.00  0.00    +0.127 A 
ATOM     18  C   UNL     1      -2.243   0.813  -9.882  0.00  0.00    +0.034 A 
ATOM     19  C   UNL     1      -3.029   1.858  -9.434  0.00  0.00    +0.023 A 
ATOM     20  C   UNL     1      -3.013   2.216  -8.099  0.00  0.00    +0.053 A 
ATOM     21 CL   UNL     1      -4.006   3.523  -7.536  0.00  0.00    -0.083 Cl
BRANCH  17  22
ATOM     22  N   UNL     1      -0.591  -0.994  -9.491  0.00  0.00    +0.056 N 
ATOM     23  O   UNL     1       0.126  -1.603  -8.716  0.00  0.00    -0.126 OA
ATOM     24  O   UNL     1      -0.617  -1.305 -10.668  0.00  0.00    -0.126 OA
ENDBRANCH  17  22
ENDBRANCH  12  15
ENDBRANCH   8  11
BRANCH   9  25
ATOM     25  C   UNL     1       0.306  -0.098  -2.796  0.00  0.00    +0.342 C 
ATOM     26  O   UNL     1      -0.103  -1.240  -2.703  0.00  0.00    -0.245 OA
BRANCH  25  27
ATOM     27  O   UNL     1       1.593   0.132  -3.126  0.00  0.00    -0.458 OA
BRANCH  27  28
ATOM     28  C   UNL     1       2.433  -1.030  -3.355  0.00  0.00    +0.171 C 
ATOM     29  C   UNL     1       2.368  -1.424  -4.832  0.00  0.00    +0.052 C 
ATOM     30  C   UNL     1       3.878  -0.697  -2.979  0.00  0.00    +0.052 C 
ENDBRANCH  27  28
ENDBRANCH  25  27
ENDBRANCH   9  25
TORSDOF 6
