REMARK  Name = ZINC49765436
REMARK  7 active torsions:
REMARK  status: ('A' for Active; 'I' for Inactive)
REMARK    1  A    between atoms: C_1  and  C_2
REMARK    2  A    between atoms: C_2  and  C_4
REMARK    3  A    between atoms: C_2  and  N_23
REMARK    4  A    between atoms: C_4  and  N_6
REMARK    5  A    between atoms: N_13  and  C_16
REMARK    6  A    between atoms: C_16  and  C_17
REMARK    7  A    between atoms: C_24  and  C_26
REMARK                            x       y       z     vdW  Elec       q    Type
REMARK                         _______ _______ _______ _____ _____    ______ ____
ROOT
ATOM      1  N   UNL     1       0.285  -0.195   2.434  0.00  0.00    -0.155 NA
ATOM      2  C   UNL     1       0.930  -0.638   3.515  0.00  0.00    +0.163 A 
ATOM      3  N   UNL     1       2.053  -1.402   3.575  0.00  0.00    -0.339 N 
ATOM      4  C   UNL     1       2.566  -1.754   4.792  0.00  0.00    +0.024 A 
ATOM      5  C   UNL     1       1.886  -1.295   5.856  0.00  0.00    -0.004 A 
ATOM      6  S   UNL     1       0.556  -0.378   5.136  0.00  0.00    -0.059 S 
ATOM      7  C   UNL     1       2.213  -1.527   7.294  0.00  0.00    -0.033 C 
ATOM      8  N   UNL     1       3.176  -2.641   7.378  0.00  0.00    +0.386 N 
ATOM      9  C   UNL     1       4.286  -2.400   6.446  0.00  0.00    -0.072 C 
ATOM     10  C   UNL     1       3.816  -2.600   5.002  0.00  0.00    +0.035 C 
ATOM     11  H   UNL     1       2.487  -1.696   2.759  0.00  0.00    +0.167 HD
ATOM     12  H   UNL     1       2.714  -3.504   7.135  0.00  0.00    -0.081 HD
ENDROOT
BRANCH   1  13
ATOM     13  C   UNL     1       0.731  -0.503   1.223  0.00  0.00    +0.258 C 
ATOM     14  O   UNL     1       1.728  -1.188   1.098  0.00  0.00    -0.272 OA
BRANCH  13  16
ATOM     15  C   UNL     1      -0.019   1.526   0.010  0.00  0.00    +0.038 C 
ATOM     16  C   UNL     1       0.002  -0.004   0.002  0.00  0.00    +0.158 C 
BRANCH  16  17
ATOM     17  N   UNL     1       0.688  -0.476  -1.203  0.00  0.00    -0.298 N 
ATOM     18  C   UNL     1       0.006  -0.608  -2.358  0.00  0.00    +0.280 C 
ATOM     19  O   UNL     1      -1.179  -0.335  -2.400  0.00  0.00    -0.267 OA
ATOM     20  H   UNL     1       1.632  -0.695  -1.170  0.00  0.00    +0.150 HD
BRANCH  18  21
ATOM     21  C   UNL     1       0.693  -1.081  -3.565  0.00  0.00    +0.189 A 
ATOM     22  C   UNL     1       0.126  -1.254  -4.795  0.00  0.00    +0.054 A 
ATOM     23  C   UNL     1       1.141  -1.716  -5.646  0.00  0.00    +0.042 A 
ATOM     24  C   UNL     1       2.269  -1.805  -4.908  0.00  0.00    +0.196 A 
ATOM     25  O   UNL     1       1.996  -1.417  -3.656  0.00  0.00    -0.458 OA
ENDBRANCH  18  21
ENDBRANCH  16  17
ENDBRANCH  13  16
ENDBRANCH   1  13
BRANCH   8  26
ATOM     26  C   UNL     1       3.699  -2.734   8.748  0.00  0.00    -0.043 C 
BRANCH  26  27
ATOM     27  C   UNL     1       2.580  -3.102   9.689  0.00  0.00    -0.064 A 
ATOM     28  C   UNL     1       1.825  -2.111  10.286  0.00  0.00    +0.002 A 
ATOM     29  C   UNL     1       0.799  -2.449  11.148  0.00  0.00    +0.000 A 
ATOM     30  C   UNL     1       0.528  -3.778  11.414  0.00  0.00    +0.000 A 
ATOM     31  C   UNL     1       1.283  -4.770  10.816  0.00  0.00    +0.000 A 
ATOM     32  C   UNL     1       2.306  -4.432   9.950  0.00  0.00    +0.002 A 
ENDBRANCH  26  27
ENDBRANCH   8  26
TORSDOF 6
