REMARK  Name = ZINC37181521
REMARK  5 active torsions:
REMARK  status: ('A' for Active; 'I' for Inactive)
REMARK    1  A    between atoms: C_5  and  C_7
REMARK    2  A    between atoms: C_9  and  C_12
REMARK    3  A    between atoms: C_12  and  S_13
REMARK    4  A    between atoms: S_13  and  C_14
REMARK    5  A    between atoms: C_17  and  N_20
REMARK                            x       y       z     vdW  Elec       q    Type
REMARK                         _______ _______ _______ _____ _____    ______ ____
ROOT
ATOM      1  C   UNL     1       1.250  -2.160  -0.023  0.00  0.00    +0.260 A 
ATOM      2  N   UNL     1       0.201  -2.952  -0.023  0.00  0.00    -0.191 NA
ATOM      3  C   UNL     1       0.593  -4.228  -0.032  0.00  0.00    +0.182 A 
ATOM      4  N   UNL     1       1.895  -4.274  -0.039  0.00  0.00    -0.060 NA
ATOM      5  O   UNL     1       2.352  -2.930  -0.039  0.00  0.00    -0.333 OA
ENDROOT
BRANCH   1  10
ATOM      6  C   UNL     1      -0.017   1.375   0.010  0.00  0.00    +0.001 A 
ATOM      7  C   UNL     1       1.170   2.087   0.002  0.00  0.00    +0.001 A 
ATOM      8  C   UNL     1       2.383   1.422  -0.013  0.00  0.00    +0.021 A 
ATOM      9  C   UNL     1       2.417   0.041  -0.021  0.00  0.00    +0.053 A 
ATOM     10  C   UNL     1       1.222  -0.683  -0.014  0.00  0.00    +0.058 A 
ATOM     11  C   UNL     1       0.002  -0.004   0.002  0.00  0.00    +0.015 A 
ATOM     12 CL   UNL     1       3.939  -0.792  -0.042  0.00  0.00    -0.083 Cl
ENDBRANCH   1  10
BRANCH   3  13
ATOM     13  C   UNL     1      -0.324  -5.424  -0.034  0.00  0.00    +0.154 C 
BRANCH  13  14
ATOM     14  S   UNL     1      -0.701  -5.894  -1.745  0.00  0.00    -0.117 S 
BRANCH  14  15
ATOM     15  C   UNL     1      -1.768  -7.287  -1.580  0.00  0.00    +0.008 A 
ATOM     16  C   UNL     1      -2.116  -7.749  -0.317  0.00  0.00    +0.016 A 
ATOM     17  C   UNL     1      -2.951  -8.840  -0.187  0.00  0.00    +0.024 A 
ATOM     18  C   UNL     1      -3.443  -9.477  -1.319  0.00  0.00    +0.025 A 
ATOM     19  C   UNL     1      -3.095  -9.015  -2.582  0.00  0.00    +0.024 A 
ATOM     20  C   UNL     1      -2.264  -7.920  -2.712  0.00  0.00    +0.016 A 
BRANCH  18  21
ATOM     21  N   UNL     1      -4.289 -10.584  -1.188  0.00  0.00    -0.358 N 
ATOM     22  H   UNL     1      -4.532 -10.907  -0.306  0.00  0.00    +0.142 HD
ATOM     23  H   UNL     1      -4.633 -11.029  -1.978  0.00  0.00    +0.142 HD
ENDBRANCH  18  21
ENDBRANCH  14  15
ENDBRANCH  13  14
ENDBRANCH   3  13
TORSDOF 5
