REMARK  Name = ZINC59170791
REMARK  9 active torsions:
REMARK  status: ('A' for Active; 'I' for Inactive)
REMARK    1  A    between atoms: C_1  and  C_2
REMARK    2  A    between atoms: C_7  and  N_8
REMARK    3  A    between atoms: C_10  and  C_24
REMARK    4  A    between atoms: C_14  and  C_20
REMARK    5  A    between atoms: C_16  and  O_19
REMARK    6  A    between atoms: C_20  and  C_21
REMARK    7  A    between atoms: C_20  and  C_22
REMARK    8  A    between atoms: C_20  and  C_23
REMARK    9  A    between atoms: C_24  and  N_26
REMARK                            x       y       z     vdW  Elec       q    Type
REMARK                         _______ _______ _______ _____ _____    ______ ____
ROOT
ATOM      1  N   UNL     1      -0.420   0.133   2.406  0.00  0.00    -0.325 N 
ATOM      2  C   UNL     1      -0.280  -0.611   3.482  0.00  0.00    +0.209 A 
ATOM      3  C   UNL     1      -0.170   0.001   4.821  0.00  0.00    +0.064 A 
ATOM      4  C   UNL     1      -0.586  -0.764   5.903  0.00  0.00    +0.027 A 
ATOM      5  C   UNL     1      -1.095  -2.108   5.620  0.00  0.00    +0.022 A 
ATOM      6  C   UNL     1      -1.775  -2.839   6.603  0.00  0.00    +0.016 A 
ATOM      7  C   UNL     1      -2.247  -4.089   6.316  0.00  0.00    -0.038 A 
ATOM      8  C   UNL     1      -2.059  -4.643   5.058  0.00  0.00    +0.053 A 
ATOM      9  C   UNL     1      -1.389  -3.940   4.072  0.00  0.00    +0.160 A 
ATOM     10  C   UNL     1      -0.898  -2.667   4.344  0.00  0.00    +0.179 A 
ATOM     11  O   UNL     1      -0.237  -1.965   3.395  0.00  0.00    -0.435 OA
ATOM     12  H   UNL     1      -0.545   1.091   2.492  0.00  0.00    +0.169 HD
ENDROOT
BRANCH   1  19
ATOM     13  C   UNL     1      -2.553   0.724   0.623  0.00  0.00    +0.046 C 
ATOM     14  C   UNL     1      -1.414  -0.190   0.250  0.00  0.00    -0.027 A 
ATOM     15  C   UNL     1      -1.375  -0.771  -1.001  0.00  0.00    +0.005 A 
ATOM     16  C   UNL     1      -0.330  -1.609  -1.345  0.00  0.00    +0.000 A 
ATOM     17  C   UNL     1       0.683  -1.871  -0.439  0.00  0.00    +0.002 A 
ATOM     18  C   UNL     1       0.657  -1.298   0.814  0.00  0.00    +0.026 A 
ATOM     19  C   UNL     1      -0.392  -0.444   1.167  0.00  0.00    +0.045 A 
ENDBRANCH   1  19
BRANCH   7  20
ATOM     20  C   UNL     1      -2.979  -4.872   7.375  0.00  0.00    -0.013 C 
ATOM     21  C   UNL     1      -4.221  -4.095   7.817  0.00  0.00    +0.015 C 
ATOM     22  C   UNL     1      -3.401  -6.228   6.806  0.00  0.00    +0.015 C 
ATOM     23  C   UNL     1      -2.057  -5.088   8.577  0.00  0.00    +0.015 C 
ENDBRANCH   7  20
BRANCH   9  24
ATOM     24  O   UNL     1      -1.209  -4.492   2.842  0.00  0.00    -0.503 OA
ATOM     25  H   UNL     1      -1.922  -4.301   2.217  0.00  0.00    +0.292 HD
ENDBRANCH   9  24
BRANCH   3  26
ATOM     26  C   UNL     1       0.357   1.363   5.002  0.00  0.00    +0.082 C 
ATOM     27  S   UNL     1       1.009   2.213   3.667  0.00  0.00    -0.035 S 
BRANCH  26  28
ATOM     28  N   UNL     1       0.327   1.941   6.219  0.00  0.00    -0.352 N 
ATOM     29  H   UNL     1      -0.043   1.459   6.976  0.00  0.00    +0.143 HD
ATOM     30  H   UNL     1       0.674   2.839   6.339  0.00  0.00    +0.143 HD
ENDBRANCH  26  28
ENDBRANCH   3  26
TORSDOF 5
