REMARK  Name = ZINC19506083
REMARK  4 active torsions:
REMARK  status: ('A' for Active; 'I' for Inactive)
REMARK    1  A    between atoms: C_1  and  C_2
REMARK    2  A    between atoms: C_5  and  N_9
REMARK    3  A    between atoms: C_6  and  C_8
REMARK    4  A    between atoms: C_10  and  C_12
REMARK                            x       y       z     vdW  Elec       q    Type
REMARK                         _______ _______ _______ _____ _____    ______ ____
ROOT
ATOM      1  N   UNL     1      -2.238  -0.306   1.006  0.00  0.00    -0.282 N 
ATOM      2  C   UNL     1      -1.411  -0.525  -0.035  0.00  0.00    +0.260 C 
ATOM      3  O   UNL     1      -1.801  -1.153  -0.998  0.00  0.00    -0.271 OA
ATOM      4  H   UNL     1      -1.860   0.183   1.916  0.00  0.00    +0.155 HD
ENDROOT
BRANCH   2   5
ATOM      5  C   UNL     1      -0.002   0.009  -0.004  0.00  0.00    +0.276 C 
ATOM      6  C   UNL     1      -0.034   1.544   0.000  0.00  0.00    +0.155 C 
ATOM      7  N   UNL     1       1.360   2.018  -0.015  0.00  0.00    -0.337 N 
ATOM      8  C   UNL     1       2.265   1.356  -0.860  0.00  0.00    +0.070 A 
ATOM      9  C   UNL     1       3.501   1.920  -1.133  0.00  0.00    +0.026 A 
ATOM     10  C   UNL     1       4.392   1.261  -1.960  0.00  0.00    +0.002 A 
ATOM     11  C   UNL     1       4.050   0.041  -2.514  0.00  0.00    +0.004 A 
ATOM     12  C   UNL     1       2.818  -0.526  -2.246  0.00  0.00    +0.047 A 
ATOM     13  C   UNL     1       1.918   0.129  -1.419  0.00  0.00    +0.142 A 
ATOM     14  O   UNL     1       0.707  -0.434  -1.163  0.00  0.00    -0.476 OA
ATOM     15  H   UNL     1       1.661   2.864   0.621  0.00  0.00    +0.146 HD
ENDBRANCH   2   5
BRANCH   1  20
ATOM     16  C   UNL     1      -7.673  -1.904   0.697  0.00  0.00    +0.044 C 
ATOM     17  C   UNL     1      -6.229  -1.480   0.779  0.00  0.00    -0.050 A 
ATOM     18  C   UNL     1      -5.520  -1.217  -0.379  0.00  0.00    +0.005 A 
ATOM     19  C   UNL     1      -4.197  -0.828  -0.307  0.00  0.00    +0.024 A 
ATOM     20  C   UNL     1      -3.579  -0.701   0.930  0.00  0.00    +0.036 A 
ATOM     21  C   UNL     1      -4.291  -0.971   2.090  0.00  0.00    -0.029 A 
ATOM     22  C   UNL     1      -5.616  -1.354   2.012  0.00  0.00    +0.008 A 
ATOM     23  C   UNL     1      -3.622  -0.840   3.434  0.00  0.00    +0.045 C 
ENDBRANCH   1  20
TORSDOF 2
