REMARK  Name = ZINC37360140
REMARK  9 active torsions:
REMARK  status: ('A' for Active; 'I' for Inactive)
REMARK    1  A    between atoms: C_1  and  N_2
REMARK    2  A    between atoms: N_2  and  C_3
REMARK    3  A    between atoms: N_2  and  C_4
REMARK    4  A    between atoms: C_4  and  C_5
REMARK    5  A    between atoms: C_5  and  N_6
REMARK    6  A    between atoms: C_14  and  C_29
REMARK    7  A    between atoms: C_16  and  N_28
REMARK    8  A    between atoms: N_17  and  C_21
REMARK    9  A    between atoms: C_21  and  C_22
REMARK                            x       y       z     vdW  Elec       q    Type
REMARK                         _______ _______ _______ _____ _____    ______ ____
ROOT
ATOM      1  N   UNL     1      -3.372   1.052  -1.286  0.00  0.00    -0.301 NA
ATOM      2  C   UNL     1      -4.307   1.284  -0.177  0.00  0.00    +0.103 C 
ATOM      3  C   UNL     1      -5.406   0.215  -0.209  0.00  0.00    +0.123 C 
ATOM      4  N   UNL     1      -6.016   0.212  -1.548  0.00  0.00    -0.297 N 
ATOM      5  C   UNL     1      -5.128   0.122  -2.717  0.00  0.00    +0.123 C 
ATOM      6  C   UNL     1      -4.040   1.194  -2.586  0.00  0.00    +0.103 C 
ATOM      7  C   UNL     1      -7.388   0.291  -1.702  0.00  0.00    +0.220 A 
ATOM      8  N   UNL     1      -7.883   0.279  -2.937  0.00  0.00    -0.213 NA
ATOM      9  C   UNL     1      -9.186   0.351  -3.175  0.00  0.00    +0.091 A 
ATOM     10  C   UNL     1     -10.065   0.443  -2.072  0.00  0.00    +0.086 A 
ATOM     11  C   UNL     1     -11.441   0.534  -1.900  0.00  0.00    +0.126 A 
ATOM     12  N   UNL     1     -11.680   0.595  -0.578  0.00  0.00    -0.244 N 
ATOM     13  N   UNL     1     -10.473   0.545   0.128  0.00  0.00    -0.149 NA
ATOM     14  C   UNL     1      -9.474   0.454  -0.722  0.00  0.00    +0.188 A 
ATOM     15  N   UNL     1      -8.133   0.370  -0.619  0.00  0.00    -0.193 NA
ENDROOT
BRANCH   9  16
ATOM     16  C   UNL     1      -9.706   0.335  -4.560  0.00  0.00    +0.036 A 
ATOM     17  C   UNL     1     -10.513   1.377  -5.018  0.00  0.00    +0.013 A 
ATOM     18  C   UNL     1     -10.994   1.357  -6.310  0.00  0.00    +0.001 A 
ATOM     19  C   UNL     1     -10.680   0.306  -7.154  0.00  0.00    +0.003 A 
ATOM     20  C   UNL     1      -9.882  -0.731  -6.709  0.00  0.00    +0.039 A 
ATOM     21  C   UNL     1      -9.387  -0.721  -5.418  0.00  0.00    +0.133 A 
ATOM     22  F   UNL     1      -8.603  -1.732  -4.985  0.00  0.00    -0.205 F 
ENDBRANCH   9  16
BRANCH  11  23
ATOM     23  N   UNL     1     -12.390   0.558  -2.904  0.00  0.00    -0.343 N 
ATOM     24  H   UNL     1     -12.129   0.389  -3.823  0.00  0.00    +0.144 HD
ATOM     25  H   UNL     1     -13.318   0.744  -2.690  0.00  0.00    +0.144 HD
ENDBRANCH  11  23
BRANCH   1  26
ATOM     26  C   UNL     1      -2.211   1.948  -1.191  0.00  0.00    +0.066 C 
BRANCH  26  27
ATOM     27  C   UNL     1      -1.400   1.600   0.059  0.00  0.00    -0.064 C 
BRANCH  27  29
ATOM     28  C   UNL     1      -0.701   3.875   0.362  0.00  0.00    -0.097 C 
ATOM     29  N   UNL     1      -0.239   2.496   0.154  0.00  0.00    +0.377 N 
ATOM     30  C   UNL     1       0.604   2.086   1.285  0.00  0.00    -0.097 C 
ATOM     31  H   UNL     1       0.296   2.445  -0.700  0.00  0.00    -0.083 HD
ENDBRANCH  27  29
ENDBRANCH  26  27
ENDBRANCH   1  26
BRANCH  12  32
ATOM     32  C   UNL     1     -13.008   0.698   0.032  0.00  0.00    +0.180 C 
BRANCH  32  33
ATOM     33  C   UNL     1     -13.551  -0.683   0.290  0.00  0.00    -0.026 A 
ATOM     34  C   UNL     1     -14.296  -1.326  -0.681  0.00  0.00    +0.005 A 
ATOM     35  C   UNL     1     -14.794  -2.594  -0.444  0.00  0.00    +0.000 A 
ATOM     36  C   UNL     1     -14.547  -3.219   0.764  0.00  0.00    +0.000 A 
ATOM     37  C   UNL     1     -13.802  -2.576   1.735  0.00  0.00    +0.000 A 
ATOM     38  C   UNL     1     -13.300  -1.310   1.497  0.00  0.00    +0.005 A 
ENDBRANCH  32  33
ENDBRANCH  12  32
TORSDOF 7
