REMARK  Name = ZINC16837137
REMARK  5 active torsions:
REMARK  status: ('A' for Active; 'I' for Inactive)
REMARK    1  A    between atoms: C_1  and  O_2
REMARK    2  A    between atoms: O_2  and  C_3
REMARK    3  A    between atoms: C_6  and  C_9
REMARK    4  A    between atoms: N_10  and  N_11
REMARK    5  A    between atoms: C_14  and  C_17
REMARK                            x       y       z     vdW  Elec       q    Type
REMARK                         _______ _______ _______ _____ _____    ______ ____
ROOT
ATOM      1  N   UNL     1      -6.246  -4.566   0.041  0.00  0.00    -0.215 N 
ATOM      2  C   UNL     1      -6.300  -5.950   0.040  0.00  0.00    +0.178 A 
ATOM      3  N   UNL     1      -7.354  -6.746   0.041  0.00  0.00    -0.224 NA
ATOM      4  C   UNL     1      -7.221  -8.064   0.038  0.00  0.00    +0.080 A 
ATOM      5  C   UNL     1      -5.968  -8.611   0.034  0.00  0.00    +0.077 A 
ATOM      6  S   UNL     1      -4.960  -7.134   0.027  0.00  0.00    -0.059 S 
ATOM      7  H   UNL     1      -7.066  -4.049   0.048  0.00  0.00    +0.176 HD
ENDROOT
BRANCH   4   8
ATOM      8  C   UNL     1      -8.419  -8.938   0.040  0.00  0.00    +0.001 A 
ATOM      9  C   UNL     1      -8.273 -10.324   0.044  0.00  0.00    +0.013 A 
ATOM     10  C   UNL     1      -9.391 -11.133   0.046  0.00  0.00    +0.039 A 
ATOM     11  C   UNL     1     -10.657 -10.569   0.043  0.00  0.00    +0.123 A 
ATOM     12  C   UNL     1     -10.806  -9.192   0.040  0.00  0.00    +0.039 A 
ATOM     13  C   UNL     1      -9.694  -8.375   0.044  0.00  0.00    +0.013 A 
ATOM     14  F   UNL     1     -11.748 -11.365   0.044  0.00  0.00    -0.205 F 
ENDBRANCH   4   8
BRANCH   1  16
ATOM     15  C   UNL     1      -4.956  -2.616   0.034  0.00  0.00    +0.138 C 
ATOM     16  N   UNL     1      -5.006  -3.913   0.033  0.00  0.00    -0.188 NA
BRANCH  15  20
ATOM     17  C   UNL     1      -1.200  -0.637   0.010  0.00  0.00    +0.120 A 
ATOM     18  C   UNL     1      -2.374   0.105   0.019  0.00  0.00    +0.046 A 
ATOM     19  C   UNL     1      -3.595  -0.533   0.027  0.00  0.00    +0.013 A 
ATOM     20  C   UNL     1      -3.652  -1.929   0.026  0.00  0.00    -0.005 A 
ATOM     21  C   UNL     1      -2.468  -2.672   0.016  0.00  0.00    +0.013 A 
ATOM     22  C   UNL     1      -1.251  -2.025   0.003  0.00  0.00    +0.046 A 
BRANCH  17  24
ATOM     23  C   UNL     1      -0.017   1.425   0.010  0.00  0.00    +0.277 C 
ATOM     24  O   UNL     1       0.002  -0.004   0.002  0.00  0.00    -0.495 OA
ENDBRANCH  17  24
ENDBRANCH  15  20
ENDBRANCH   1  16
TORSDOF 4
