REMARK  Name = ZINC05825366
REMARK  8 active torsions:
REMARK  status: ('A' for Active; 'I' for Inactive)
REMARK    1  A    between atoms: C_1  and  C_2
REMARK    2  A    between atoms: C_2  and  C_3
REMARK    3  A    between atoms: C_2  and  C_4
REMARK    4  A    between atoms: C_2  and  C_5
REMARK    5  A    between atoms: C_8  and  C_11
REMARK    6  A    between atoms: C_19  and  C_22
REMARK    7  A    between atoms: C_25  and  O_28
REMARK    8  A    between atoms: O_28  and  C_29
REMARK                            x       y       z     vdW  Elec       q    Type
REMARK                         _______ _______ _______ _____ _____    ______ ____
ROOT
ATOM      1  C   UNL     1      -4.347  -0.978   1.188  0.00  0.00    +0.124 C 
ATOM      2  N   UNL     1      -4.862   0.138   1.599  0.00  0.00    -0.299 N 
ATOM      3  C   UNL     1      -4.860   1.310   0.896  0.00  0.00    +0.042 A 
ATOM      4  C   UNL     1      -6.023   2.086   0.948  0.00  0.00    +0.027 A 
ATOM      5  C   UNL     1      -6.099   3.287   0.272  0.00  0.00    +0.040 A 
ATOM      6  C   UNL     1      -5.019   3.736  -0.467  0.00  0.00    +0.124 A 
ATOM      7  C   UNL     1      -3.862   2.979  -0.532  0.00  0.00    +0.050 A 
ATOM      8  C   UNL     1      -3.770   1.761   0.149  0.00  0.00    +0.026 A 
ATOM      9  C   UNL     1      -2.503   1.004   0.019  0.00  0.00    +0.100 C 
ATOM     10  N   UNL     1      -2.455  -0.282  -0.087  0.00  0.00    -0.172 NA
ATOM     11  N   UNL     1      -3.622  -1.054   0.010  0.00  0.00    -0.263 N 
ATOM     12  F   UNL     1      -5.094   4.913  -1.126  0.00  0.00    -0.205 F 
ATOM     13  H   UNL     1      -3.966  -1.703  -0.808  0.00  0.00    +0.190 HD
ATOM     14  H   UNL     1      -5.348   0.189   2.585  0.00  0.00    +0.154 HD
ENDROOT
BRANCH   1  18
ATOM     15  C   UNL     1      -4.901  -4.492   3.506  0.00  0.00    -0.042 A 
ATOM     16  C   UNL     1      -4.178  -4.551   2.327  0.00  0.00    +0.005 A 
ATOM     17  C   UNL     1      -3.995  -3.414   1.569  0.00  0.00    +0.011 A 
ATOM     18  C   UNL     1      -4.540  -2.200   1.994  0.00  0.00    +0.015 A 
ATOM     19  C   UNL     1      -5.263  -2.146   3.187  0.00  0.00    +0.011 A 
ATOM     20  C   UNL     1      -5.444  -3.293   3.933  0.00  0.00    +0.005 A 
BRANCH  15  22
ATOM     21  C   UNL     1      -3.734  -6.288   4.755  0.00  0.00    +0.015 C 
ATOM     22  C   UNL     1      -5.097  -5.739   4.329  0.00  0.00    -0.013 C 
ATOM     23  C   UNL     1      -5.924  -5.405   5.572  0.00  0.00    +0.015 C 
ATOM     24  C   UNL     1      -5.832  -6.790   3.494  0.00  0.00    +0.015 C 
ENDBRANCH  15  22
ENDBRANCH   1  18
BRANCH   9  25
ATOM     25  C   UNL     1      -1.231   1.758   0.017  0.00  0.00    +0.003 A 
ATOM     26  C   UNL     1      -0.090   1.204  -0.567  0.00  0.00    +0.013 A 
ATOM     27  C   UNL     1       1.093   1.913  -0.572  0.00  0.00    +0.046 A 
ATOM     28  C   UNL     1       1.152   3.173   0.008  0.00  0.00    +0.120 A 
ATOM     29  C   UNL     1       0.020   3.725   0.595  0.00  0.00    +0.046 A 
ATOM     30  C   UNL     1      -1.166   3.024   0.605  0.00  0.00    +0.013 A 
BRANCH  28  31
ATOM     31  O   UNL     1       2.319   3.868   0.001  0.00  0.00    -0.495 OA
ATOM     32  C   UNL     1       2.309   5.159   0.615  0.00  0.00    +0.277 C 
ENDBRANCH  28  31
ENDBRANCH   9  25
TORSDOF 4
