REMARK  Name = ZINC45484546
REMARK  10 active torsions:
REMARK  status: ('A' for Active; 'I' for Inactive)
REMARK    1  A    between atoms: C_1  and  C_2
REMARK    2  A    between atoms: C_2  and  C_3
REMARK    3  A    between atoms: C_2  and  C_4
REMARK    4  A    between atoms: C_4  and  C_6
REMARK    5  A    between atoms: C_4  and  N_24
REMARK    6  A    between atoms: C_6  and  N_7
REMARK    7  A    between atoms: N_10  and  N_11
REMARK    8  A    between atoms: C_12  and  C_14
REMARK    9  A    between atoms: N_16  and  C_23
REMARK   10  A    between atoms: N_24  and  C_25
REMARK                            x       y       z     vdW  Elec       q    Type
REMARK                         _______ _______ _______ _____ _____    ______ ____
ROOT
ATOM      1  N   UNL     1      -3.057  -1.200  -1.434  0.00  0.00    -0.296 N 
ATOM      2  C   UNL     1      -3.578  -1.308  -2.672  0.00  0.00    +0.316 C 
ATOM      3  O   UNL     1      -3.027  -0.769  -3.612  0.00  0.00    -0.251 OA
ATOM      4  N   UNL     1      -4.710  -2.013  -2.868  0.00  0.00    -0.218 N 
ATOM      5  H   UNL     1      -3.497  -1.631  -0.683  0.00  0.00    +0.150 HD
ATOM      6  H   UNL     1      -5.085  -2.090  -3.759  0.00  0.00    +0.174 HD
ENDROOT
BRANCH   4   7
ATOM      7  N   UNL     1      -5.345  -2.634  -1.785  0.00  0.00    -0.229 N 
ATOM      8  C   UNL     1      -6.477  -3.338  -1.981  0.00  0.00    +0.262 C 
ATOM      9  O   UNL     1      -6.947  -3.435  -3.099  0.00  0.00    -0.269 OA
ATOM     10  H   UNL     1      -4.970  -2.557  -0.893  0.00  0.00    +0.173 HD
BRANCH   8  11
ATOM     11  C   UNL     1      -7.143  -3.990  -0.845  0.00  0.00    +0.063 A 
ATOM     12  C   UNL     1      -6.742  -3.967   0.459  0.00  0.00    +0.099 A 
ATOM     13  N   UNL     1      -7.609  -4.681   1.217  0.00  0.00    -0.349 N 
ATOM     14  C   UNL     1      -8.617  -5.203   0.434  0.00  0.00    +0.050 A 
ATOM     15  C   UNL     1      -8.379  -4.792  -0.888  0.00  0.00    +0.012 A 
ATOM     16  C   UNL     1      -9.251  -5.172  -1.905  0.00  0.00    +0.011 A 
ATOM     17  C   UNL     1     -10.349  -5.949  -1.607  0.00  0.00    +0.001 A 
ATOM     18  C   UNL     1     -10.588  -6.353  -0.302  0.00  0.00    +0.002 A 
ATOM     19  C   UNL     1      -9.729  -5.991   0.713  0.00  0.00    +0.026 A 
ATOM     20  C   UNL     1      -7.491  -4.872   2.665  0.00  0.00    +0.149 C 
ENDBRANCH   8  11
ENDBRANCH   4   7
BRANCH   1  21
ATOM     21  C   UNL     1      -1.827  -0.434  -1.220  0.00  0.00    +0.128 C 
BRANCH  21  22
ATOM     22  C   UNL     1      -1.454  -0.471   0.263  0.00  0.00    +0.090 C 
BRANCH  22  24
ATOM     23  C   UNL     1      -0.191   1.664  -0.040  0.00  0.00    +0.009 C 
ATOM     24  C   UNL     1      -0.105   0.222   0.467  0.00  0.00    +0.005 C 
ATOM     25  C   UNL     1       0.247   0.225   1.956  0.00  0.00    +0.009 C 
ENDBRANCH  22  24
BRANCH  22  26
ATOM     26  N   UNL     1      -1.360  -1.863   0.709  0.00  0.00    -0.339 N 
ATOM     27  H   UNL     1      -0.893  -2.516   0.164  0.00  0.00    +0.146 HD
BRANCH  26  28
ATOM     28  C   UNL     1      -1.942  -2.250   1.918  0.00  0.00    +0.027 A 
ATOM     29  C   UNL     1      -2.462  -1.292   2.778  0.00  0.00    +0.023 A 
ATOM     30  C   UNL     1      -3.038  -1.678   3.973  0.00  0.00    +0.002 A 
ATOM     31  C   UNL     1      -3.096  -3.017   4.313  0.00  0.00    +0.000 A 
ATOM     32  C   UNL     1      -2.579  -3.974   3.459  0.00  0.00    +0.002 A 
ATOM     33  C   UNL     1      -2.007  -3.595   2.260  0.00  0.00    +0.023 A 
ENDBRANCH  26  28
ENDBRANCH  22  26
ENDBRANCH  21  22
ENDBRANCH   1  21
TORSDOF 7
