REMARK  Name = ZINC15883147
REMARK  6 active torsions:
REMARK  status: ('A' for Active; 'I' for Inactive)
REMARK    1  A    between atoms: C_1  and  C_2
REMARK    2  A    between atoms: C_5  and  C_8
REMARK    3  A    between atoms: C_8  and  N_9
REMARK    4  A    between atoms: C_11  and  C_16
REMARK    5  A    between atoms: N_18  and  C_19
REMARK    6  A    between atoms: C_24  and  C_25
REMARK                            x       y       z     vdW  Elec       q    Type
REMARK                         _______ _______ _______ _____ _____    ______ ____
ROOT
ATOM      1  N   UNL     1      -1.254   3.088   0.093  0.00  0.00    -0.310 N 
ATOM      2  C   UNL     1      -0.117   3.807   0.066  0.00  0.00    +0.102 A 
ATOM      3  C   UNL     1       1.110   3.175   0.048  0.00  0.00    +0.053 A 
ATOM      4  C   UNL     1       1.166   1.760   0.057  0.00  0.00    +0.020 A 
ATOM      5  C   UNL     1       0.003   1.055   0.083  0.00  0.00    +0.071 A 
ATOM      6  C   UNL     1      -1.225   1.743   0.096  0.00  0.00    +0.252 A 
ATOM      7  O   UNL     1      -2.270   1.115   0.115  0.00  0.00    -0.268 OA
ENDROOT
BRANCH   3   8
ATOM      8  C   UNL     1       2.353   3.967   0.020  0.00  0.00    +0.250 C 
ATOM      9  O   UNL     1       2.300   5.182   0.013  0.00  0.00    -0.270 OA
ATOM     10  N   UNL     1       3.549   3.344   0.003  0.00  0.00    -0.281 N 
ATOM     11  H   UNL     1       3.593   2.378   0.074  0.00  0.00    +0.155 HD
BRANCH  10  12
ATOM     12  C   UNL     1       4.719   4.088  -0.117  0.00  0.00    +0.046 A 
ATOM     13  C   UNL     1       4.815   5.339   0.479  0.00  0.00    +0.024 A 
ATOM     14  C   UNL     1       5.978   6.073   0.363  0.00  0.00    +0.002 A 
ATOM     15  C   UNL     1       7.053   5.574  -0.355  0.00  0.00    +0.001 A 
ATOM     16  C   UNL     1       6.974   4.337  -0.958  0.00  0.00    +0.015 A 
ATOM     17  C   UNL     1       5.806   3.580  -0.845  0.00  0.00    +0.058 A 
BRANCH  17  18
ATOM     18  C   UNL     1       5.714   2.256  -1.488  0.00  0.00    +0.243 C 
ATOM     19  O   UNL     1       4.664   1.644  -1.472  0.00  0.00    -0.270 OA
ATOM     20  N   UNL     1       6.795   1.725  -2.093  0.00  0.00    -0.325 N 
ATOM     21  H   UNL     1       7.633   2.213  -2.105  0.00  0.00    +0.145 HD
ATOM     22  H   UNL     1       6.735   0.854  -2.515  0.00  0.00    +0.145 HD
ENDBRANCH  17  18
ENDBRANCH  10  12
ENDBRANCH   3   8
BRANCH   1  23
ATOM     23  C   UNL     1      -2.545   3.781   0.112  0.00  0.00    +0.160 C 
BRANCH  23  28
ATOM     24  C   UNL     1      -4.344   4.654  -5.309  0.00  0.00    +0.044 C 
ATOM     25  C   UNL     1      -3.875   4.426  -3.895  0.00  0.00    -0.050 A 
ATOM     26  C   UNL     1      -4.226   3.267  -3.229  0.00  0.00    +0.004 A 
ATOM     27  C   UNL     1      -3.795   3.058  -1.932  0.00  0.00    +0.005 A 
ATOM     28  C   UNL     1      -3.014   4.008  -1.302  0.00  0.00    -0.028 A 
ATOM     29  C   UNL     1      -2.668   5.170  -1.966  0.00  0.00    +0.005 A 
ATOM     30  C   UNL     1      -3.095   5.377  -3.264  0.00  0.00    +0.004 A 
ENDBRANCH  23  28
ENDBRANCH   1  23
TORSDOF 5
