REMARK  Name = ZINC15852875
REMARK  10 active torsions:
REMARK  status: ('A' for Active; 'I' for Inactive)
REMARK    1  A    between atoms: C_1  and  C_2
REMARK    2  A    between atoms: C_2  and  C_3
REMARK    3  A    between atoms: C_3  and  C_4
REMARK    4  A    between atoms: C_4  and  C_5
REMARK    5  A    between atoms: C_8  and  N_11
REMARK    6  A    between atoms: C_21  and  S_22
REMARK    7  A    between atoms: S_22  and  C_23
REMARK    8  A    between atoms: C_23  and  C_25
REMARK    9  A    between atoms: C_23  and  C_26
REMARK   10  A    between atoms: N_28  and  C_29
REMARK                            x       y       z     vdW  Elec       q    Type
REMARK                         _______ _______ _______ _____ _____    ______ ____
ROOT
ATOM      1  N   UNL     1       2.124   3.438   0.000  0.00  0.00    -0.255 N 
ATOM      2  C   UNL     1       3.359   3.667  -0.505  0.00  0.00    +0.267 A 
ATOM      3  O   UNL     1       3.666   4.758  -0.949  0.00  0.00    -0.267 OA
ATOM      4  C   UNL     1       4.314   2.551  -0.496  0.00  0.00    +0.065 A 
ATOM      5  C   UNL     1       5.610   2.687  -0.993  0.00  0.00    +0.015 A 
ATOM      6  C   UNL     1       6.459   1.616  -0.961  0.00  0.00    +0.001 A 
ATOM      7  C   UNL     1       6.046   0.397  -0.439  0.00  0.00    +0.002 A 
ATOM      8  C   UNL     1       4.782   0.236   0.054  0.00  0.00    +0.028 A 
ATOM      9  C   UNL     1       3.889   1.312   0.036  0.00  0.00    +0.079 A 
ATOM     10  N   UNL     1       2.630   1.199   0.519  0.00  0.00    -0.223 NA
ATOM     11  C   UNL     1       1.794   2.207   0.496  0.00  0.00    +0.177 A 
ENDROOT
BRANCH   1  15
ATOM     12  C   UNL     1      -0.693   6.509   0.043  0.00  0.00    -0.047 A 
ATOM     13  C   UNL     1       0.157   6.337   1.121  0.00  0.00    +0.005 A 
ATOM     14  C   UNL     1       1.091   5.320   1.109  0.00  0.00    +0.026 A 
ATOM     15  C   UNL     1       1.177   4.470   0.015  0.00  0.00    +0.052 A 
ATOM     16  C   UNL     1       0.326   4.649  -1.068  0.00  0.00    +0.026 A 
ATOM     17  C   UNL     1      -0.610   5.664  -1.048  0.00  0.00    +0.005 A 
BRANCH  12  18
ATOM     18  C   UNL     1      -1.712   7.619   0.059  0.00  0.00    +0.035 C 
BRANCH  18  19
ATOM     19  C   UNL     1      -1.099   8.882  -0.549  0.00  0.00    +0.004 C 
BRANCH  19  21
ATOM     20  C   UNL     1      -1.521  11.273  -1.142  0.00  0.00    +0.004 C 
ATOM     21  C   UNL     1      -2.134  10.009  -0.534  0.00  0.00    -0.003 C 
ENDBRANCH  19  21
ENDBRANCH  18  19
ENDBRANCH  12  18
ENDBRANCH   1  15
BRANCH  11  22
ATOM     22  S   UNL     1       0.172   1.968   1.140  0.00  0.00    -0.075 S 
BRANCH  22  23
ATOM     23  C   UNL     1       0.283   0.231   1.636  0.00  0.00    +0.137 C 
ATOM     24  C   UNL     1       0.475  -0.643   0.395  0.00  0.00    +0.029 C 
BRANCH  23  25
ATOM     25  C   UNL     1      -0.985  -0.172   2.343  0.00  0.00    +0.226 C 
ATOM     26  O   UNL     1      -2.019   0.422   2.120  0.00  0.00    -0.275 OA
ATOM     27  N   UNL     1      -0.972  -1.193   3.223  0.00  0.00    -0.310 N 
ATOM     28  H   UNL     1      -0.145  -1.669   3.401  0.00  0.00    +0.149 HD
BRANCH  27  29
ATOM     29  C   UNL     1      -2.205  -1.585   3.910  0.00  0.00    +0.095 C 
ATOM     30  C   UNL     1      -3.005  -2.546   3.015  0.00  0.00    +0.046 C 
ATOM     31  C   UNL     1      -4.131  -3.185   3.876  0.00  0.00    +0.168 C 
ATOM     32  S   UNL     1      -3.221  -3.489   5.449  0.00  0.00    -0.029 S 
ATOM     33  O   UNL     1      -2.685  -4.805   5.427  0.00  0.00    -0.174 OA
ATOM     34  O   UNL     1      -4.036  -3.084   6.541  0.00  0.00    -0.174 OA
ATOM     35  C   UNL     1      -1.850  -2.280   5.246  0.00  0.00    +0.188 C 
ENDBRANCH  27  29
ENDBRANCH  23  25
ENDBRANCH  22  23
ENDBRANCH  11  22
TORSDOF 8
