REMARK  Name = ZINC02142707
REMARK  8 active torsions:
REMARK  status: ('A' for Active; 'I' for Inactive)
REMARK    1  A    between atoms: C_1  and  C_2
REMARK    2  A    between atoms: C_4  and  N_14
REMARK    3  A    between atoms: C_6  and  C_8
REMARK    4  A    between atoms: N_14  and  C_15
REMARK    5  A    between atoms: C_15  and  C_16
REMARK    6  A    between atoms: C_16  and  N_17
REMARK    7  A    between atoms: N_17  and  C_18
REMARK    8  A    between atoms: C_22  and  C_23
REMARK                            x       y       z     vdW  Elec       q    Type
REMARK                         _______ _______ _______ _____ _____    ______ ____
ROOT
ATOM      1  N   UNL     1      -3.827   0.039   7.495  0.00  0.00    -0.326 N 
ATOM      2  H   UNL     1      -4.008   0.978   7.654  0.00  0.00    +0.148 HD
ENDROOT
BRANCH   1   6
ATOM      3  C   UNL     1      -5.963  -1.141  11.774  0.00  0.00    +0.067 C 
ATOM      4  C   UNL     1      -5.251  -1.508  10.498  0.00  0.00    +0.062 A 
ATOM      5  C   UNL     1      -4.872  -0.525   9.601  0.00  0.00    +0.102 A 
ATOM      6  C   UNL     1      -4.219  -0.910   8.426  0.00  0.00    +0.141 A 
ATOM      7  N   UNL     1      -3.975  -2.199   8.218  0.00  0.00    -0.210 NA
ATOM      8  C   UNL     1      -4.349  -3.109   9.106  0.00  0.00    +0.180 A 
ATOM      9  N   UNL     1      -4.975  -2.773  10.225  0.00  0.00    -0.230 NA
ATOM     10 CL   UNL     1      -5.207   1.148   9.922  0.00  0.00    -0.078 Cl
BRANCH   8  11
ATOM     11  C   UNL     1      -4.060  -4.540   8.841  0.00  0.00    +0.108 A 
ATOM     12  C   UNL     1      -4.443  -5.506   9.769  0.00  0.00    +0.031 A 
ATOM     13  C   UNL     1      -4.172  -6.838   9.505  0.00  0.00    +0.004 A 
ATOM     14  C   UNL     1      -3.516  -7.159   8.325  0.00  0.00    +0.020 A 
ATOM     15  C   UNL     1      -3.160  -6.147   7.451  0.00  0.00    +0.111 A 
ATOM     16  N   UNL     1      -3.435  -4.889   7.724  0.00  0.00    -0.252 NA
ENDBRANCH   8  11
ENDBRANCH   1   6
BRANCH   1  17
ATOM     17  C   UNL     1      -3.138  -0.377   6.271  0.00  0.00    +0.121 C 
BRANCH  17  18
ATOM     18  C   UNL     1      -2.818   0.855   5.422  0.00  0.00    +0.121 C 
BRANCH  18  19
ATOM     19  N   UNL     1      -2.129   0.440   4.198  0.00  0.00    -0.329 N 
ATOM     20  H   UNL     1      -1.947  -0.500   4.039  0.00  0.00    +0.147 HD
BRANCH  19  21
ATOM     21  C   UNL     1      -1.735   1.391   3.265  0.00  0.00    +0.097 A 
ATOM     22  C   UNL     1      -1.999   2.737   3.500  0.00  0.00    +0.041 A 
ATOM     23  C   UNL     1      -1.601   3.674   2.563  0.00  0.00    +0.005 A 
ATOM     24  C   UNL     1      -0.946   3.232   1.420  0.00  0.00    +0.030 A 
ATOM     25  C   UNL     1      -0.722   1.881   1.250  0.00  0.00    +0.121 A 
ATOM     26  N   UNL     1      -1.099   0.933   2.149  0.00  0.00    -0.340 N 
ATOM     27  H   UNL     1      -0.915  -0.066   1.998  0.00  0.00    +0.167 HD
BRANCH  25  28
ATOM     28  C   UNL     1      -0.017   1.395   0.010  0.00  0.00    +0.432 C 
ATOM     29  F   UNL     1       0.002  -0.004   0.002  0.00  0.00    -0.165 F 
ATOM     30  F   UNL     1       1.296   1.879  -0.000  0.00  0.00    -0.165 F 
ATOM     31  F   UNL     1      -0.694   1.858  -1.124  0.00  0.00    -0.165 F 
ENDBRANCH  25  28
ENDBRANCH  19  21
ENDBRANCH  18  19
ENDBRANCH  17  18
ENDBRANCH   1  17
TORSDOF 7
