REMARK  Name = ZINC14378977
REMARK  7 active torsions:
REMARK  status: ('A' for Active; 'I' for Inactive)
REMARK    1  A    between atoms: C_1  and  C_2
REMARK    2  A    between atoms: C_2  and  C_4
REMARK    3  A    between atoms: C_9  and  N_10
REMARK    4  A    between atoms: C_11  and  C_13
REMARK    5  A    between atoms: C_13  and  S_14
REMARK    6  A    between atoms: S_14  and  C_15
REMARK    7  A    between atoms: C_18  and  N_21
REMARK                            x       y       z     vdW  Elec       q    Type
REMARK                         _______ _______ _______ _____ _____    ______ ____
ROOT
ATOM      1  N   UNL     1      -1.640  -1.853   0.006  0.00  0.00    -0.284 N 
ATOM      2  C   UNL     1      -1.413  -0.525   0.006  0.00  0.00    +0.227 C 
ATOM      3  O   UNL     1      -2.346   0.250   0.005  0.00  0.00    -0.275 OA
ATOM      4  H   UNL     1      -0.898  -2.473  -0.074  0.00  0.00    +0.155 HD
ENDROOT
BRANCH   1  10
ATOM      5  C   UNL     1      -3.269  -3.607  -0.382  0.00  0.00    +0.038 A 
ATOM      6  C   UNL     1      -4.581  -4.080  -0.259  0.00  0.00    +0.013 A 
ATOM      7  C   UNL     1      -5.537  -3.300   0.353  0.00  0.00    +0.001 A 
ATOM      8  C   UNL     1      -5.207  -2.048   0.850  0.00  0.00    +0.002 A 
ATOM      9  C   UNL     1      -3.918  -1.569   0.741  0.00  0.00    +0.024 A 
ATOM     10  C   UNL     1      -2.940  -2.337   0.122  0.00  0.00    +0.044 A 
BRANCH   5  12
ATOM     11  C   UNL     1      -2.626  -5.742  -1.672  0.00  0.00    +0.091 C 
ATOM     12  C   UNL     1      -2.245  -4.432  -1.033  0.00  0.00    +0.162 C 
ATOM     13  O   UNL     1      -1.091  -4.059  -1.057  0.00  0.00    -0.292 OA
ENDBRANCH   5  12
ENDBRANCH   1  10
BRANCH   2  14
ATOM     14  C   UNL     1       0.001  -0.003   0.007  0.00  0.00    +0.170 C 
BRANCH  14  15
ATOM     15  S   UNL     1      -0.025   1.811   0.006  0.00  0.00    -0.116 S 
BRANCH  15  16
ATOM     16  C   UNL     1       1.678   2.262   0.007  0.00  0.00    +0.008 A 
ATOM     17  C   UNL     1       2.659   1.277   0.014  0.00  0.00    +0.017 A 
ATOM     18  C   UNL     1       3.993   1.634   0.009  0.00  0.00    +0.034 A 
ATOM     19  C   UNL     1       4.354   2.969   0.009  0.00  0.00    +0.126 A 
ATOM     20  C   UNL     1       3.380   3.952   0.008  0.00  0.00    +0.034 A 
ATOM     21  C   UNL     1       2.044   3.603   0.007  0.00  0.00    +0.017 A 
BRANCH  19  22
ATOM     22  N   UNL     1       5.785   3.348   0.011  0.00  0.00    +0.056 N 
ATOM     23  O   UNL     1       6.104   4.523   0.011  0.00  0.00    -0.126 OA
ATOM     24  O   UNL     1       6.643   2.484   0.012  0.00  0.00    -0.126 OA
ENDBRANCH  19  22
ENDBRANCH  15  16
ENDBRANCH  14  15
ENDBRANCH   2  14
TORSDOF 6
