REMARK  Name = ZINC39272313
REMARK  11 active torsions:
REMARK  status: ('A' for Active; 'I' for Inactive)
REMARK    1  A    between atoms: C_1  and  C_2
REMARK    2  A    between atoms: C_4  and  C_16
REMARK    3  A    between atoms: C_8  and  O_14
REMARK    4  A    between atoms: N_12  and  C_13
REMARK    5  A    between atoms: O_14  and  C_15
REMARK    6  A    between atoms: N_20  and  C_21
REMARK    7  A    between atoms: C_21  and  C_23
REMARK    8  A    between atoms: C_23  and  C_24
REMARK    9  A    between atoms: C_24  and  C_25
REMARK   10  A    between atoms: C_28  and  O_31
REMARK   11  A    between atoms: O_31  and  C_32
REMARK                            x       y       z     vdW  Elec       q    Type
REMARK                         _______ _______ _______ _____ _____    ______ ____
ROOT
ATOM      1  C   UNL     1      -0.148  -1.416  -2.056  0.00  0.00    +0.034 A 
ATOM      2  C   UNL     1      -0.449  -1.127  -3.327  0.00  0.00    +0.070 A 
ATOM      3  S   UNL     1      -1.507  -2.491  -3.775  0.00  0.00    -0.060 S 
ATOM      4  C   UNL     1      -1.484  -3.322  -2.314  0.00  0.00    +0.163 A 
ATOM      5  N   UNL     1      -2.101  -4.463  -1.999  0.00  0.00    -0.157 NA
ATOM      6  N   UNL     1      -0.678  -2.554  -1.532  0.00  0.00    -0.339 N 
ATOM      7  H   UNL     1      -0.487  -2.811  -0.617  0.00  0.00    +0.167 HD
ENDROOT
BRANCH   1  10
ATOM      8  C   UNL     1      -0.019   1.526   0.010  0.00  0.00    +0.029 C 
ATOM      9  C   UNL     1       0.002  -0.004   0.002  0.00  0.00    +0.083 C 
ATOM     10  C   UNL     1       0.748  -0.520  -1.239  0.00  0.00    +0.088 C 
ATOM     11  C   UNL     1       1.916  -1.304  -0.683  0.00  0.00    -0.012 A 
ATOM     12  C   UNL     1       2.928  -1.995  -1.321  0.00  0.00    +0.051 A 
ATOM     13  C   UNL     1       3.901  -2.646  -0.579  0.00  0.00    +0.120 A 
ATOM     14  C   UNL     1       3.855  -2.600   0.806  0.00  0.00    +0.047 A 
ATOM     15  C   UNL     1       2.845  -1.911   1.443  0.00  0.00    +0.027 A 
ATOM     16  C   UNL     1       1.862  -1.254   0.700  0.00  0.00    +0.034 A 
ATOM     17  N   UNL     1       0.764  -0.508   1.148  0.00  0.00    -0.329 N 
ATOM     18  C   UNL     1       0.425  -0.267   2.553  0.00  0.00    +0.129 C 
BRANCH  13  19
ATOM     19  O   UNL     1       4.898  -3.326  -1.207  0.00  0.00    -0.495 OA
ATOM     20  C   UNL     1       5.865  -3.972  -0.377  0.00  0.00    +0.277 C 
ENDBRANCH  13  19
ENDBRANCH   1  10
BRANCH   5  21
ATOM     21  C   UNL     1      -1.966  -4.976  -0.783  0.00  0.00    +0.239 C 
ATOM     22  O   UNL     1      -1.279  -4.408   0.045  0.00  0.00    -0.274 OA
BRANCH  21  23
ATOM     23  C   UNL     1      -2.664  -6.264  -0.427  0.00  0.00    +0.102 C 
BRANCH  23  24
ATOM     24  C   UNL     1      -2.345  -6.633   1.023  0.00  0.00    +0.044 C 
BRANCH  24  25
ATOM     25  C   UNL     1      -3.042  -7.921   1.379  0.00  0.00    -0.047 A 
ATOM     26  C   UNL     1      -4.320  -7.891   1.905  0.00  0.00    +0.007 A 
ATOM     27  C   UNL     1      -4.962  -9.069   2.232  0.00  0.00    +0.046 A 
ATOM     28  C   UNL     1      -4.322 -10.284   2.032  0.00  0.00    +0.120 A 
ATOM     29  C   UNL     1      -3.040 -10.312   1.504  0.00  0.00    +0.046 A 
ATOM     30  C   UNL     1      -2.405  -9.130   1.173  0.00  0.00    +0.007 A 
BRANCH  28  31
ATOM     31  O   UNL     1      -4.951 -11.445   2.354  0.00  0.00    -0.495 OA
ATOM     32  C   UNL     1      -4.232 -12.658   2.121  0.00  0.00    +0.277 C 
ENDBRANCH  28  31
ENDBRANCH  24  25
ENDBRANCH  23  24
ENDBRANCH  21  23
ENDBRANCH   5  21
TORSDOF 7
