REMARK  Name = ZINC39637159
REMARK  6 active torsions:
REMARK  status: ('A' for Active; 'I' for Inactive)
REMARK    1  A    between atoms: C_1  and  C_2
REMARK    2  A    between atoms: C_7  and  N_12
REMARK    3  A    between atoms: C_9  and  C_11
REMARK    4  A    between atoms: C_13  and  C_15
REMARK    5  A    between atoms: C_26  and  C_28
REMARK    6  A    between atoms: C_31  and  C_34
REMARK                            x       y       z     vdW  Elec       q    Type
REMARK                         _______ _______ _______ _____ _____    ______ ____
ROOT
ATOM      1  C   UNL     1       0.717  -0.415   6.025  0.00  0.00    +0.100 C 
ATOM      2  C   UNL     1       0.446  -1.838   6.562  0.00  0.00    +0.121 C 
ATOM      3  N   UNL     1       0.552  -1.710   8.034  0.00  0.00    -0.296 N 
ATOM      4  C   UNL     1      -0.087  -0.407   8.338  0.00  0.00    +0.115 C 
ATOM      5  C   UNL     1       0.365   0.522   7.194  0.00  0.00    -0.004 C 
ATOM      6  C   UNL     1      -0.770   1.460   6.795  0.00  0.00    -0.010 C 
ATOM      7  C   UNL     1      -1.062   2.420   7.952  0.00  0.00    -0.082 C 
ATOM      8  N   UNL     1       0.147   3.189   8.269  0.00  0.00    +0.379 N 
ATOM      9  C   UNL     1       1.205   2.288   8.741  0.00  0.00    -0.082 C 
ATOM     10  C   UNL     1       1.593   1.322   7.617  0.00  0.00    -0.010 C 
ATOM     11  C   UNL     1       1.105  -2.580   8.902  0.00  0.00    +0.247 C 
ATOM     12  O   UNL     1       1.691  -3.561   8.487  0.00  0.00    -0.270 OA
ATOM     13  H   UNL     1       0.463   3.673   7.442  0.00  0.00    -0.086 HD
ATOM     14  H   UNL     1      -0.065   3.863   8.990  0.00  0.00    -0.086 HD
ENDROOT
BRANCH  11  15
ATOM     15  C   UNL     1       0.999  -2.342  10.357  0.00  0.00    +0.037 A 
ATOM     16  C   UNL     1      -0.009  -1.518  10.861  0.00  0.00    +0.013 A 
ATOM     17  C   UNL     1      -0.103  -1.301  12.220  0.00  0.00    +0.013 A 
ATOM     18  C   UNL     1       0.799  -1.897  13.083  0.00  0.00    +0.055 A 
ATOM     19  C   UNL     1       1.800  -2.716  12.590  0.00  0.00    +0.013 A 
ATOM     20  C   UNL     1       1.901  -2.946  11.234  0.00  0.00    +0.013 A 
BRANCH  18  21
ATOM     21  C   UNL     1       0.690  -1.655  14.566  0.00  0.00    +0.417 C 
ATOM     22  F   UNL     1      -0.142  -2.624  15.137  0.00  0.00    -0.166 F 
ATOM     23  F   UNL     1       1.961  -1.732  15.146  0.00  0.00    -0.166 F 
ATOM     24  F   UNL     1       0.150  -0.385  14.793  0.00  0.00    -0.166 F 
ENDBRANCH  18  21
ENDBRANCH  11  15
BRANCH   1  26
ATOM     25  N   UNL     1       0.255   0.728   3.880  0.00  0.00    -0.312 N 
ATOM     26  C   UNL     1      -0.163  -0.125   4.837  0.00  0.00    +0.218 C 
ATOM     27  O   UNL     1      -1.248  -0.659   4.742  0.00  0.00    -0.275 OA
ATOM     28  H   UNL     1       1.122   1.155   3.957  0.00  0.00    +0.149 HD
BRANCH  25  34
ATOM     29  C   UNL     1      -2.604   2.671   1.381  0.00  0.00    +0.008 C 
ATOM     30  C   UNL     1      -1.139   2.675   0.943  0.00  0.00    -0.009 C 
ATOM     31  C   UNL     1      -0.923   1.601  -0.126  0.00  0.00    +0.003 C 
ATOM     32  C   UNL     1      -1.280   0.230   0.451  0.00  0.00    +0.002 C 
ATOM     33  C   UNL     1      -0.386  -0.064   1.657  0.00  0.00    +0.022 C 
ATOM     34  C   UNL     1      -0.601   1.009   2.725  0.00  0.00    +0.076 C 
ATOM     35  C   UNL     1      -0.245   2.381   2.149  0.00  0.00    +0.009 C 
ATOM     36  C   UNL     1      -0.460   3.455   3.217  0.00  0.00    +0.009 C 
ENDBRANCH  25  34
ENDBRANCH   1  26
TORSDOF 4
