REMARK  Name = ZINC39675205
REMARK  10 active torsions:
REMARK  status: ('A' for Active; 'I' for Inactive)
REMARK    1  A    between atoms: C_1  and  C_2
REMARK    2  A    between atoms: C_2  and  C_4
REMARK    3  A    between atoms: C_2  and  N_14
REMARK    4  A    between atoms: C_4  and  C_5
REMARK    5  A    between atoms: C_5  and  C_6
REMARK    6  A    between atoms: C_9  and  O_12
REMARK    7  A    between atoms: O_12  and  C_13
REMARK    8  A    between atoms: C_15  and  C_17
REMARK    9  A    between atoms: C_28  and  C_30
REMARK   10  A    between atoms: C_33  and  C_36
REMARK                            x       y       z     vdW  Elec       q    Type
REMARK                         _______ _______ _______ _____ _____    ______ ____
ROOT
ATOM      1  C   UNL     1       2.868  -1.321   3.046  0.00  0.00    +0.100 C 
ATOM      2  C   UNL     1       2.240  -2.732   3.097  0.00  0.00    +0.121 C 
ATOM      3  N   UNL     1       3.211  -3.599   2.390  0.00  0.00    -0.296 N 
ATOM      4  C   UNL     1       4.537  -3.098   2.824  0.00  0.00    +0.115 C 
ATOM      5  C   UNL     1       4.376  -1.566   2.870  0.00  0.00    -0.004 C 
ATOM      6  C   UNL     1       5.146  -0.989   4.054  0.00  0.00    -0.010 C 
ATOM      7  C   UNL     1       6.647  -1.193   3.829  0.00  0.00    -0.082 C 
ATOM      8  N   UNL     1       7.052  -0.527   2.585  0.00  0.00    +0.379 N 
ATOM      9  C   UNL     1       6.376  -1.150   1.441  0.00  0.00    -0.082 C 
ATOM     10  C   UNL     1       4.864  -0.945   1.565  0.00  0.00    -0.010 C 
ATOM     11  C   UNL     1       2.949  -4.615   1.544  0.00  0.00    +0.247 C 
ATOM     12  O   UNL     1       1.806  -4.829   1.186  0.00  0.00    -0.270 OA
ATOM     13  H   UNL     1       6.802   0.450   2.631  0.00  0.00    -0.086 HD
ATOM     14  H   UNL     1       8.051  -0.610   2.470  0.00  0.00    -0.086 HD
ENDROOT
BRANCH  11  15
ATOM     15  C   UNL     1       4.049  -5.470   1.051  0.00  0.00    +0.037 A 
ATOM     16  C   UNL     1       5.255  -5.535   1.752  0.00  0.00    +0.013 A 
ATOM     17  C   UNL     1       6.278  -6.335   1.287  0.00  0.00    +0.013 A 
ATOM     18  C   UNL     1       6.111  -7.072   0.128  0.00  0.00    +0.055 A 
ATOM     19  C   UNL     1       4.919  -7.013  -0.572  0.00  0.00    +0.013 A 
ATOM     20  C   UNL     1       3.886  -6.221  -0.114  0.00  0.00    +0.013 A 
BRANCH  18  21
ATOM     21  C   UNL     1       7.233  -7.944  -0.374  0.00  0.00    +0.417 C 
ATOM     22  F   UNL     1       7.114  -9.223   0.179  0.00  0.00    -0.166 F 
ATOM     23  F   UNL     1       7.167  -8.031  -1.769  0.00  0.00    -0.166 F 
ATOM     24  F   UNL     1       8.460  -7.386  -0.000  0.00  0.00    -0.166 F 
ENDBRANCH  18  21
ENDBRANCH  11  15
BRANCH   1  26
ATOM     25  N   UNL     1       2.337   0.802   1.892  0.00  0.00    -0.312 N 
ATOM     26  C   UNL     1       2.322  -0.546   1.874  0.00  0.00    +0.218 C 
ATOM     27  O   UNL     1       1.869  -1.135   0.916  0.00  0.00    -0.275 OA
ATOM     28  H   UNL     1       2.699   1.273   2.659  0.00  0.00    +0.149 HD
BRANCH  25  30
ATOM     29  C   UNL     1       2.895   1.703  -0.312  0.00  0.00    +0.028 C 
ATOM     30  C   UNL     1       1.807   1.555   0.753  0.00  0.00    +0.070 C 
BRANCH  30  31
ATOM     31  C   UNL     1       1.361   2.942   1.222  0.00  0.00    +0.026 C 
BRANCH  31  32
ATOM     32  C   UNL     1       0.188   2.798   2.194  0.00  0.00    +0.037 C 
BRANCH  32  33
ATOM     33  C   UNL     1      -0.252   4.164   2.656  0.00  0.00    -0.047 A 
ATOM     34  C   UNL     1       0.319   4.728   3.781  0.00  0.00    +0.007 A 
ATOM     35  C   UNL     1      -0.082   5.980   4.207  0.00  0.00    +0.046 A 
ATOM     36  C   UNL     1      -1.059   6.670   3.504  0.00  0.00    +0.120 A 
ATOM     37  C   UNL     1      -1.629   6.102   2.374  0.00  0.00    +0.046 A 
ATOM     38  C   UNL     1      -1.221   4.852   1.950  0.00  0.00    +0.007 A 
BRANCH  36  39
ATOM     39  O   UNL     1      -1.456   7.901   3.921  0.00  0.00    -0.495 OA
ATOM     40  C   UNL     1      -2.465   8.553   3.148  0.00  0.00    +0.277 C 
ENDBRANCH  36  39
ENDBRANCH  32  33
ENDBRANCH  31  32
ENDBRANCH  30  31
ENDBRANCH  25  30
ENDBRANCH   1  26
TORSDOF 8
