REMARK  Name = ZINC64449976
REMARK  8 active torsions:
REMARK  status: ('A' for Active; 'I' for Inactive)
REMARK    1  A    between atoms: C_1  and  C_2
REMARK    2  A    between atoms: C_5  and  C_8
REMARK    3  A    between atoms: C_8  and  C_9
REMARK    4  A    between atoms: C_15  and  N_18
REMARK    5  A    between atoms: N_18  and  C_19
REMARK    6  A    between atoms: C_19  and  C_20
REMARK    7  A    between atoms: C_25  and  O_26
REMARK    8  A    between atoms: O_26  and  C_27
REMARK                            x       y       z     vdW  Elec       q    Type
REMARK                         _______ _______ _______ _____ _____    ______ ____
ROOT
ATOM      1  C   UNL     1       1.487  -4.759  -0.032  0.00  0.00    +0.158 A 
ATOM      2  N   UNL     1       2.207  -4.994  -1.122  0.00  0.00    -0.194 NA
ATOM      3  C   UNL     1       3.421  -5.409  -0.777  0.00  0.00    +0.255 A 
ATOM      4  N   UNL     1       4.490  -5.768  -1.492  0.00  0.00    -0.215 NA
ATOM      5  C   UNL     1       5.617  -6.155  -0.915  0.00  0.00    +0.052 A 
ATOM      6  C   UNL     1       5.707  -6.192   0.468  0.00  0.00    +0.014 A 
ATOM      7  C   UNL     1       4.605  -5.825   1.225  0.00  0.00    +0.129 A 
ATOM      8  N   UNL     1       3.465  -5.435   0.588  0.00  0.00    -0.182 N 
ATOM      9  N   UNL     1       2.208  -5.008   1.034  0.00  0.00    -0.147 NA
ATOM     10  C   UNL     1       6.960  -6.607   1.191  0.00  0.00    +0.040 C 
ATOM     11  C   UNL     1       7.892  -7.369   0.250  0.00  0.00    +0.005 C 
ATOM     12  C   UNL     1       8.078  -6.539  -1.025  0.00  0.00    +0.006 C 
ATOM     13  C   UNL     1       6.765  -6.549  -1.807  0.00  0.00    +0.056 C 
ENDROOT
BRANCH   7  14
ATOM     14  N   UNL     1       4.661  -5.856   2.600  0.00  0.00    -0.324 N 
ATOM     15  H   UNL     1       5.476  -6.135   3.046  0.00  0.00    +0.148 HD
BRANCH  14  16
ATOM     16  C   UNL     1       3.490  -5.467   3.390  0.00  0.00    +0.142 C 
BRANCH  16  17
ATOM     17  C   UNL     1       3.811  -5.588   4.858  0.00  0.00    +0.011 A 
ATOM     18  C   UNL     1       3.395  -6.698   5.567  0.00  0.00    +0.009 A 
ATOM     19  C   UNL     1       3.688  -6.809   6.914  0.00  0.00    +0.001 A 
ATOM     20  C   UNL     1       4.400  -5.811   7.553  0.00  0.00    +0.004 A 
ATOM     21  C   UNL     1       4.819  -4.699   6.848  0.00  0.00    +0.046 A 
ATOM     22  C   UNL     1       4.530  -4.588   5.496  0.00  0.00    +0.125 A 
BRANCH  22  23
ATOM     23  O   UNL     1       4.947  -3.498   4.798  0.00  0.00    -0.495 OA
ATOM     24  C   UNL     1       5.682  -2.508   5.520  0.00  0.00    +0.277 C 
ENDBRANCH  22  23
ENDBRANCH  16  17
ENDBRANCH  14  16
ENDBRANCH   7  14
BRANCH   1  25
ATOM     25  C   UNL     1       0.059  -4.275  -0.021  0.00  0.00    +0.113 C 
BRANCH  25  30
ATOM     26  C   UNL     1      -0.018   1.503   0.010  0.00  0.00    +0.044 C 
ATOM     27  C   UNL     1       0.002  -0.004   0.002  0.00  0.00    -0.050 A 
ATOM     28  C   UNL     1       0.006  -0.689  -1.199  0.00  0.00    +0.003 A 
ATOM     29  C   UNL     1       0.025  -2.071  -1.206  0.00  0.00    +0.004 A 
ATOM     30  C   UNL     1       0.040  -2.768  -0.013  0.00  0.00    -0.040 A 
ATOM     31  C   UNL     1       0.037  -2.084   1.188  0.00  0.00    +0.004 A 
ATOM     32  C   UNL     1       0.023  -0.702   1.195  0.00  0.00    +0.003 A 
ENDBRANCH  25  30
ENDBRANCH   1  25
TORSDOF 6
