REMARK  Name = ZINC01394658
REMARK  2 active torsions:
REMARK  status: ('A' for Active; 'I' for Inactive)
REMARK    1  A    between atoms: C_12  and  C_15
REMARK    2  A    between atoms: N_20  and  C_23
REMARK                            x       y       z     vdW  Elec       q    Type
REMARK                         _______ _______ _______ _____ _____    ______ ____
ROOT
ATOM      1  C   UNL     1       1.846   2.041   1.404  0.00  0.00    +0.257 C 
ATOM      2  O   UNL     1       1.155   1.724   2.349  0.00  0.00    -0.272 OA
ATOM      3  N   UNL     1       3.071   2.564   1.610  0.00  0.00    -0.295 N 
ATOM      4  C   UNL     1       3.927   2.950   0.478  0.00  0.00    +0.127 C 
ATOM      5  C   UNL     1       4.408   4.392   0.707  0.00  0.00    +0.124 C 
ATOM      6  N   UNL     1       5.045   4.486   2.027  0.00  0.00    -0.325 N 
ATOM      7  C   UNL     1       4.086   4.202   3.103  0.00  0.00    +0.124 C 
ATOM      8  C   UNL     1       3.589   2.759   2.973  0.00  0.00    +0.127 C 
ENDROOT
BRANCH   1  20
ATOM      9  C   UNL     1       1.823  -4.607  -0.698  0.00  0.00    +0.001 A 
ATOM     10  C   UNL     1       2.839  -3.724  -1.059  0.00  0.00    +0.001 A 
ATOM     11  C   UNL     1       2.660  -2.377  -0.980  0.00  0.00    +0.009 A 
ATOM     12  C   UNL     1       1.431  -1.864  -0.527  0.00  0.00    -0.011 A 
ATOM     13  C   UNL     1       0.397  -2.764  -0.161  0.00  0.00    -0.017 A 
ATOM     14  C   UNL     1       0.620  -4.147  -0.256  0.00  0.00    +0.008 A 
ATOM     15  C   UNL     1      -0.829  -2.248   0.290  0.00  0.00    +0.012 A 
ATOM     16  C   UNL     1      -1.014  -0.905   0.366  0.00  0.00    +0.046 A 
ATOM     17  C   UNL     1       0.002  -0.004   0.002  0.00  0.00    +0.126 A 
ATOM     18  C   UNL     1       1.208  -0.485  -0.429  0.00  0.00    +0.006 A 
ATOM     19  C   UNL     1       2.098   0.709  -0.714  0.00  0.00    +0.093 C 
ATOM     20  C   UNL     1       1.335   1.851  -0.001  0.00  0.00    +0.263 C 
ATOM     21  O   UNL     1      -0.016   1.359   0.009  0.00  0.00    -0.479 OA
ENDBRANCH   1  20
BRANCH   6  22
ATOM     22  C   UNL     1       5.644   5.737   2.207  0.00  0.00    +0.065 A 
ATOM     23  C   UNL     1       4.862   6.884   2.238  0.00  0.00    +0.026 A 
ATOM     24  C   UNL     1       5.456   8.119   2.415  0.00  0.00    +0.002 A 
ATOM     25  C   UNL     1       6.828   8.214   2.562  0.00  0.00    +0.003 A 
ATOM     26  C   UNL     1       7.611   7.074   2.531  0.00  0.00    +0.040 A 
ATOM     27  C   UNL     1       7.022   5.835   2.360  0.00  0.00    +0.144 A 
ATOM     28  F   UNL     1       7.786   4.721   2.337  0.00  0.00    -0.204 F 
ENDBRANCH   6  22
TORSDOF 2
