REMARK  Name = ZINC58351188
REMARK  8 active torsions:
REMARK  status: ('A' for Active; 'I' for Inactive)
REMARK    1  A    between atoms: C_1  and  C_2
REMARK    2  A    between atoms: C_2  and  C_3
REMARK    3  A    between atoms: C_2  and  N_4
REMARK    4  A    between atoms: N_7  and  C_8
REMARK    5  A    between atoms: C_13  and  N_14
REMARK    6  A    between atoms: C_15  and  C_17
REMARK    7  A    between atoms: C_17  and  S_18
REMARK    8  A    between atoms: S_18  and  C_19
REMARK                            x       y       z     vdW  Elec       q    Type
REMARK                         _______ _______ _______ _____ _____    ______ ____
ROOT
ATOM      1  C   UNL     1       4.072  -1.046  -2.313  0.00  0.00    +0.056 A 
ATOM      2  C   UNL     1       4.769  -0.726  -1.158  0.00  0.00    +0.025 A 
ATOM      3  C   UNL     1       6.151  -0.746  -1.157  0.00  0.00    +0.002 A 
ATOM      4  C   UNL     1       6.842  -1.084  -2.306  0.00  0.00    +0.002 A 
ATOM      5  C   UNL     1       6.156  -1.404  -3.462  0.00  0.00    +0.025 A 
ATOM      6  C   UNL     1       4.769  -1.393  -3.470  0.00  0.00    +0.055 A 
ENDROOT
BRANCH   1  10
ATOM      7  N   UNL     1       0.650  -1.068  -1.148  0.00  0.00    -0.297 N 
ATOM      8  C   UNL     1       1.992  -1.198  -1.165  0.00  0.00    +0.304 C 
ATOM      9  O   UNL     1       2.589  -1.468  -0.141  0.00  0.00    -0.253 OA
ATOM     10  N   UNL     1       2.671  -1.027  -2.317  0.00  0.00    -0.268 N 
ATOM     11  H   UNL     1       0.173  -0.852  -1.965  0.00  0.00    +0.151 HD
ATOM     12  H   UNL     1       2.189  -0.891  -3.148  0.00  0.00    +0.156 HD
BRANCH   7  14
ATOM     13  C   UNL     1      -0.098   0.060   0.889  0.00  0.00    +0.027 C 
ATOM     14  C   UNL     1      -0.088  -1.253   0.104  0.00  0.00    +0.068 C 
ATOM     15  C   UNL     1      -1.526  -1.671  -0.209  0.00  0.00    +0.027 C 
ENDBRANCH   7  14
ENDBRANCH   1  10
BRANCH   6  16
ATOM     16  N   UNL     1       4.071  -1.724  -4.639  0.00  0.00    -0.283 N 
ATOM     17  C   UNL     1       4.658  -1.567  -5.842  0.00  0.00    +0.228 C 
ATOM     18  O   UNL     1       5.751  -1.047  -5.920  0.00  0.00    -0.275 OA
ATOM     19  H   UNL     1       3.165  -2.065  -4.582  0.00  0.00    +0.155 HD
BRANCH  17  20
ATOM     20  C   UNL     1       3.957  -2.039  -7.089  0.00  0.00    +0.175 C 
BRANCH  20  21
ATOM     21  S   UNL     1       4.996  -1.690  -8.535  0.00  0.00    -0.058 S 
BRANCH  21  22
ATOM     22  C   UNL     1       4.050  -2.292  -9.895  0.00  0.00    +0.258 A 
ATOM     23  N   UNL     1       2.869  -2.848  -9.799  0.00  0.00    -0.203 NA
ATOM     24  C   UNL     1       2.444  -3.187 -11.047  0.00  0.00    +0.110 A 
ATOM     25  C   UNL     1       1.288  -3.794 -11.540  0.00  0.00    +0.031 A 
ATOM     26  C   UNL     1       1.152  -4.007 -12.894  0.00  0.00    +0.002 A 
ATOM     27  C   UNL     1       2.156  -3.622 -13.769  0.00  0.00    +0.004 A 
ATOM     28  C   UNL     1       3.305  -3.021 -13.295  0.00  0.00    +0.048 A 
ATOM     29  C   UNL     1       3.458  -2.799 -11.936  0.00  0.00    +0.156 A 
ATOM     30  O   UNL     1       4.435  -2.243 -11.183  0.00  0.00    -0.431 OA
ENDBRANCH  21  22
ENDBRANCH  20  21
ENDBRANCH  17  20
ENDBRANCH   6  16
TORSDOF 6
