REMARK  Name = ZINC22472193
REMARK  8 active torsions:
REMARK  status: ('A' for Active; 'I' for Inactive)
REMARK    1  A    between atoms: C_1  and  C_2
REMARK    2  A    between atoms: C_12  and  C_14
REMARK    3  A    between atoms: C_14  and  S_15
REMARK    4  A    between atoms: S_15  and  C_16
REMARK    5  A    between atoms: C_19  and  C_21
REMARK    6  A    between atoms: C_21  and  C_23
REMARK    7  A    between atoms: C_21  and  O_24
REMARK    8  A    between atoms: O_24  and  C_25
REMARK                            x       y       z     vdW  Elec       q    Type
REMARK                         _______ _______ _______ _____ _____    ______ ____
ROOT
ATOM      1  C   UNL     1       1.841  -0.870  -6.123  0.00  0.00    +0.278 A 
ATOM      2  N   UNL     1       2.777  -1.759  -5.890  0.00  0.00    -0.101 NA
ATOM      3  N   UNL     1       3.238  -2.194  -7.009  0.00  0.00    -0.108 NA
ATOM      4  C   UNL     1       2.627  -1.601  -7.992  0.00  0.00    +0.258 A 
ATOM      5  O   UNL     1       1.729  -0.749  -7.459  0.00  0.00    -0.412 OA
ENDROOT
BRANCH   4   6
ATOM      6  C   UNL     1       2.878  -1.824  -9.461  0.00  0.00    +0.257 C 
ATOM      7  C   UNL     1       2.264  -3.159  -9.887  0.00  0.00    +0.062 C 
BRANCH   6   8
ATOM      8  O   UNL     1       4.286  -1.848  -9.705  0.00  0.00    -0.480 OA
BRANCH   8   9
ATOM      9  C   UNL     1       4.701  -1.520 -10.958  0.00  0.00    +0.122 A 
ATOM     10  C   UNL     1       6.056  -1.407 -11.233  0.00  0.00    +0.048 A 
ATOM     11  C   UNL     1       6.477  -1.079 -12.507  0.00  0.00    +0.042 A 
ATOM     12  C   UNL     1       5.546  -0.853 -13.507  0.00  0.00    +0.124 A 
ATOM     13  C   UNL     1       4.193  -0.959 -13.232  0.00  0.00    +0.042 A 
ATOM     14  C   UNL     1       3.770  -1.292 -11.960  0.00  0.00    +0.048 A 
ATOM     15  F   UNL     1       5.958  -0.527 -14.752  0.00  0.00    -0.205 F 
ENDBRANCH   8   9
ENDBRANCH   6   8
ENDBRANCH   4   6
BRANCH   1  16
ATOM     16  S   UNL     1       0.908   0.007  -4.912  0.00  0.00    -0.056 S 
BRANCH  16  17
ATOM     17  C   UNL     1       1.621  -0.690  -3.401  0.00  0.00    +0.175 C 
BRANCH  17  28
ATOM     18  C   UNL     1       0.996   1.603   0.373  0.00  0.00    +0.029 C 
ATOM     19  C   UNL     1       0.758   0.094   0.283  0.00  0.00    +0.083 C 
ATOM     20  C   UNL     1       1.503  -0.632   1.415  0.00  0.00    +0.059 C 
ATOM     21  C   UNL     1       2.473  -1.550   0.706  0.00  0.00    -0.024 A 
ATOM     22  C   UNL     1       3.401  -2.445   1.202  0.00  0.00    +0.005 A 
ATOM     23  C   UNL     1       4.185  -3.183   0.335  0.00  0.00    +0.000 A 
ATOM     24  C   UNL     1       4.038  -3.025  -1.030  0.00  0.00    +0.002 A 
ATOM     25  C   UNL     1       3.113  -2.134  -1.530  0.00  0.00    +0.024 A 
ATOM     26  C   UNL     1       2.317  -1.384  -0.661  0.00  0.00    +0.040 A 
ATOM     27  N   UNL     1       1.329  -0.437  -0.958  0.00  0.00    -0.267 N 
ATOM     28  C   UNL     1       0.957  -0.069  -2.200  0.00  0.00    +0.230 C 
ATOM     29  O   UNL     1       0.087   0.763  -2.350  0.00  0.00    -0.274 OA
ENDBRANCH  17  28
ENDBRANCH  16  17
ENDBRANCH   1  16
TORSDOF 6
