REMARK  Name = ZINC08764653
REMARK  12 active torsions:
REMARK  status: ('A' for Active; 'I' for Inactive)
REMARK    1  A    between atoms: C_1  and  C_2
REMARK    2  A    between atoms: C_3  and  C_21
REMARK    3  A    between atoms: C_9  and  O_19
REMARK    4  A    between atoms: C_15  and  C_17
REMARK    5  A    between atoms: C_15  and  C_18
REMARK    6  A    between atoms: O_19  and  C_20
REMARK    7  A    between atoms: C_21  and  C_22
REMARK    8  A    between atoms: C_22  and  C_23
REMARK    9  A    between atoms: N_25  and  C_26
REMARK   10  A    between atoms: C_26  and  C_27
REMARK   11  A    between atoms: C_27  and  C_28
REMARK   12  A    between atoms: C_27  and  C_29
REMARK                            x       y       z     vdW  Elec       q    Type
REMARK                         _______ _______ _______ _____ _____    ______ ____
ROOT
ATOM      1  C   UNL     1      -1.881   1.064   3.325  0.00  0.00    +0.045 C 
ATOM      2  C   UNL     1      -1.980   2.561   3.467  0.00  0.00    -0.026 A 
ATOM      3  C   UNL     1      -2.634   3.115   4.521  0.00  0.00    +0.041 A 
ATOM      4  C   UNL     1      -2.717   4.516   4.638  0.00  0.00    +0.341 A 
ATOM      5  O   UNL     1      -3.306   5.005   5.586  0.00  0.00    -0.245 OA
ATOM      6  O   UNL     1      -2.158   5.323   3.720  0.00  0.00    -0.421 OA
ATOM      7  C   UNL     1      -1.499   4.812   2.656  0.00  0.00    +0.149 A 
ATOM      8  C   UNL     1      -1.393   3.418   2.501  0.00  0.00    +0.063 A 
ATOM      9  C   UNL     1      -0.709   2.891   1.392  0.00  0.00    +0.134 A 
ATOM     10  C   UNL     1      -0.142   3.748   0.473  0.00  0.00    +0.092 A 
ATOM     11  C   UNL     1      -0.250   5.131   0.630  0.00  0.00    +0.131 A 
ATOM     12  C   UNL     1      -0.925   5.659   1.717  0.00  0.00    +0.038 A 
ATOM     13  C   UNL     1      -1.061   7.148   1.910  0.00  0.00    +0.046 C 
ATOM     14  C   UNL     1      -0.025   7.878   1.051  0.00  0.00    +0.052 C 
ATOM     15  C   UNL     1      -0.081   7.294  -0.366  0.00  0.00    +0.105 C 
ATOM     16  O   UNL     1       0.328   5.927  -0.306  0.00  0.00    -0.486 OA
ATOM     17  C   UNL     1       0.865   8.075  -1.282  0.00  0.00    +0.055 C 
ATOM     18  C   UNL     1      -1.510   7.381  -0.905  0.00  0.00    +0.055 C 
ENDROOT
BRANCH   9  19
ATOM     19  O   UNL     1      -0.602   1.548   1.231  0.00  0.00    -0.494 OA
ATOM     20  C   UNL     1       0.109   1.087   0.079  0.00  0.00    +0.277 C 
ENDBRANCH   9  19
BRANCH   3  21
ATOM     21  C   UNL     1      -3.268   2.231   5.564  0.00  0.00    +0.052 C 
BRANCH  21  22
ATOM     22  C   UNL     1      -4.712   1.922   5.160  0.00  0.00    +0.100 C 
BRANCH  22  23
ATOM     23  C   UNL     1      -5.346   1.038   6.203  0.00  0.00    +0.213 C 
ATOM     24  O   UNL     1      -4.708   0.690   7.173  0.00  0.00    -0.276 OA
ATOM     25  N   UNL     1      -6.624   0.635   6.057  0.00  0.00    -0.315 N 
ATOM     26  H   UNL     1      -7.135   0.913   5.281  0.00  0.00    +0.149 HD
BRANCH  25  27
ATOM     27  C   UNL     1      -7.241  -0.224   7.071  0.00  0.00    +0.107 C 
BRANCH  27  28
ATOM     28  C   UNL     1      -8.684  -0.533   6.667  0.00  0.00    -0.000 C 
ATOM     29  C   UNL     1      -9.289  -1.529   7.659  0.00  0.00    +0.009 C 
ATOM     30  C   UNL     1      -9.505   0.758   6.677  0.00  0.00    +0.009 C 
ENDBRANCH  27  28
ENDBRANCH  25  27
ENDBRANCH  22  23
ENDBRANCH  21  22
ENDBRANCH   3  21
TORSDOF 6
