REMARK  Name = ZINC17081025
REMARK  6 active torsions:
REMARK  status: ('A' for Active; 'I' for Inactive)
REMARK    1  A    between atoms: C_1  and  C_2
REMARK    2  A    between atoms: C_9  and  N_15
REMARK    3  A    between atoms: C_10  and  C_11
REMARK    4  A    between atoms: C_11  and  O_13
REMARK    5  A    between atoms: O_13  and  C_14
REMARK    6  A    between atoms: C_16  and  C_18
REMARK                            x       y       z     vdW  Elec       q    Type
REMARK                         _______ _______ _______ _____ _____    ______ ____
ROOT
ATOM      1  N   UNL     1      -0.209   5.179   0.032  0.00  0.00    -0.275 N 
ATOM      2  C   UNL     1      -0.198   3.831   0.024  0.00  0.00    +0.254 C 
ATOM      3  O   UNL     1      -1.246   3.215   0.030  0.00  0.00    -0.270 OA
ATOM      4  H   UNL     1       0.739   5.737   0.026  0.00  0.00    +0.156 HD
ENDROOT
BRANCH   2   5
ATOM      5  C   UNL     1       1.083   3.107   0.008  0.00  0.00    +0.097 A 
ATOM      6  C   UNL     1       2.281   3.794   0.001  0.00  0.00    +0.030 A 
ATOM      7  C   UNL     1       3.523   3.020  -0.016  0.00  0.00    +0.018 A 
ATOM      8  C   UNL     1       4.764   3.671  -0.025  0.00  0.00    +0.011 A 
ATOM      9  C   UNL     1       5.916   2.937  -0.039  0.00  0.00    +0.001 A 
ATOM     10  C   UNL     1       5.866   1.551  -0.046  0.00  0.00    +0.004 A 
ATOM     11  C   UNL     1       4.654   0.891  -0.038  0.00  0.00    +0.047 A 
ATOM     12  C   UNL     1       3.469   1.616  -0.022  0.00  0.00    +0.137 A 
ATOM     13  O   UNL     1       2.283   0.970  -0.009  0.00  0.00    -0.439 OA
ATOM     14  C   UNL     1       1.111   1.634   0.000  0.00  0.00    +0.205 A 
ATOM     15  N   UNL     1      -0.011   0.966   0.007  0.00  0.00    -0.369 N 
ATOM     16  H   UNL     1       0.004  -0.134   0.001  0.00  0.00    +0.159 HD
ATOM     17  H   UNL     1      -0.971   1.503   0.019  0.00  0.00    +0.159 HD
ENDBRANCH   2   5
BRANCH   1  25
ATOM     18  C   UNL     1      -7.217   8.647   0.214  0.00  0.00    +0.008 C 
ATOM     19  C   UNL     1      -5.740   8.350   0.481  0.00  0.00    -0.009 C 
ATOM     20  C   UNL     1      -4.865   9.285  -0.359  0.00  0.00    +0.008 C 
ATOM     21  C   UNL     1      -3.405   9.168   0.083  0.00  0.00    +0.037 C 
ATOM     22  C   UNL     1      -3.006   7.697   0.071  0.00  0.00    -0.021 A 
ATOM     23  C   UNL     1      -3.941   6.723   0.075  0.00  0.00    -0.004 A 
ATOM     24  S   UNL     1      -3.019   5.211   0.058  0.00  0.00    -0.077 S 
ATOM     25  C   UNL     1      -1.413   5.862   0.046  0.00  0.00    +0.087 A 
ATOM     26  C   UNL     1      -1.628   7.234   0.061  0.00  0.00    +0.091 A 
ATOM     27  C   UNL     1      -5.428   6.898   0.092  0.00  0.00    +0.046 C 
BRANCH  26  28
ATOM     28  C   UNL     1      -0.509   8.178   0.063  0.00  0.00    +0.342 C 
ATOM     29  O   UNL     1      -0.051   8.581  -0.989  0.00  0.00    -0.245 OA
BRANCH  28  30
ATOM     30  O   UNL     1       0.015   8.601   1.232  0.00  0.00    -0.464 OA
ATOM     31  C   UNL     1       1.122   9.537   1.158  0.00  0.00    +0.280 C 
ENDBRANCH  28  30
ENDBRANCH  26  28
ENDBRANCH   1  25
TORSDOF 4
