REMARK  Name = ZINC06194782
REMARK  9 active torsions:
REMARK  status: ('A' for Active; 'I' for Inactive)
REMARK    1  A    between atoms: C_1  and  C_2
REMARK    2  A    between atoms: C_6  and  C_15
REMARK    3  A    between atoms: C_13  and  C_14
REMARK    4  A    between atoms: C_15  and  C_17
REMARK    5  A    between atoms: C_15  and  N_73
REMARK    6  A    between atoms: N_21  and  C_22
REMARK    7  A    between atoms: N_29  and  C_32
REMARK    8  A    between atoms: C_35  and  O_38
REMARK    9  A    between atoms: O_38  and  C_39
REMARK                            x       y       z     vdW  Elec       q    Type
REMARK                         _______ _______ _______ _____ _____    ______ ____
ROOT
ATOM      1  C   UNL     1       2.591  -0.626  -0.056  0.00  0.00    +0.039 C 
ENDROOT
BRANCH   1   7
ATOM      2  C   UNL     1       4.817   0.410   6.986  0.00  0.00    +0.044 C 
ATOM      3  C   UNL     1       4.522  -0.500   5.821  0.00  0.00    -0.047 A 
ATOM      4  C   UNL     1       4.080   0.032   4.642  0.00  0.00    +0.013 A 
ATOM      5  C   UNL     1       3.806  -0.812   3.561  0.00  0.00    -0.001 A 
ATOM      6  C   UNL     1       3.335  -0.277   2.283  0.00  0.00    +0.017 A 
ATOM      7  C   UNL     1       3.081  -1.144   1.271  0.00  0.00    +0.011 A 
ATOM      8  C   UNL     1       3.281  -2.529   1.455  0.00  0.00    +0.251 A 
ATOM      9  O   UNL     1       3.051  -3.290   0.531  0.00  0.00    -0.268 OA
ATOM     10  N   UNL     1       3.718  -3.030   2.624  0.00  0.00    -0.322 N 
ATOM     11  H   UNL     1       3.844  -3.987   2.716  0.00  0.00    +0.169 HD
ATOM     12  C   UNL     1       3.989  -2.202   3.693  0.00  0.00    +0.049 A 
ATOM     13  C   UNL     1       4.440  -2.720   4.902  0.00  0.00    +0.030 A 
ATOM     14  C   UNL     1       4.703  -1.869   5.955  0.00  0.00    -0.046 A 
ATOM     15  C   UNL     1       5.192  -2.432   7.264  0.00  0.00    +0.044 C 
ENDBRANCH   1   7
BRANCH   1  21
ATOM     16  C   UNL     1       4.894  -0.523  -0.796  0.00  0.00    -0.058 C 
ATOM     17  C   UNL     1       5.867  -1.003  -1.876  0.00  0.00    +0.086 C 
ATOM     18  N   UNL     1       5.425  -0.504  -3.186  0.00  0.00    -0.333 N 
ATOM     19  C   UNL     1       4.072  -0.984  -3.500  0.00  0.00    +0.086 C 
ATOM     20  C   UNL     1       3.100  -0.504  -2.421  0.00  0.00    -0.058 C 
ATOM     21  N   UNL     1       3.543  -1.030  -1.112  0.00  0.00    +0.391 N 
ATOM     22  H   UNL     1       3.574  -2.056  -1.158  0.00  0.00    -0.080 HD
BRANCH  18  23
ATOM     23  C   UNL     1       6.331  -0.863  -4.190  0.00  0.00    +0.030 A 
ATOM     24  C   UNL     1       5.895  -1.586  -5.293  0.00  0.00    +0.027 A 
ATOM     25  C   UNL     1       6.788  -1.935  -6.287  0.00  0.00    +0.047 A 
ATOM     26  C   UNL     1       8.123  -1.574  -6.178  0.00  0.00    +0.120 A 
ATOM     27  C   UNL     1       8.561  -0.858  -5.074  0.00  0.00    +0.047 A 
ATOM     28  C   UNL     1       7.668  -0.503  -4.082  0.00  0.00    +0.027 A 
BRANCH  26  29
ATOM     29  O   UNL     1       9.003  -1.924  -7.154  0.00  0.00    -0.495 OA
ATOM     30  C   UNL     1       8.484  -2.662  -8.262  0.00  0.00    +0.277 C 
ENDBRANCH  26  29
ENDBRANCH  18  23
ENDBRANCH   1  21
BRANCH   1  31
ATOM     31  C   UNL     1       2.475   0.876   0.002  0.00  0.00    +0.143 A 
ATOM     32  N   UNL     1       3.461   1.739  -0.030  0.00  0.00    -0.115 NA
ATOM     33  N   UNL     1       2.957   2.922   0.043  0.00  0.00    -0.023 NA
ATOM     34  N   UNL     1       1.674   2.837   0.115  0.00  0.00    -0.044 NA
ATOM     35  N   UNL     1       1.338   1.591   0.098  0.00  0.00    -0.227 N 
BRANCH  35  36
ATOM     36  C   UNL     1      -0.024   1.056   0.165  0.00  0.00    +0.111 C 
ATOM     37  C   UNL     1      -0.718   1.537   1.456  0.00  0.00    +0.027 C 
ATOM     38  C   UNL     1      -1.522   2.785   1.012  0.00  0.00    +0.002 C 
ATOM     39  C   UNL     1      -2.033   2.381  -0.394  0.00  0.00    +0.002 C 
ATOM     40  C   UNL     1      -0.859   1.592  -1.011  0.00  0.00    +0.027 C 
ENDBRANCH  35  36
ENDBRANCH   1  31
TORSDOF 6
