REMARK  Name = ZINC40986193
REMARK  17 active torsions:
REMARK  status: ('A' for Active; 'I' for Inactive)
REMARK    1  A    between atoms: C_1  and  C_2
REMARK    2  A    between atoms: C_2  and  C_3
REMARK    3  A    between atoms: C_3  and  S_4
REMARK    4  A    between atoms: S_4  and  C_7
REMARK    5  A    between atoms: C_10  and  C_14
REMARK    6  A    between atoms: N_16  and  C_17
REMARK    7  A    between atoms: C_17  and  C_18
REMARK    8  A    between atoms: C_18  and  C_20
REMARK    9  A    between atoms: C_18  and  N_30
REMARK   10  A    between atoms: C_23  and  C_26
REMARK   11  A    between atoms: C_26  and  C_27
REMARK   12  A    between atoms: C_26  and  C_28
REMARK   13  A    between atoms: C_26  and  C_29
REMARK   14  A    between atoms: N_30  and  C_31
REMARK   15  A    between atoms: N_30  and  C_33
REMARK   16  A    between atoms: C_31  and  C_32
REMARK   17  A    between atoms: C_33  and  C_34
REMARK                            x       y       z     vdW  Elec       q    Type
REMARK                         _______ _______ _______ _____ _____    ______ ____
ROOT
ATOM      1  C   UNL     1       6.697  -4.600   7.945  0.00  0.00    +0.094 C 
ENDROOT
BRANCH   1   4
ATOM      2  C   UNL     1       4.555  -3.442   7.866  0.00  0.00    +0.248 C 
ATOM      3  O   UNL     1       4.507  -3.505   9.079  0.00  0.00    -0.270 OA
ATOM      4  N   UNL     1       5.632  -3.914   7.209  0.00  0.00    -0.312 N 
ATOM      5  H   UNL     1       5.703  -3.800   6.248  0.00  0.00    +0.149 HD
BRANCH   2   9
ATOM      6  C   UNL     1       1.393  -1.771   5.746  0.00  0.00    +0.272 A 
ATOM      7  N   UNL     1       2.483  -2.127   5.094  0.00  0.00    -0.219 NA
ATOM      8  C   UNL     1       3.512  -2.661   5.728  0.00  0.00    +0.130 A 
ATOM      9  C   UNL     1       3.431  -2.848   7.113  0.00  0.00    +0.092 A 
ATOM     10  C   UNL     1       2.254  -2.455   7.764  0.00  0.00    +0.146 A 
ATOM     11  N   UNL     1       1.275  -1.923   7.050  0.00  0.00    -0.199 NA
ATOM     12 CL   UNL     1       2.085  -2.657   9.480  0.00  0.00    -0.061 Cl
BRANCH   6  13
ATOM     13  S   UNL     1       0.054  -1.062   4.846  0.00  0.00    +0.032 S 
ATOM     14  O   UNL     1      -1.099  -1.355   5.622  0.00  0.00    -0.166 OA
ATOM     15  O   UNL     1       0.191  -1.577   3.528  0.00  0.00    -0.166 OA
BRANCH  13  16
ATOM     16  C   UNL     1       0.379   0.722   4.855  0.00  0.00    +0.175 C 
BRANCH  16  18
ATOM     17  C   UNL     1      -0.459   2.952   4.102  0.00  0.00    +0.005 C 
ATOM     18  C   UNL     1      -0.733   1.447   4.093  0.00  0.00    +0.020 C 
ENDBRANCH  16  18
ENDBRANCH  13  16
ENDBRANCH   6  13
ENDBRANCH   2   9
ENDBRANCH   1   4
BRANCH   1  19
ATOM     19  C   UNL     1       7.854  -4.913   6.994  0.00  0.00    -0.020 C 
BRANCH  19  20
ATOM     20  C   UNL     1       8.939  -5.641   7.746  0.00  0.00    -0.059 A 
ATOM     21  C   UNL     1       8.975  -7.022   7.742  0.00  0.00    +0.002 A 
ATOM     22  C   UNL     1       9.971  -7.689   8.432  0.00  0.00    +0.004 A 
ATOM     23  C   UNL     1      10.930  -6.974   9.125  0.00  0.00    -0.042 A 
ATOM     24  C   UNL     1      10.894  -5.593   9.128  0.00  0.00    +0.004 A 
ATOM     25  C   UNL     1       9.901  -4.926   8.435  0.00  0.00    +0.002 A 
BRANCH  23  26
ATOM     26  C   UNL     1      12.014  -7.702   9.877  0.00  0.00    -0.013 C 
ATOM     27  C   UNL     1      12.824  -8.559   8.903  0.00  0.00    +0.015 C 
ATOM     28  C   UNL     1      12.937  -6.684  10.551  0.00  0.00    +0.015 C 
ATOM     29  C   UNL     1      11.381  -8.600  10.942  0.00  0.00    +0.015 C 
ENDBRANCH  23  26
ENDBRANCH  19  20
BRANCH  19  30
ATOM     30  N   UNL     1       7.369  -5.759   5.895  0.00  0.00    +0.385 N 
ATOM     31  H   UNL     1       6.780  -5.212   5.285  0.00  0.00    -0.081 HD
BRANCH  30  32
ATOM     32  C   UNL     1       8.514  -6.278   5.135  0.00  0.00    -0.081 C 
ATOM     33  C   UNL     1       9.235  -5.120   4.444  0.00  0.00    -0.017 C 
ENDBRANCH  30  32
BRANCH  30  34
ATOM     34  C   UNL     1       6.596  -6.881   6.444  0.00  0.00    -0.081 C 
ATOM     35  C   UNL     1       5.101  -6.583   6.313  0.00  0.00    -0.017 C 
ENDBRANCH  30  34
ENDBRANCH  19  30
ENDBRANCH   1  19
TORSDOF 11
