REMARK  Name = ZINC65003220
REMARK  8 active torsions:
REMARK  status: ('A' for Active; 'I' for Inactive)
REMARK    1  A    between atoms: C_1  and  C_2
REMARK    2  A    between atoms: C_3  and  N_11
REMARK    3  A    between atoms: C_4  and  C_10
REMARK    4  A    between atoms: N_5  and  C_7
REMARK    5  A    between atoms: C_7  and  C_8
REMARK    6  A    between atoms: C_7  and  C_9
REMARK    7  A    between atoms: C_12  and  C_14
REMARK    8  A    between atoms: C_17  and  C_19
REMARK                            x       y       z     vdW  Elec       q    Type
REMARK                         _______ _______ _______ _____ _____    ______ ____
ROOT
ATOM      1  C   UNL     1      -0.104   1.377  -4.150  0.00  0.00    +0.075 A 
ATOM      2  C   UNL     1       0.187   2.623  -4.686  0.00  0.00    +0.021 A 
ATOM      3  C   UNL     1      -0.127   2.865  -5.994  0.00  0.00    +0.017 A 
ATOM      4  C   UNL     1      -0.724   1.856  -6.733  0.00  0.00    +0.020 A 
ATOM      5  S   UNL     1      -0.834   0.530  -5.543  0.00  0.00    -0.084 S 
ENDROOT
BRANCH   4   6
ATOM      6  C   UNL     1      -1.154   1.871  -8.147  0.00  0.00    -0.008 A 
ATOM      7  C   UNL     1      -0.968   3.017  -8.923  0.00  0.00    +0.013 A 
ATOM      8  C   UNL     1      -1.371   3.029 -10.241  0.00  0.00    +0.050 A 
ATOM      9  C   UNL     1      -1.962   1.904 -10.802  0.00  0.00    +0.162 A 
ATOM     10  C   UNL     1      -2.148   0.758 -10.035  0.00  0.00    +0.163 A 
ATOM     11  C   UNL     1      -1.742   0.739  -8.712  0.00  0.00    +0.058 A 
ATOM     12  O   UNL     1      -2.719  -0.355 -10.572  0.00  0.00    -0.485 OA
ATOM     13  C   UNL     1      -3.446  -0.179 -11.793  0.00  0.00    +0.270 C 
ATOM     14  C   UNL     1      -2.598   0.680 -12.739  0.00  0.00    +0.270 C 
ATOM     15  O   UNL     1      -2.356   1.940 -12.104  0.00  0.00    -0.485 OA
ENDBRANCH   4   6
BRANCH   1  17
ATOM     16  N   UNL     1      -0.221  -0.378  -2.464  0.00  0.00    -0.278 N 
ATOM     17  C   UNL     1       0.132   0.881  -2.793  0.00  0.00    +0.255 C 
ATOM     18  O   UNL     1       0.647   1.606  -1.961  0.00  0.00    -0.269 OA
ATOM     19  H   UNL     1      -0.572  -0.976  -3.142  0.00  0.00    +0.155 HD
BRANCH  16  22
ATOM     20  C   UNL     1      -2.007   0.551  -0.088  0.00  0.00    +0.069 C 
ATOM     21  C   UNL     1      -0.864  -0.429  -0.044  0.00  0.00    +0.081 A 
ATOM     22  C   UNL     1      -0.079  -0.824  -1.137  0.00  0.00    +0.077 A 
ATOM     23  C   UNL     1       0.842  -1.715  -0.688  0.00  0.00    +0.058 A 
ATOM     24  N   UNL     1       0.641  -1.874   0.646  0.00  0.00    -0.264 N 
ATOM     25  N   UNL     1      -0.430  -1.052   1.021  0.00  0.00    -0.174 NA
ATOM     26  C   UNL     1       1.895  -2.403  -1.518  0.00  0.00    +0.067 C 
BRANCH  24  27
ATOM     27  C   UNL     1       1.411  -2.746   1.536  0.00  0.00    +0.101 C 
ATOM     28  C   UNL     1       2.065  -1.905   2.634  0.00  0.00    +0.032 C 
ATOM     29  C   UNL     1       0.477  -3.778   2.172  0.00  0.00    +0.032 C 
ENDBRANCH  24  27
ENDBRANCH  16  22
ENDBRANCH   1  17
TORSDOF 4
