REMARK  Name = ZINC63350965
REMARK  9 active torsions:
REMARK  status: ('A' for Active; 'I' for Inactive)
REMARK    1  A    between atoms: C_1  and  C_2
REMARK    2  A    between atoms: C_5  and  S_8
REMARK    3  A    between atoms: S_8  and  N_11
REMARK    4  A    between atoms: N_11  and  C_12
REMARK    5  A    between atoms: C_12  and  C_14
REMARK    6  A    between atoms: C_12  and  C_24
REMARK    7  A    between atoms: C_14  and  C_15
REMARK    8  A    between atoms: C_24  and  O_26
REMARK    9  A    between atoms: O_26  and  C_27
REMARK                            x       y       z     vdW  Elec       q    Type
REMARK                         _______ _______ _______ _____ _____    ______ ____
ROOT
ATOM      1  C   UNL     1       2.520  -4.737   1.123  0.00  0.00    +0.189 C 
ENDROOT
BRANCH   1   2
ATOM      2  N   UNL     1       1.668  -5.084  -0.017  0.00  0.00    -0.176 NA
ATOM      3  H   UNL     1       2.036  -5.579  -0.766  0.00  0.00    +0.149 HD
BRANCH   2   4
ATOM      4  S   UNL     1       0.074  -4.632  -0.028  0.00  0.00    +0.059 S 
ATOM      5  O   UNL     1      -0.465  -5.017   1.229  0.00  0.00    -0.153 OA
ATOM      6  O   UNL     1      -0.468  -5.085  -1.260  0.00  0.00    -0.153 OA
BRANCH   4  11
ATOM      7  C   UNL     1      -0.072   1.397  -0.191  0.00  0.00    +0.044 C 
ATOM      8  C   UNL     1      -0.035  -0.108  -0.150  0.00  0.00    -0.050 A 
ATOM      9  C   UNL     1      -0.019  -0.832  -1.328  0.00  0.00    +0.005 A 
ATOM     10  C   UNL     1       0.015  -2.213  -1.291  0.00  0.00    +0.029 A 
ATOM     11  C   UNL     1       0.033  -2.871  -0.075  0.00  0.00    +0.105 A 
ATOM     12  C   UNL     1       0.017  -2.148   1.103  0.00  0.00    +0.029 A 
ATOM     13  C   UNL     1      -0.012  -0.767   1.065  0.00  0.00    +0.005 A 
ENDBRANCH   4  11
ENDBRANCH   2   4
ENDBRANCH   1   2
BRANCH   1  14
ATOM     14  C   UNL     1       3.915  -4.443   0.635  0.00  0.00    +0.331 C 
ATOM     15  O   UNL     1       4.171  -4.516  -0.543  0.00  0.00    -0.249 OA
BRANCH  14  16
ATOM     16  O   UNL     1       4.874  -4.100   1.511  0.00  0.00    -0.425 OA
BRANCH  16  17
ATOM     17  C   UNL     1       6.139  -3.944   1.042  0.00  0.00    +0.135 A 
ATOM     18  C   UNL     1       6.481  -2.784   0.349  0.00  0.00    +0.047 A 
ATOM     19  C   UNL     1       7.748  -2.611  -0.128  0.00  0.00    +0.015 A 
ATOM     20  C   UNL     1       8.710  -3.606   0.081  0.00  0.00    +0.018 A 
ATOM     21  C   UNL     1      10.078  -3.447  -0.419  0.00  0.00    +0.018 A 
ATOM     22  C   UNL     1      10.967  -4.447  -0.184  0.00  0.00    +0.092 A 
ATOM     23  C   UNL     1      10.558  -5.597   0.524  0.00  0.00    +0.337 A 
ATOM     24  O   UNL     1      11.365  -6.486   0.728  0.00  0.00    -0.245 OA
ATOM     25  O   UNL     1       9.303  -5.735   0.979  0.00  0.00    -0.422 OA
ATOM     26  C   UNL     1       8.372  -4.779   0.780  0.00  0.00    +0.143 A 
ATOM     27  C   UNL     1       7.081  -4.935   1.262  0.00  0.00    +0.093 A 
ENDBRANCH  16  17
ENDBRANCH  14  16
ENDBRANCH   1  14
BRANCH   1  28
ATOM     28  C   UNL     1       2.559  -5.909   2.105  0.00  0.00    +0.065 C 
BRANCH  28  29
ATOM     29  C   UNL     1       1.185  -6.125   2.686  0.00  0.00    -0.039 C 
ATOM     30  C   UNL     1       0.247  -6.996   2.252  0.00  0.00    -0.001 A 
ATOM     31  C   UNL     1       0.224  -7.967   1.151  0.00  0.00    +0.010 A 
ATOM     32  C   UNL     1      -0.885  -8.716   0.960  0.00  0.00    +0.001 A 
ATOM     33  C   UNL     1      -2.012  -8.589   1.784  0.00  0.00    +0.002 A 
ATOM     34  C   UNL     1      -2.066  -7.719   2.815  0.00  0.00    +0.026 A 
ATOM     35  C   UNL     1      -0.955  -6.881   3.108  0.00  0.00    +0.043 A 
ATOM     36  N   UNL     1      -0.767  -5.974   4.035  0.00  0.00    -0.380 N 
ATOM     37  C   UNL     1       0.580  -5.414   3.876  0.00  0.00    +0.144 C 
ATOM     38  H   UNL     1      -1.409  -5.718   4.716  0.00  0.00    +0.160 HD
ENDBRANCH  28  29
ENDBRANCH   1  28
TORSDOF 8
