REMARK  Name = ZINC58872002
REMARK  5 active torsions:
REMARK  status: ('A' for Active; 'I' for Inactive)
REMARK    1  A    between atoms: C_4  and  N_7
REMARK    2  A    between atoms: C_12  and  C_16
REMARK    3  A    between atoms: N_18  and  N_19
REMARK    4  A    between atoms: C_20  and  C_21
REMARK    5  A    between atoms: C_30  and  O_31
REMARK                            x       y       z     vdW  Elec       q    Type
REMARK                         _______ _______ _______ _____ _____    ______ ____
ROOT
ATOM      1  C   UNL     1       8.153  -4.809  -0.110  0.00  0.00    +0.263 C 
ATOM      2  O   UNL     1       7.563  -5.872  -0.116  0.00  0.00    -0.268 OA
ATOM      3  N   UNL     1       9.501  -4.787  -0.119  0.00  0.00    -0.203 N 
ATOM      4  H   UNL     1       9.972  -3.939  -0.114  0.00  0.00    +0.178 HD
ENDROOT
BRANCH   1  10
ATOM      5  N   UNL     1       3.620  -0.649  -0.036  0.00  0.00    -0.321 N 
ATOM      6  C   UNL     1       4.956  -0.046  -0.040  0.00  0.00    +0.141 C 
ATOM      7  C   UNL     1       5.966  -1.166  -0.058  0.00  0.00    -0.025 A 
ATOM      8  C   UNL     1       7.351  -1.141  -0.068  0.00  0.00    +0.006 A 
ATOM      9  C   UNL     1       8.068  -2.319  -0.084  0.00  0.00    +0.013 A 
ATOM     10  C   UNL     1       7.394  -3.542  -0.091  0.00  0.00    +0.039 A 
ATOM     11  C   UNL     1       5.998  -3.560  -0.082  0.00  0.00    +0.018 A 
ATOM     12  C   UNL     1       5.292  -2.373  -0.065  0.00  0.00    -0.025 A 
ATOM     13  C   UNL     1       3.808  -2.103  -0.046  0.00  0.00    +0.141 C 
BRANCH   5  17
ATOM     14  C   UNL     1      -0.017   1.379   0.010  0.00  0.00    +0.000 A 
ATOM     15  C   UNL     1       1.169   2.089   0.002  0.00  0.00    +0.002 A 
ATOM     16  C   UNL     1       2.377   1.420  -0.013  0.00  0.00    +0.023 A 
ATOM     17  C   UNL     1       2.400   0.031  -0.021  0.00  0.00    +0.030 A 
ATOM     18  C   UNL     1       1.206  -0.680  -0.013  0.00  0.00    +0.023 A 
ATOM     19  C   UNL     1       0.002  -0.004   0.002  0.00  0.00    +0.002 A 
ENDBRANCH   5  17
ENDBRANCH   1  10
BRANCH   3  20
ATOM     20  N   UNL     1      10.221  -5.988  -0.137  0.00  0.00    -0.187 NA
ATOM     21  C   UNL     1      11.521  -5.967  -0.146  0.00  0.00    +0.142 C 
BRANCH  21  22
ATOM     22  C   UNL     1      12.277  -7.227  -0.164  0.00  0.00    +0.044 A 
ATOM     23  C   UNL     1      13.738  -7.221  -0.169  0.00  0.00    -0.006 A 
ATOM     24  C   UNL     1      14.464  -6.024  -0.156  0.00  0.00    +0.009 A 
ATOM     25  C   UNL     1      15.827  -6.062  -0.160  0.00  0.00    +0.001 A 
ATOM     26  C   UNL     1      16.508  -7.277  -0.178  0.00  0.00    +0.001 A 
ATOM     27  C   UNL     1      15.833  -8.460  -0.192  0.00  0.00    +0.008 A 
ATOM     28  C   UNL     1      14.428  -8.458  -0.187  0.00  0.00    -0.017 A 
ATOM     29  C   UNL     1      13.697  -9.659  -0.199  0.00  0.00    +0.012 A 
ATOM     30  C   UNL     1      12.338  -9.646  -0.195  0.00  0.00    +0.046 A 
ATOM     31  C   UNL     1      11.615  -8.455  -0.172  0.00  0.00    +0.126 A 
BRANCH  31  32
ATOM     32  O   UNL     1      10.258  -8.489  -0.162  0.00  0.00    -0.506 OA
ATOM     33  H   UNL     1       9.858  -8.490  -1.042  0.00  0.00    +0.292 HD
ENDBRANCH  31  32
ENDBRANCH  21  22
ENDBRANCH   3  20
TORSDOF 5
