REMARK  Name = ZINC17143435
REMARK  7 active torsions:
REMARK  status: ('A' for Active; 'I' for Inactive)
REMARK    1  A    between atoms: C_1  and  C_2
REMARK    2  A    between atoms: C_2  and  C_21
REMARK    3  A    between atoms: N_3  and  N_4
REMARK    4  A    between atoms: C_5  and  C_7
REMARK    5  A    between atoms: C_25  and  N_27
REMARK    6  A    between atoms: N_27  and  S_28
REMARK    7  A    between atoms: S_28  and  C_31
REMARK                            x       y       z     vdW  Elec       q    Type
REMARK                         _______ _______ _______ _____ _____    ______ ____
ROOT
ATOM      1  C   UNL     1       3.926   5.189  -3.117  0.00  0.00    +0.068 C 
ATOM      2  C   UNL     1       4.218   3.899  -3.838  0.00  0.00    +0.063 C 
ATOM      3  N   UNL     1       4.044   2.764  -3.234  0.00  0.00    -0.185 NA
ENDROOT
BRANCH   2   4
ATOM      4  C   UNL     1       4.700   3.926  -5.232  0.00  0.00    -0.001 A 
ATOM      5  C   UNL     1       4.883   5.146  -5.887  0.00  0.00    +0.010 A 
ATOM      6  C   UNL     1       5.340   5.168  -7.189  0.00  0.00    +0.002 A 
ATOM      7  C   UNL     1       5.607   3.986  -7.853  0.00  0.00    +0.024 A 
ATOM      8  C   UNL     1       5.424   2.766  -7.212  0.00  0.00    +0.049 A 
ATOM      9  C   UNL     1       4.971   2.732  -5.902  0.00  0.00    +0.034 A 
BRANCH   8  10
ATOM     10  N   UNL     1       5.696   1.574  -7.888  0.00  0.00    -0.216 N 
ATOM     11  H   UNL     1       6.209   0.875  -7.453  0.00  0.00    +0.174 HD
BRANCH  10  12
ATOM     12  S   UNL     1       5.142   1.354  -9.434  0.00  0.00    +0.072 S 
ATOM     13  O   UNL     1       5.566   2.484 -10.182  0.00  0.00    -0.150 OA
ATOM     14  O   UNL     1       5.483   0.024  -9.802  0.00  0.00    -0.150 OA
BRANCH  12  15
ATOM     15  C   UNL     1       3.382   1.423  -9.371  0.00  0.00    +0.108 A 
ATOM     16  C   UNL     1       2.656   0.287  -9.064  0.00  0.00    +0.029 A 
ATOM     17  C   UNL     1       1.276   0.343  -9.010  0.00  0.00    +0.002 A 
ATOM     18  C   UNL     1       0.622   1.531  -9.274  0.00  0.00    +0.000 A 
ATOM     19  C   UNL     1       1.347   2.665  -9.586  0.00  0.00    +0.002 A 
ATOM     20  C   UNL     1       2.728   2.611  -9.635  0.00  0.00    +0.029 A 
ENDBRANCH  12  15
ENDBRANCH  10  12
ENDBRANCH   8  10
ENDBRANCH   2   4
BRANCH   3  21
ATOM     21  N   UNL     1       3.585   2.739  -1.910  0.00  0.00    -0.206 N 
ATOM     22  C   UNL     1       3.404   1.560  -1.282  0.00  0.00    +0.244 C 
ATOM     23  O   UNL     1       3.639   0.521  -1.863  0.00  0.00    -0.273 OA
ATOM     24  H   UNL     1       3.398   3.569  -1.446  0.00  0.00    +0.177 HD
BRANCH  22  25
ATOM     25  C   UNL     1       2.911   1.532   0.141  0.00  0.00    +0.143 C 
ATOM     26  C   UNL     1       1.575   2.220   0.216  0.00  0.00    +0.011 A 
ATOM     27  C   UNL     1       1.522   3.602   0.200  0.00  0.00    +0.008 A 
ATOM     28  C   UNL     1       0.304   4.252   0.265  0.00  0.00    +0.001 A 
ATOM     29  C   UNL     1      -0.867   3.521   0.346  0.00  0.00    +0.004 A 
ATOM     30  C   UNL     1      -0.820   2.142   0.360  0.00  0.00    +0.046 A 
ATOM     31  C   UNL     1       0.404   1.485   0.300  0.00  0.00    +0.133 A 
ATOM     32  O   UNL     1       0.429   0.131   0.320  0.00  0.00    -0.455 OA
ATOM     33  C   UNL     1       1.564  -0.523   0.667  0.00  0.00    +0.133 A 
ATOM     34  C   UNL     1       2.797   0.104   0.600  0.00  0.00    +0.011 A 
ATOM     35  C   UNL     1       3.942  -0.587   0.957  0.00  0.00    +0.008 A 
ATOM     36  C   UNL     1       3.857  -1.899   1.383  0.00  0.00    +0.001 A 
ATOM     37  C   UNL     1       2.627  -2.526   1.453  0.00  0.00    +0.004 A 
ATOM     38  C   UNL     1       1.482  -1.843   1.097  0.00  0.00    +0.046 A 
ENDBRANCH  22  25
ENDBRANCH   3  21
TORSDOF 6
