REMARK  Name = ZINC44989496
REMARK  4 active torsions:
REMARK  status: ('A' for Active; 'I' for Inactive)
REMARK    1  A    between atoms: C_3  and  C_9
REMARK    2  A    between atoms: C_6  and  C_7
REMARK    3  A    between atoms: C_15  and  C_19
REMARK    4  A    between atoms: N_21  and  C_22
REMARK                            x       y       z     vdW  Elec       q    Type
REMARK                         _______ _______ _______ _____ _____    ______ ____
ROOT
ATOM      1  C   UNL     1       3.655   2.172  -0.023  0.00  0.00    +0.139 A 
ATOM      2  N   UNL     1       4.905   1.613  -0.044  0.00  0.00    -0.338 N 
ATOM      3  H   UNL     1       5.110   0.665  -0.055  0.00  0.00    +0.167 HD
ATOM      4  C   UNL     1       5.816   2.647  -0.046  0.00  0.00    +0.067 A 
ATOM      5  C   UNL     1       7.205   2.703  -0.063  0.00  0.00    +0.028 A 
ATOM      6  C   UNL     1       7.843   3.909  -0.059  0.00  0.00    +0.015 A 
ATOM      7  C   UNL     1       7.108   5.102  -0.039  0.00  0.00    +0.039 A 
ATOM      8  C   UNL     1       5.718   5.067  -0.023  0.00  0.00    +0.043 A 
ATOM      9  C   UNL     1       5.061   3.835  -0.026  0.00  0.00    +0.090 A 
ATOM     10  N   UNL     1       3.753   3.479  -0.018  0.00  0.00    -0.228 NA
ENDROOT
BRANCH   1  13
ATOM     11  C   UNL     1      -0.017   1.393   0.010  0.00  0.00    +0.019 A 
ATOM     12  C   UNL     1       1.166   2.098   0.002  0.00  0.00    +0.013 A 
ATOM     13  C   UNL     1       2.385   1.416  -0.014  0.00  0.00    +0.017 A 
ATOM     14  C   UNL     1       2.404   0.019  -0.021  0.00  0.00    +0.013 A 
ATOM     15  C   UNL     1       1.222  -0.686  -0.013  0.00  0.00    +0.019 A 
ATOM     16  C   UNL     1       0.002  -0.004   0.002  0.00  0.00    +0.052 A 
BRANCH  16  17
ATOM     17  C   UNL     1      -1.228  -0.737   0.010  0.00  0.00    +0.099 C 
ATOM     18  N   UNL     1      -2.204  -1.319   0.016  0.00  0.00    -0.191 NA
ENDBRANCH  16  17
ENDBRANCH   1  13
BRANCH   7  19
ATOM     19  C   UNL     1       7.812   6.400  -0.035  0.00  0.00    +0.244 C 
ATOM     20  O   UNL     1       7.176   7.436  -0.017  0.00  0.00    -0.270 OA
ATOM     21  N   UNL     1       9.159   6.436  -0.050  0.00  0.00    -0.308 N 
ATOM     22  H   UNL     1       9.666   5.609  -0.064  0.00  0.00    +0.149 HD
BRANCH  21  23
ATOM     23  C   UNL     1       9.857   7.724  -0.046  0.00  0.00    +0.073 C 
ATOM     24  C   UNL     1       9.973   8.246  -1.479  0.00  0.00    +0.022 C 
ATOM     25  C   UNL     1      10.329   9.734  -1.453  0.00  0.00    +0.002 C 
ATOM     26  C   UNL     1       9.476  10.445  -0.401  0.00  0.00    +0.000 C 
ATOM     27  C   UNL     1      10.372  10.930   0.740  0.00  0.00    +0.000 C 
ATOM     28  C   UNL     1      10.759   9.742   1.624  0.00  0.00    +0.000 C 
ATOM     29  C   UNL     1      11.833   8.911   0.919  0.00  0.00    +0.002 C 
ATOM     30  C   UNL     1      11.257   7.544   0.546  0.00  0.00    +0.022 C 
ENDBRANCH  21  23
ENDBRANCH   7  19
TORSDOF 4
