REMARK  Name = ZINC39749757
REMARK  14 active torsions:
REMARK  status: ('A' for Active; 'I' for Inactive)
REMARK    1  A    between atoms: C_1  and  C_2
REMARK    2  A    between atoms: C_2  and  C_3
REMARK    3  A    between atoms: C_2  and  C_4
REMARK    4  A    between atoms: C_4  and  N_5
REMARK    5  A    between atoms: C_6  and  CA_23
REMARK    6  A    between atoms: C_9  and  S_10
REMARK    7  A    between atoms: S_10  and  C_11
REMARK    8  A    between atoms: C_11  and  C_12
REMARK    9  A    between atoms: C_12  and  C_14
REMARK   10  A    between atoms: C_18  and  N_20
REMARK   11  A    between atoms: CA_23  and  C_25
REMARK   12  A    between atoms: CA_23  and  N_27
REMARK   13  A    between atoms: C_25  and  O_26
REMARK   14  A    between atoms: C_28  and  C_30
REMARK                            x       y       z     vdW  Elec       q    Type
REMARK                         _______ _______ _______ _____ _____    ______ ____
ROOT
ATOM      1  N   UNL     1       2.204  -0.006  -1.093  0.00  0.00    -0.304 N 
ATOM      2  C   UNL     1       2.537   1.279  -1.420  0.00  0.00    +0.157 A 
ATOM      3  N   UNL     1       3.818   1.411  -1.221  0.00  0.00    -0.131 NA
ATOM      4  N   UNL     1       4.314   0.304  -0.793  0.00  0.00    -0.122 NA
ATOM      5  C   UNL     1       3.366  -0.598  -0.691  0.00  0.00    +0.192 A 
ENDROOT
BRANCH   1   6
ATOM      6  C   UNL     1       0.874  -0.618  -1.154  0.00  0.00    +0.128 C 
BRANCH   6   8
ATOM      7  C   UNL     1       1.582  -2.260  -2.899  0.00  0.00    +0.009 C 
ATOM      8  C   UNL     1       0.611  -1.124  -2.574  0.00  0.00    +0.003 C 
ATOM      9  C   UNL     1      -0.827  -1.638  -2.674  0.00  0.00    +0.009 C 
ENDBRANCH   6   8
ENDBRANCH   1   6
BRANCH   5  10
ATOM     10  S   UNL     1       3.559  -2.261  -0.141  0.00  0.00    -0.078 S 
BRANCH  10  11
ATOM     11  C   UNL     1       5.328  -2.397   0.234  0.00  0.00    +0.157 C 
BRANCH  11  12
ATOM     12  C   UNL     1       5.633  -3.790   0.722  0.00  0.00    +0.173 C 
ATOM     13  O   UNL     1       4.744  -4.611   0.807  0.00  0.00    -0.291 OA
BRANCH  12  14
ATOM     14  C   UNL     1       7.009  -4.155   1.094  0.00  0.00    +0.020 A 
ATOM     15  C   UNL     1       8.036  -3.210   1.002  0.00  0.00    +0.011 A 
ATOM     16  C   UNL     1       9.323  -3.560   1.353  0.00  0.00    +0.003 A 
ATOM     17  C   UNL     1       9.600  -4.842   1.794  0.00  0.00    +0.033 A 
ATOM     18  C   UNL     1       8.589  -5.783   1.888  0.00  0.00    +0.127 A 
ATOM     19  C   UNL     1       7.296  -5.447   1.546  0.00  0.00    +0.044 A 
BRANCH  18  20
ATOM     20  N   UNL     1       8.896  -7.151   2.361  0.00  0.00    +0.056 N 
ATOM     21  O   UNL     1      10.028  -7.446   2.665  0.00  0.00    -0.126 OA
ATOM     22  O   UNL     1       8.014  -7.974   2.443  0.00  0.00    -0.126 OA
ENDBRANCH  18  20
ENDBRANCH  12  14
ENDBRANCH  11  12
ENDBRANCH  10  11
ENDBRANCH   5  10
BRANCH   2  23
ATOM     23  CA  UNL     1       1.597   2.346  -1.920  0.00  0.00    +0.167 C 
BRANCH  23  24
ATOM     24  N   UNL     1       2.243   3.100  -2.997  0.00  0.00    -0.299 N 
ATOM     25  C   UNL     1       1.492   3.732  -3.921  0.00  0.00    +0.245 C 
ATOM     26  O   UNL     1       0.279   3.677  -3.859  0.00  0.00    -0.270 OA
ATOM     27  H   UNL     1       3.210   3.144  -3.046  0.00  0.00    +0.150 HD
BRANCH  25  28
ATOM     28  C   UNL     1       2.143   4.493  -5.008  0.00  0.00    +0.037 A 
ATOM     29  C   UNL     1       3.535   4.554  -5.084  0.00  0.00    +0.014 A 
ATOM     30  C   UNL     1       4.137   5.265  -6.101  0.00  0.00    +0.021 A 
ATOM     31  C   UNL     1       3.363   5.918  -7.045  0.00  0.00    +0.041 A 
ATOM     32  C   UNL     1       1.980   5.862  -6.975  0.00  0.00    +0.021 A 
ATOM     33  C   UNL     1       1.367   5.149  -5.966  0.00  0.00    +0.014 A 
ATOM     34 CL   UNL     1       4.127   6.812  -8.322  0.00  0.00    -0.084 Cl
ENDBRANCH  25  28
ENDBRANCH  23  24
BRANCH  23  35
ATOM     35  C   UNL     1       1.247   3.296  -0.772  0.00  0.00    +0.186 C 
BRANCH  35  36
ATOM     36  O   UNL     1       2.449   3.812  -0.198  0.00  0.00    -0.393 OA
ATOM     37  H   UNL     1       2.303   4.423   0.538  0.00  0.00    +0.209 HD
ENDBRANCH  35  36
ENDBRANCH  23  35
ENDBRANCH   2  23
TORSDOF 12
