REMARK  Name = ZINC12478683
REMARK  13 active torsions:
REMARK  status: ('A' for Active; 'I' for Inactive)
REMARK    1  A    between atoms: C_1  and  C_2
REMARK    2  A    between atoms: C_5  and  C_7
REMARK    3  A    between atoms: N_10  and  C_12
REMARK    4  A    between atoms: C_12  and  C_13
REMARK    5  A    between atoms: N_15  and  C_16
REMARK    6  A    between atoms: N_15  and  C_24
REMARK    7  A    between atoms: C_16  and  C_17
REMARK    8  A    between atoms: C_24  and  C_26
REMARK    9  A    between atoms: C_24  and  C_31
REMARK   10  A    between atoms: N_33  and  C_34
REMARK   11  A    between atoms: C_34  and  C_35
REMARK   12  A    between atoms: C_34  and  C_36
REMARK   13  A    between atoms: C_34  and  C_37
REMARK                            x       y       z     vdW  Elec       q    Type
REMARK                         _______ _______ _______ _____ _____    ______ ____
ROOT
ATOM      1  C   UNL     1       0.291  -3.123  -2.593  0.00  0.00    +0.240 C 
ATOM      2  O   UNL     1      -0.887  -2.971  -2.345  0.00  0.00    -0.273 OA
ATOM      3  N   UNL     1       1.219  -2.825  -1.662  0.00  0.00    -0.280 N 
ENDROOT
BRANCH   1   4
ATOM      4  C   UNL     1       0.716  -3.644  -3.941  0.00  0.00    +0.264 C 
BRANCH   4   8
ATOM      5  C   UNL     1      -2.122  -4.838  -5.668  0.00  0.00    +0.239 A 
ATOM      6  N   UNL     1      -2.041  -3.578  -6.121  0.00  0.00    -0.105 NA
ATOM      7  N   UNL     1      -1.022  -3.031  -5.550  0.00  0.00    -0.045 NA
ATOM      8  N   UNL     1      -0.470  -3.889  -4.766  0.00  0.00    -0.154 N 
ATOM      9  N   UNL     1      -1.119  -5.001  -4.824  0.00  0.00    -0.127 NA
BRANCH   5  14
ATOM     10  C   UNL     1      -4.662  -9.164  -5.873  0.00  0.00    +0.086 C 
ATOM     11  C   UNL     1      -4.248  -7.739  -6.137  0.00  0.00    +0.103 A 
ATOM     12  C   UNL     1      -4.867  -6.883  -6.972  0.00  0.00    +0.045 A 
ATOM     13  C   UNL     1      -4.161  -5.665  -6.914  0.00  0.00    +0.053 A 
ATOM     14  C   UNL     1      -3.134  -5.849  -6.043  0.00  0.00    +0.175 A 
ATOM     15  O   UNL     1      -3.201  -7.111  -5.577  0.00  0.00    -0.457 OA
ENDBRANCH   5  14
ENDBRANCH   4   8
ENDBRANCH   1   4
BRANCH   3  16
ATOM     16  C   UNL     1       0.805  -2.318  -0.351  0.00  0.00    +0.144 C 
BRANCH  16  17
ATOM     17  C   UNL     1       0.451  -3.476   0.546  0.00  0.00    -0.030 A 
ATOM     18  C   UNL     1       1.162  -3.690   1.712  0.00  0.00    +0.008 A 
ATOM     19  C   UNL     1       0.837  -4.751   2.535  0.00  0.00    +0.038 A 
ATOM     20  C   UNL     1      -0.200  -5.601   2.192  0.00  0.00    +0.123 A 
ATOM     21  C   UNL     1      -0.912  -5.386   1.023  0.00  0.00    +0.038 A 
ATOM     22  C   UNL     1      -0.586  -4.324   0.202  0.00  0.00    +0.008 A 
ATOM     23  F   UNL     1      -0.518  -6.639   2.995  0.00  0.00    -0.205 F 
ENDBRANCH  16  17
ENDBRANCH   3  16
BRANCH   3  24
ATOM     24  C   UNL     1       2.641  -3.007  -1.962  0.00  0.00    +0.199 C 
BRANCH  24  25
ATOM     25  C   UNL     1       3.375  -1.714  -1.721  0.00  0.00    +0.019 A 
ATOM     26  C   UNL     1       4.225  -1.048  -2.541  0.00  0.00    +0.013 A 
ATOM     27  C   UNL     1       4.786   0.138  -2.106  0.00  0.00    +0.008 A 
ATOM     28  C   UNL     1       4.479   0.595  -0.868  0.00  0.00    +0.045 A 
ATOM     29  S   UNL     1       3.358  -0.663  -0.277  0.00  0.00    -0.099 S 
ENDBRANCH  24  25
BRANCH  24  30
ATOM     30  C   UNL     1       3.209  -4.081  -1.069  0.00  0.00    +0.239 C 
ATOM     31  O   UNL     1       2.792  -4.212   0.063  0.00  0.00    -0.273 OA
ATOM     32  N   UNL     1       4.179  -4.895  -1.528  0.00  0.00    -0.309 N 
ATOM     33  H   UNL     1       4.513  -4.790  -2.432  0.00  0.00    +0.149 HD
BRANCH  32  34
ATOM     34  C   UNL     1       4.731  -5.939  -0.660  0.00  0.00    +0.026 C 
ATOM     35  C   UNL     1       3.614  -6.896  -0.239  0.00  0.00    +0.031 C 
ATOM     36  C   UNL     1       5.809  -6.715  -1.418  0.00  0.00    +0.031 C 
ATOM     37  C   UNL     1       5.346  -5.295   0.585  0.00  0.00    +0.031 C 
ENDBRANCH  32  34
ENDBRANCH  24  30
ENDBRANCH   3  24
TORSDOF 9
