REMARK  Name = ZINC60211590
REMARK  11 active torsions:
REMARK  status: ('A' for Active; 'I' for Inactive)
REMARK    1  A    between atoms: C_1  and  C_2
REMARK    2  A    between atoms: C_2  and  N_3
REMARK    3  A    between atoms: N_3  and  C_4
REMARK    4  A    between atoms: N_3  and  C_6
REMARK    5  A    between atoms: C_4  and  C_5
REMARK    6  A    between atoms: C_6  and  C_7
REMARK    7  A    between atoms: C_10  and  C_12
REMARK    8  A    between atoms: N_14  and  N_15
REMARK    9  A    between atoms: C_16  and  C_18
REMARK   10  A    between atoms: N_23  and  S_24
REMARK   11  A    between atoms: S_24  and  C_27
REMARK                            x       y       z     vdW  Elec       q    Type
REMARK                         _______ _______ _______ _____ _____    ______ ____
ROOT
ATOM      1  N   UNL     1       0.785  -4.330  -5.537  0.00  0.00    -0.233 N 
ATOM      2  C   UNL     1      -0.070  -4.003  -6.526  0.00  0.00    +0.248 C 
ATOM      3  O   UNL     1      -1.079  -3.378  -6.274  0.00  0.00    -0.273 OA
ATOM      4  H   UNL     1       1.592  -4.829  -5.739  0.00  0.00    +0.173 HD
ENDROOT
BRANCH   2   5
ATOM      5  C   UNL     1       0.227  -4.413  -7.946  0.00  0.00    +0.167 C 
ATOM      6  C   UNL     1       1.071  -3.325  -8.641  0.00  0.00    +0.031 C 
ATOM      7  C   UNL     1       0.489  -3.299 -10.079  0.00  0.00    +0.019 C 
ATOM      8  C   UNL     1      -1.012  -3.571  -9.812  0.00  0.00    +0.110 C 
ATOM      9  N   UNL     1      -1.028  -4.545  -8.701  0.00  0.00    -0.165 NA
BRANCH   9  10
ATOM     10  S   UNL     1      -2.252  -5.607  -8.361  0.00  0.00    +0.062 S 
ATOM     11  O   UNL     1      -2.063  -6.028  -7.016  0.00  0.00    -0.153 OA
ATOM     12  O   UNL     1      -3.455  -4.997  -8.806  0.00  0.00    -0.153 OA
BRANCH  10  13
ATOM     13  C   UNL     1      -2.004  -7.029  -9.372  0.00  0.00    +0.106 A 
ATOM     14  C   UNL     1      -2.484  -7.046 -10.669  0.00  0.00    +0.031 A 
ATOM     15  C   UNL     1      -2.290  -8.160 -11.463  0.00  0.00    +0.040 A 
ATOM     16  C   UNL     1      -1.614  -9.259 -10.961  0.00  0.00    +0.124 A 
ATOM     17  C   UNL     1      -1.134  -9.240  -9.662  0.00  0.00    +0.040 A 
ATOM     18  C   UNL     1      -1.325  -8.123  -8.871  0.00  0.00    +0.031 A 
ATOM     19  F   UNL     1      -1.425 -10.348 -11.736  0.00  0.00    -0.205 F 
ENDBRANCH  10  13
ENDBRANCH   9  10
ENDBRANCH   2   5
BRANCH   1  22
ATOM     20  C   UNL     1       1.365  -4.275  -3.229  0.00  0.00    +0.295 C 
ATOM     21  O   UNL     1       2.377  -4.902  -3.482  0.00  0.00    -0.265 OA
ATOM     22  N   UNL     1       0.509  -3.948  -4.218  0.00  0.00    -0.228 N 
ATOM     23  H   UNL     1      -0.297  -3.449  -4.016  0.00  0.00    +0.173 HD
BRANCH  20  27
ATOM     24  C   UNL     1       0.067  -2.999  -0.107  0.00  0.00    +0.090 A 
ATOM     25  C   UNL     1       1.200  -3.576   0.350  0.00  0.00    +0.043 A 
ATOM     26  C   UNL     1       1.853  -4.140  -0.757  0.00  0.00    +0.055 A 
ATOM     27  C   UNL     1       1.076  -3.876  -1.848  0.00  0.00    +0.191 A 
ATOM     28  O   UNL     1      -0.007  -3.187  -1.431  0.00  0.00    -0.457 OA
BRANCH  24  29
ATOM     29  C   UNL     1      -0.949  -2.271   0.734  0.00  0.00    -0.003 C 
BRANCH  29  30
ATOM     30  N   UNL     1      -0.597  -0.846   0.802  0.00  0.00    +0.384 N 
ATOM     31  H   UNL     1       0.349  -0.749   1.139  0.00  0.00    -0.081 HD
BRANCH  30  33
ATOM     32  C   UNL     1      -0.206   1.195  -0.494  0.00  0.00    -0.017 C 
ATOM     33  C   UNL     1      -0.704  -0.252  -0.537  0.00  0.00    -0.082 C 
ENDBRANCH  30  33
BRANCH  30  34
ATOM     34  C   UNL     1      -1.517  -0.158   1.718  0.00  0.00    -0.082 C 
ATOM     35  C   UNL     1      -1.304  -0.679   3.140  0.00  0.00    -0.017 C 
ENDBRANCH  30  34
ENDBRANCH  29  30
ENDBRANCH  24  29
ENDBRANCH  20  27
ENDBRANCH   1  22
TORSDOF 9
