REMARK  Name = ZINC06190078
REMARK  4 active torsions:
REMARK  status: ('A' for Active; 'I' for Inactive)
REMARK    1  A    between atoms: C_1  and  C_2
REMARK    2  A    between atoms: C_5  and  C_8
REMARK    3  A    between atoms: N_9  and  N_10
REMARK    4  A    between atoms: C_11  and  C_13
REMARK                            x       y       z     vdW  Elec       q    Type
REMARK                         _______ _______ _______ _____ _____    ______ ____
ROOT
ATOM      1  N   UNL     1      -1.070  -3.695   2.518  0.00  0.00    -0.204 N 
ATOM      2  C   UNL     1      -1.327  -2.532   1.887  0.00  0.00    +0.273 C 
ATOM      3  O   UNL     1      -1.233  -1.483   2.488  0.00  0.00    -0.270 OA
ATOM      4  H   UNL     1      -1.145  -4.534   2.038  0.00  0.00    +0.177 HD
ENDROOT
BRANCH   2   5
ATOM      5  C   UNL     1      -1.733  -2.536   0.436  0.00  0.00    +0.265 C 
ATOM      6  C   UNL     1      -0.542  -2.928  -0.471  0.00  0.00    +0.093 C 
ATOM      7  C   UNL     1       0.033  -1.571  -0.832  0.00  0.00    +0.006 A 
ATOM      8  C   UNL     1       1.264  -1.192  -1.382  0.00  0.00    -0.011 A 
ATOM      9  C   UNL     1       2.239  -2.146  -1.723  0.00  0.00    +0.009 A 
ATOM     10  C   UNL     1       3.425  -1.738  -2.252  0.00  0.00    +0.001 A 
ATOM     11  C   UNL     1       3.690  -0.386  -2.463  0.00  0.00    +0.001 A 
ATOM     12  C   UNL     1       2.770   0.566  -2.146  0.00  0.00    +0.008 A 
ATOM     13  C   UNL     1       1.534   0.183  -1.599  0.00  0.00    -0.017 A 
ATOM     14  C   UNL     1       0.555   1.133  -1.261  0.00  0.00    +0.012 A 
ATOM     15  C   UNL     1      -0.630   0.730  -0.737  0.00  0.00    +0.046 A 
ATOM     16  C   UNL     1      -0.908  -0.630  -0.516  0.00  0.00    +0.126 A 
ATOM     17  O   UNL     1      -2.038  -1.204  -0.013  0.00  0.00    -0.479 OA
ENDBRANCH   2   5
BRANCH   1  19
ATOM     18  C   UNL     1      -0.331  -4.797   4.443  0.00  0.00    +0.138 C 
ATOM     19  N   UNL     1      -0.693  -3.692   3.868  0.00  0.00    -0.188 NA
BRANCH  18  24
ATOM     20  C   UNL     1       1.518  -9.221   1.267  0.00  0.00    +0.044 C 
ATOM     21  C   UNL     1       1.033  -8.062   2.099  0.00  0.00    -0.050 A 
ATOM     22  C   UNL     1       0.913  -6.807   1.528  0.00  0.00    +0.004 A 
ATOM     23  C   UNL     1       0.470  -5.742   2.284  0.00  0.00    +0.010 A 
ATOM     24  C   UNL     1       0.143  -5.932   3.628  0.00  0.00    -0.005 A 
ATOM     25  C   UNL     1       0.271  -7.200   4.199  0.00  0.00    +0.010 A 
ATOM     26  C   UNL     1       0.710  -8.258   3.430  0.00  0.00    +0.004 A 
ENDBRANCH  18  24
ENDBRANCH   1  19
TORSDOF 3
