REMARK  Name = ZINC25548141
REMARK  5 active torsions:
REMARK  status: ('A' for Active; 'I' for Inactive)
REMARK    1  A    between atoms: C_4  and  C_7
REMARK    2  A    between atoms: C_7  and  C_8
REMARK    3  A    between atoms: C_7  and  N_14
REMARK    4  A    between atoms: N_14  and  C_15
REMARK    5  A    between atoms: C_15  and  C_16
REMARK                            x       y       z     vdW  Elec       q    Type
REMARK                         _______ _______ _______ _____ _____    ______ ____
ROOT
ATOM      1  N   UNL     1       0.002  -0.004   0.002  0.00  0.00    +0.389 N 
ATOM      2  H   UNL     1       0.087  -0.364  -1.034  0.00  0.00    -0.084 HD
ATOM      3  H   UNL     1       0.862  -0.362   0.587  0.00  0.00    -0.084 HD
ENDROOT
BRANCH   1   4
ATOM      4  C   UNL     1      -0.018   1.465   0.010  0.00  0.00    -0.010 C 
BRANCH   4   8
ATOM      5  C   UNL     1       3.990   2.943  -0.020  0.00  0.00    +0.000 A 
ATOM      6  C   UNL     1       3.031   3.560   0.762  0.00  0.00    +0.000 A 
ATOM      7  C   UNL     1       1.734   3.082   0.772  0.00  0.00    +0.002 A 
ATOM      8  C   UNL     1       1.396   1.986  -0.001  0.00  0.00    -0.057 A 
ATOM      9  C   UNL     1       2.356   1.366  -0.778  0.00  0.00    +0.002 A 
ATOM     10  C   UNL     1       3.651   1.848  -0.792  0.00  0.00    +0.000 A 
ENDBRANCH   4   8
BRANCH   4  11
ATOM     11  C   UNL     1      -0.747   1.964  -1.211  0.00  0.00    -0.057 A 
ATOM     12  C   UNL     1      -0.558   1.342  -2.431  0.00  0.00    +0.002 A 
ATOM     13  C   UNL     1      -1.230   1.797  -3.550  0.00  0.00    +0.000 A 
ATOM     14  C   UNL     1      -2.084   2.880  -3.451  0.00  0.00    +0.000 A 
ATOM     15  C   UNL     1      -2.268   3.505  -2.232  0.00  0.00    +0.000 A 
ATOM     16  C   UNL     1      -1.600   3.047  -1.112  0.00  0.00    +0.002 A 
ENDBRANCH   4  11
ENDBRANCH   1   4
BRANCH   1  17
ATOM     17  C   UNL     1      -1.228  -0.550   0.591  0.00  0.00    -0.044 C 
BRANCH  17  18
ATOM     18  C   UNL     1      -1.171  -2.056   0.565  0.00  0.00    -0.047 A 
ATOM     19  C   UNL     1      -0.926  -2.757   1.730  0.00  0.00    +0.052 A 
ATOM     20  C   UNL     1      -0.874  -4.143   1.710  0.00  0.00    +0.162 A 
ATOM     21  C   UNL     1      -1.071  -4.825   0.515  0.00  0.00    +0.163 A 
ATOM     22  C   UNL     1      -1.315  -4.116  -0.651  0.00  0.00    +0.065 A 
ATOM     23  C   UNL     1      -1.371  -2.734  -0.624  0.00  0.00    +0.023 A 
ATOM     24 BR   UNL     1      -1.712  -1.771  -2.215  0.00  0.00    -0.050 Br
ATOM     25  O   UNL     1      -1.029  -6.185   0.474  0.00  0.00    -0.485 OA
ATOM     26  C   UNL     1      -0.411  -6.843   1.585  0.00  0.00    +0.270 C 
ATOM     27  C   UNL     1      -0.952  -6.214   2.877  0.00  0.00    +0.270 C 
ATOM     28  O   UNL     1      -0.628  -4.819   2.866  0.00  0.00    -0.485 OA
ENDBRANCH  17  18
ENDBRANCH   1  17
TORSDOF 5
