REMARK  Name = ZINC37351279
REMARK  5 active torsions:
REMARK  status: ('A' for Active; 'I' for Inactive)
REMARK    1  A    between atoms: C_1  and  C_2
REMARK    2  A    between atoms: C_7  and  C_8
REMARK    3  A    between atoms: C_9  and  C_15
REMARK    4  A    between atoms: N_11  and  C_14
REMARK    5  A    between atoms: C_12  and  N_13
REMARK                            x       y       z     vdW  Elec       q    Type
REMARK                         _______ _______ _______ _____ _____    ______ ____
ROOT
ATOM      1  C   UNL     1       0.026   0.020   2.494  0.00  0.00    +0.049 A 
ATOM      2  C   UNL     1      -1.113   0.414   3.240  0.00  0.00    +0.104 A 
ATOM      3  N   UNL     1      -0.699   1.035   4.322  0.00  0.00    -0.169 NA
ATOM      4  N   UNL     1       0.700   1.067   4.318  0.00  0.00    -0.253 N 
ATOM      5  C   UNL     1       1.140   0.439   3.198  0.00  0.00    +0.122 A 
ATOM      6  C   UNL     1       1.546   1.671   5.350  0.00  0.00    +0.174 C 
ENDROOT
BRANCH   1  13
ATOM      7  C   UNL     1      -0.018   1.503   0.010  0.00  0.00    +0.044 C 
ATOM      8  C   UNL     1       0.002  -0.004   0.002  0.00  0.00    -0.043 A 
ATOM      9  C   UNL     1       0.006  -0.689  -1.196  0.00  0.00    +0.004 A 
ATOM     10  C   UNL     1       0.024  -2.072  -1.205  0.00  0.00    +0.000 A 
ATOM     11  C   UNL     1       0.039  -2.777  -0.015  0.00  0.00    +0.001 A 
ATOM     12  C   UNL     1       0.036  -2.104   1.189  0.00  0.00    +0.009 A 
ATOM     13  C   UNL     1       0.023  -0.709   1.205  0.00  0.00    -0.010 A 
ENDBRANCH   1  13
BRANCH   2  14
ATOM     14  C   UNL     1      -2.527   0.168   2.866  0.00  0.00    +0.021 A 
ATOM     15  C   UNL     1      -2.830  -0.511   1.687  0.00  0.00    +0.011 A 
ATOM     16  C   UNL     1      -4.147  -0.738   1.344  0.00  0.00    +0.001 A 
ATOM     17  C   UNL     1      -5.167  -0.291   2.166  0.00  0.00    +0.001 A 
ATOM     18  C   UNL     1      -4.873   0.384   3.336  0.00  0.00    +0.020 A 
ATOM     19  C   UNL     1      -3.558   0.611   3.694  0.00  0.00    +0.050 A 
ATOM     20 CL   UNL     1      -3.190   1.452   5.167  0.00  0.00    -0.083 Cl
ENDBRANCH   2  14
BRANCH   5  21
ATOM     21  N   UNL     1       2.465   0.253   2.826  0.00  0.00    -0.343 N 
ATOM     22  H   UNL     1       2.676  -0.210   2.000  0.00  0.00    +0.144 HD
ATOM     23  H   UNL     1       3.179   0.586   3.392  0.00  0.00    +0.144 HD
ENDBRANCH   5  21
TORSDOF 3
