REMARK  Name = ZINC54946812
REMARK  11 active torsions:
REMARK  status: ('A' for Active; 'I' for Inactive)
REMARK    1  A    between atoms: C_1  and  C_2
REMARK    2  A    between atoms: C_5  and  C_30
REMARK    3  A    between atoms: N_8  and  C_10
REMARK    4  A    between atoms: C_10  and  C_11
REMARK    5  A    between atoms: C_10  and  C_12
REMARK    6  A    between atoms: C_10  and  C_13
REMARK    7  A    between atoms: C_13  and  N_14
REMARK    8  A    between atoms: C_15  and  C_17
REMARK    9  A    between atoms: N_19  and  C_20
REMARK   10  A    between atoms: C_23  and  O_27
REMARK   11  A    between atoms: O_27  and  C_28
REMARK                            x       y       z     vdW  Elec       q    Type
REMARK                         _______ _______ _______ _____ _____    ______ ____
ROOT
ATOM      1  N   UNL     1       3.487  -2.426   0.923  0.00  0.00    -0.309 N 
ATOM      2  C   UNL     1       4.774  -2.207   0.586  0.00  0.00    +0.299 C 
ATOM      3  O   UNL     1       5.533  -1.701   1.385  0.00  0.00    -0.265 OA
ATOM      4  H   UNL     1       2.881  -2.831   0.283  0.00  0.00    +0.149 HD
ENDROOT
BRANCH   2   5
ATOM      5  C   UNL     1       5.265  -2.589  -0.772  0.00  0.00    +0.303 C 
ATOM      6  O   UNL     1       4.506  -3.096  -1.572  0.00  0.00    -0.265 OA
ATOM      7  N   UNL     1       6.552  -2.370  -1.109  0.00  0.00    -0.278 N 
ATOM      8  H   UNL     1       7.142  -1.908  -0.494  0.00  0.00    +0.155 HD
BRANCH   7   9
ATOM      9  C   UNL     1       7.035  -2.811  -2.345  0.00  0.00    +0.039 A 
ATOM     10  C   UNL     1       8.331  -3.301  -2.450  0.00  0.00    +0.065 A 
ATOM     11  C   UNL     1       8.808  -3.737  -3.672  0.00  0.00    +0.169 A 
ATOM     12  C   UNL     1       7.993  -3.685  -4.795  0.00  0.00    +0.190 A 
ATOM     13  C   UNL     1       6.698  -3.195  -4.691  0.00  0.00    +0.169 A 
ATOM     14  C   UNL     1       6.218  -2.764  -3.468  0.00  0.00    +0.065 A 
ATOM     15  F   UNL     1       5.905  -3.143  -5.784  0.00  0.00    -0.201 F 
ATOM     16  F   UNL     1      10.068  -4.214  -3.774  0.00  0.00    -0.201 F 
BRANCH  12  17
ATOM     17  O   UNL     1       8.463  -4.114  -5.997  0.00  0.00    -0.490 OA
ATOM     18  C   UNL     1       8.264  -5.492  -6.318  0.00  0.00    +0.277 C 
ENDBRANCH  12  17
ENDBRANCH   7   9
ENDBRANCH   2   5
BRANCH   1  19
ATOM     19  C   UNL     1       3.005  -2.051   2.255  0.00  0.00    +0.092 C 
BRANCH  19  20
ATOM     20  C   UNL     1       1.552  -2.501   2.416  0.00  0.00    -0.055 C 
ATOM     21  C   UNL     1       1.023  -2.039   3.775  0.00  0.00    -0.008 C 
ATOM     22  C   UNL     1       1.477  -4.027   2.331  0.00  0.00    -0.008 C 
BRANCH  20  28
ATOM     23  C   UNL     1       0.137   1.696   0.330  0.00  0.00    +0.005 C 
ATOM     24  C   UNL     1       0.043   0.171   0.254  0.00  0.00    -0.031 C 
ATOM     25  C   UNL     1      -1.425  -0.257   0.351  0.00  0.00    +0.003 C 
ATOM     26  C   UNL     1      -1.502  -1.786   0.354  0.00  0.00    -0.031 C 
ATOM     27  C   UNL     1      -0.661  -2.332   1.510  0.00  0.00    -0.075 C 
ATOM     28  N   UNL     1       0.735  -1.911   1.347  0.00  0.00    +0.384 N 
ATOM     29  C   UNL     1       0.827  -0.447   1.414  0.00  0.00    -0.075 C 
ATOM     30  C   UNL     1      -2.957  -2.224   0.527  0.00  0.00    +0.005 C 
ATOM     31  H   UNL     1       1.078  -2.227   0.452  0.00  0.00    -0.081 HD
ENDBRANCH  20  28
ENDBRANCH  19  20
ENDBRANCH   1  19
TORSDOF 6
