REMARK  Name = ZINC23251111
REMARK  2 active torsions:
REMARK  status: ('A' for Active; 'I' for Inactive)
REMARK    1  A    between atoms: C_4  and  C_6
REMARK    2  A    between atoms: C_19  and  C_21
REMARK                            x       y       z     vdW  Elec       q    Type
REMARK                         _______ _______ _______ _____ _____    ______ ____
ROOT
ATOM      1  C   UNL     1      -0.995   3.060   1.316  0.00  0.00    +0.133 C 
ATOM      2  C   UNL     1      -1.860   3.051   0.052  0.00  0.00    +0.029 C 
ATOM      3  C   UNL     1      -1.011   2.602  -1.139  0.00  0.00    +0.004 C 
ATOM      4  C   UNL     1      -0.498   1.181  -0.895  0.00  0.00    +0.019 C 
ATOM      5  C   UNL     1       0.383   1.168   0.358  0.00  0.00    +0.110 C 
ATOM      6  N   UNL     1      -0.378   1.736   1.480  0.00  0.00    -0.276 N 
ATOM      7  C   UNL     1      -0.510   1.054   2.635  0.00  0.00    +0.308 C 
ATOM      8  O   UNL     1      -1.222   1.489   3.520  0.00  0.00    -0.252 OA
ATOM      9  N   UNL     1       0.145  -0.111   2.809  0.00  0.00    -0.247 N 
ATOM     10  C   UNL     1      -0.082  -0.873   3.950  0.00  0.00    +0.189 A 
ATOM     11  N   UNL     1      -0.884  -0.638   4.974  0.00  0.00    -0.126 NA
ATOM     12  N   UNL     1      -0.981  -1.442   5.943  0.00  0.00    -0.144 NA
ATOM     13  C   UNL     1      -0.269  -2.550   5.971  0.00  0.00    +0.107 A 
ATOM     14  S   UNL     1       0.617  -2.394   4.424  0.00  0.00    -0.035 S 
ATOM     15  H   UNL     1       0.861  -0.458   2.049  0.00  0.00    +0.158 HD
ENDROOT
BRANCH   1  19
ATOM     16  C   UNL     1      -2.526   4.414   4.443  0.00  0.00    +0.119 A 
ATOM     17  C   UNL     1      -3.614   3.603   4.480  0.00  0.00    +0.066 A 
ATOM     18  S   UNL     1      -3.346   2.627   3.007  0.00  0.00    -0.079 S 
ATOM     19  C   UNL     1      -1.855   3.368   2.515  0.00  0.00    +0.099 A 
ATOM     20  N   UNL     1      -1.672   4.270   3.451  0.00  0.00    -0.250 NA
ENDBRANCH   1  19
BRANCH  13  21
ATOM     21  C   UNL     1      -0.215  -3.639   7.010  0.00  0.00    +0.047 C 
ATOM     22  C   UNL     1      -1.586  -3.979   7.618  0.00  0.00    +0.010 C 
ATOM     23  C   UNL     1      -0.867  -4.098   8.974  0.00  0.00    +0.001 C 
ATOM     24  C   UNL     1       0.194  -3.140   8.406  0.00  0.00    +0.010 C 
ENDBRANCH  13  21
TORSDOF 2
