REMARK  Name = ZINC09473074
REMARK  13 active torsions:
REMARK  status: ('A' for Active; 'I' for Inactive)
REMARK    1  A    between atoms: C_1  and  N_58
REMARK    2  A    between atoms: C_2  and  N_58
REMARK    3  A    between atoms: C_3  and  C_4
REMARK    4  A    between atoms: C_3  and  N_58
REMARK    5  A    between atoms: C_4  and  N_5
REMARK    6  A    between atoms: C_11  and  N_15
REMARK    7  A    between atoms: C_18  and  C_20
REMARK    8  A    between atoms: C_20  and  C_21
REMARK    9  A    between atoms: C_21  and  C_22
REMARK   10  A    between atoms: C_22  and  S_23
REMARK   11  A    between atoms: S_23  and  C_24
REMARK   12  A    between atoms: C_27  and  O_30
REMARK   13  A    between atoms: O_30  and  C_31
REMARK                            x       y       z     vdW  Elec       q    Type
REMARK                         _______ _______ _______ _____ _____    ______ ____
ROOT
ATOM      1  N   UNL     1       1.623   3.376   0.005  0.00  0.00    -0.252 N 
ATOM      2  C   UNL     1       2.923   3.855  -0.005  0.00  0.00    +0.168 A 
ATOM      3  N   UNL     1       3.342   5.099  -0.002  0.00  0.00    -0.224 NA
ATOM      4  C   UNL     1       4.652   5.424  -0.013  0.00  0.00    +0.080 A 
ATOM      5  C   UNL     1       5.232   6.714  -0.011  0.00  0.00    +0.031 A 
ATOM      6  C   UNL     1       6.594   6.870  -0.023  0.00  0.00    +0.035 A 
ATOM      7  C   UNL     1       7.449   5.777  -0.037  0.00  0.00    +0.127 A 
ATOM      8  C   UNL     1       6.916   4.500  -0.040  0.00  0.00    +0.050 A 
ATOM      9  C   UNL     1       5.553   4.335  -0.028  0.00  0.00    +0.043 A 
ATOM     10  S   UNL     1       4.457   2.937  -0.017  0.00  0.00    -0.052 S 
ATOM     11  C   UNL     1       1.395   2.047  -0.000  0.00  0.00    +0.221 C 
ATOM     12  O   UNL     1       2.327   1.272  -0.013  0.00  0.00    -0.275 OA
ENDROOT
BRANCH   7  13
ATOM     13  N   UNL     1       8.915   5.974  -0.049  0.00  0.00    +0.056 N 
ATOM     14  O   UNL     1       9.660   5.011  -0.062  0.00  0.00    -0.126 OA
ATOM     15  O   UNL     1       9.378   7.101  -0.047  0.00  0.00    -0.126 OA
ENDBRANCH   7  13
BRANCH   1  16
ATOM     16  C   UNL     1       0.497   4.312   0.021  0.00  0.00    +0.097 C 
BRANCH  16  17
ATOM     17  C   UNL     1       0.119   4.631   1.468  0.00  0.00    -0.060 C 
BRANCH  17  20
ATOM     18  C   UNL     1      -2.222   4.946   0.936  0.00  0.00    -0.097 C 
ATOM     19  C   UNL     1      -1.250   6.082   2.840  0.00  0.00    -0.097 C 
ATOM     20  N   UNL     1      -1.004   5.592   1.468  0.00  0.00    +0.377 N 
ATOM     21  H   UNL     1      -0.760   6.389   0.868  0.00  0.00    -0.083 HD
ENDBRANCH  17  20
ENDBRANCH  16  17
ENDBRANCH   1  16
BRANCH  11  22
ATOM     22  C   UNL     1      -0.019   1.526   0.010  0.00  0.00    +0.097 C 
BRANCH  22  23
ATOM     23  C   UNL     1       0.002  -0.004   0.002  0.00  0.00    +0.020 C 
BRANCH  23  24
ATOM     24  C   UNL     1      -1.433  -0.534   0.013  0.00  0.00    +0.075 C 
BRANCH  24  25
ATOM     25  S   UNL     1      -1.409  -2.348   0.003  0.00  0.00    -0.125 S 
BRANCH  25  26
ATOM     26  C   UNL     1      -3.112  -2.797   0.017  0.00  0.00    +0.008 A 
ATOM     27  C   UNL     1      -4.091  -1.811   0.037  0.00  0.00    +0.018 A 
ATOM     28  C   UNL     1      -5.426  -2.165   0.043  0.00  0.00    +0.047 A 
ATOM     29  C   UNL     1      -5.790  -3.503   0.040  0.00  0.00    +0.120 A 
ATOM     30  C   UNL     1      -4.813  -4.488   0.024  0.00  0.00    +0.047 A 
ATOM     31  C   UNL     1      -3.478  -4.137   0.013  0.00  0.00    +0.018 A 
BRANCH  29  32
ATOM     32  O   UNL     1      -7.105  -3.850   0.050  0.00  0.00    -0.495 OA
ATOM     33  C   UNL     1      -8.057  -2.785   0.066  0.00  0.00    +0.277 C 
ENDBRANCH  29  32
ENDBRANCH  25  26
ENDBRANCH  24  25
ENDBRANCH  23  24
ENDBRANCH  22  23
ENDBRANCH  11  22
TORSDOF 10
