REMARK  Name = ZINC39978818
REMARK  4 active torsions:
REMARK  status: ('A' for Active; 'I' for Inactive)
REMARK    1  A    between atoms: C_1  and  O_2
REMARK    2  A    between atoms: O_2  and  C_3
REMARK    3  A    between atoms: C_10  and  C_13
REMARK    4  A    between atoms: C_13  and  N_15
REMARK                            x       y       z     vdW  Elec       q    Type
REMARK                         _______ _______ _______ _____ _____    ______ ____
ROOT
ATOM      1  C   UNL     1       0.390  -5.340   0.011  0.00  0.00    +0.279 C 
ATOM      2  O   UNL     1       0.742  -5.109   1.152  0.00  0.00    -0.270 OA
ENDROOT
BRANCH   1   3
ATOM      3  N   UNL     1       0.273  -6.596  -0.406  0.00  0.00    -0.153 NA
ATOM      4  C   UNL     1       0.541  -7.601   0.425  0.00  0.00    +0.164 A 
ATOM      5  N   UNL     1       0.480  -8.932   0.168  0.00  0.00    -0.335 N 
ATOM      6  H   UNL     1       0.215  -9.246  -0.711  0.00  0.00    +0.168 HD
ATOM      7  C   UNL     1       0.797  -9.839   1.161  0.00  0.00    +0.055 A 
ATOM      8  C   UNL     1       0.801 -11.241   1.113  0.00  0.00    +0.027 A 
ATOM      9  C   UNL     1       1.150 -11.979   2.219  0.00  0.00    +0.002 A 
ATOM     10  C   UNL     1       1.506 -11.364   3.408  0.00  0.00    +0.001 A 
ATOM     11  C   UNL     1       1.511  -9.982   3.482  0.00  0.00    +0.017 A 
ATOM     12  C   UNL     1       1.162  -9.243   2.377  0.00  0.00    +0.039 A 
ATOM     13  S   UNL     1       1.039  -7.509   2.028  0.00  0.00    -0.052 S 
ENDBRANCH   1   3
BRANCH   1  21
ATOM     14  C   UNL     1       0.606  -0.608  -1.056  0.00  0.00    +0.162 A 
ATOM     15  C   UNL     1       1.171   0.161  -2.059  0.00  0.00    +0.049 A 
ATOM     16  C   UNL     1       1.787  -0.445  -3.138  0.00  0.00    +0.004 A 
ATOM     17  C   UNL     1       1.834  -1.825  -3.218  0.00  0.00    +0.007 A 
ATOM     18  C   UNL     1       1.270  -2.594  -2.222  0.00  0.00    +0.002 A 
ATOM     19  C   UNL     1       0.660  -2.002  -1.126  0.00  0.00    +0.166 A 
ATOM     20  O   UNL     1       0.197  -2.938  -0.252  0.00  0.00    -0.475 OA
ATOM     21  C   UNL     1       0.087  -4.202  -0.929  0.00  0.00    +0.265 C 
ATOM     22  C   UNL     1       1.156  -4.095  -2.038  0.00  0.00    +0.093 C 
BRANCH  14  24
ATOM     23  C   UNL     1      -0.017   1.425   0.010  0.00  0.00    +0.277 C 
ATOM     24  O   UNL     1       0.002  -0.004   0.002  0.00  0.00    -0.491 OA
ENDBRANCH  14  24
ENDBRANCH   1  21
TORSDOF 3
