REMARK  Name = ZINC02781046
REMARK  5 active torsions:
REMARK  status: ('A' for Active; 'I' for Inactive)
REMARK    1  A    between atoms: C_1  and  N_2
REMARK    2  A    between atoms: C_3  and  C_23
REMARK    3  A    between atoms: C_5  and  C_7
REMARK    4  A    between atoms: N_9  and  C_10
REMARK    5  A    between atoms: C_11  and  C_20
REMARK                            x       y       z     vdW  Elec       q    Type
REMARK                         _______ _______ _______ _____ _____    ______ ____
ROOT
ATOM      1  C   UNL     1      -5.931   2.826   2.651  0.00  0.00    +0.085 A 
ATOM      2  C   UNL     1      -7.135   2.817   1.963  0.00  0.00    +0.068 A 
ATOM      3  C   UNL     1      -8.333   3.216   2.689  0.00  0.00    -0.023 A 
ATOM      4  C   UNL     1      -8.127   3.575   3.974  0.00  0.00    -0.004 A 
ATOM      5  S   UNL     1      -6.385   3.374   4.230  0.00  0.00    -0.077 S 
ATOM      6  C   UNL     1      -9.142   4.053   4.965  0.00  0.00    +0.043 C 
ATOM      7  C   UNL     1     -10.347   3.103   4.955  0.00  0.00    +0.005 C 
ATOM      8  C   UNL     1     -11.344   3.600   3.913  0.00  0.00    +0.001 C 
ATOM      9  C   UNL     1     -10.605   4.248   2.745  0.00  0.00    +0.005 C 
ATOM     10  C   UNL     1      -9.714   3.227   2.046  0.00  0.00    +0.037 C 
ENDROOT
BRANCH   2  11
ATOM     11  C   UNL     1      -7.200   2.415   0.555  0.00  0.00    +0.244 C 
ATOM     12  O   UNL     1      -7.387   1.248   0.263  0.00  0.00    -0.270 OA
ATOM     13  N   UNL     1      -7.053   3.338  -0.417  0.00  0.00    -0.325 N 
ATOM     14  H   UNL     1      -6.903   4.268  -0.184  0.00  0.00    +0.145 HD
ATOM     15  H   UNL     1      -7.096   3.072  -1.349  0.00  0.00    +0.145 HD
ENDBRANCH   2  11
BRANCH   1  18
ATOM     16  C   UNL     1      -3.606   2.563   3.009  0.00  0.00    +0.269 C 
ATOM     17  O   UNL     1      -3.751   2.932   4.158  0.00  0.00    -0.268 OA
ATOM     18  N   UNL     1      -4.671   2.485   2.187  0.00  0.00    -0.274 N 
ATOM     19  H   UNL     1      -4.555   2.191   1.270  0.00  0.00    +0.156 HD
BRANCH  16  24
ATOM     20  C   UNL     1      -0.013   1.086   0.008  0.00  0.00    +0.173 C 
ATOM     21  N   UNL     1      -0.698   1.558   1.213  0.00  0.00    -0.262 N 
ATOM     22  C   UNL     1      -0.095   1.817   2.393  0.00  0.00    +0.142 A 
ATOM     23  C   UNL     1      -1.056   2.230   3.253  0.00  0.00    +0.066 A 
ATOM     24  C   UNL     1      -2.263   2.200   2.514  0.00  0.00    +0.148 A 
ATOM     25  N   UNL     1      -1.959   1.791   1.298  0.00  0.00    -0.166 NA
BRANCH  22  26
ATOM     26  C   UNL     1       1.374   1.674   2.697  0.00  0.00    +0.434 C 
ATOM     27  F   UNL     1       2.028   2.878   2.415  0.00  0.00    -0.164 F 
ATOM     28  F   UNL     1       1.542   1.358   4.050  0.00  0.00    -0.164 F 
ATOM     29  F   UNL     1       1.915   0.653   1.909  0.00  0.00    -0.164 F 
ENDBRANCH  22  26
ENDBRANCH  16  24
ENDBRANCH   1  18
TORSDOF 4
