REMARK  Name = ZINC05167812
REMARK  5 active torsions:
REMARK  status: ('A' for Active; 'I' for Inactive)
REMARK    1  A    between atoms: C_1  and  C_2
REMARK    2  A    between atoms: N_10  and  C_14
REMARK    3  A    between atoms: C_14  and  C_15
REMARK    4  A    between atoms: N_17  and  C_18
REMARK    5  A    between atoms: C_18  and  C_19
REMARK                            x       y       z     vdW  Elec       q    Type
REMARK                         _______ _______ _______ _____ _____    ______ ____
ROOT
ATOM      1  C   UNL     1      -4.042   0.411  -4.355  0.00  0.00    +0.213 C 
ENDROOT
BRANCH   1  11
ATOM      2  C   UNL     1       0.017   1.083   2.506  0.00  0.00    +0.007 C 
ATOM      3  C   UNL     1      -0.729   1.579   1.266  0.00  0.00    -0.014 C 
ATOM      4  C   UNL     1      -0.013   1.086   0.008  0.00  0.00    +0.006 C 
ATOM      5  C   UNL     1      -0.753   1.593  -1.232  0.00  0.00    +0.035 C 
ATOM      6  C   UNL     1      -2.191   1.084  -1.212  0.00  0.00    +0.113 C 
ATOM      7  C   UNL     1      -2.911   1.548   0.049  0.00  0.00    +0.035 C 
ATOM      8  C   UNL     1      -2.161   1.041   1.284  0.00  0.00    +0.006 C 
ATOM      9  C   UNL     1      -2.932   1.552  -2.444  0.00  0.00    +0.247 C 
ATOM     10  O   UNL     1      -3.153   2.697  -2.777  0.00  0.00    -0.273 OA
ATOM     11  N   UNL     1      -3.294   0.428  -3.095  0.00  0.00    -0.215 N 
ATOM     12  C   UNL     1      -2.887  -0.670  -2.448  0.00  0.00    +0.310 C 
ATOM     13  O   UNL     1      -3.094  -1.802  -2.839  0.00  0.00    -0.252 OA
ATOM     14  N   UNL     1      -2.220  -0.380  -1.314  0.00  0.00    -0.285 N 
ATOM     15  H   UNL     1      -1.835  -1.014  -0.688  0.00  0.00    +0.151 HD
ENDBRANCH   1  11
BRANCH   1  16
ATOM     16  C   UNL     1      -3.077   0.431  -5.513  0.00  0.00    +0.231 C 
ATOM     17  O   UNL     1      -1.882   0.457  -5.305  0.00  0.00    -0.274 OA
ATOM     18  N   UNL     1      -3.542   0.420  -6.777  0.00  0.00    -0.310 N 
ATOM     19  H   UNL     1      -4.497   0.399  -6.943  0.00  0.00    +0.149 HD
BRANCH  18  20
ATOM     20  C   UNL     1      -2.604   0.440  -7.903  0.00  0.00    +0.152 C 
BRANCH  20  21
ATOM     21  C   UNL     1      -3.385   0.422  -9.218  0.00  0.00    +0.228 C 
ATOM     22  C   UNL     1      -2.406   0.412 -10.401  0.00  0.00    +0.275 C 
ATOM     23  O   UNL     1      -3.168   0.382 -11.612  0.00  0.00    -0.485 OA
ATOM     24  C   UNL     1      -4.196  -0.509 -11.667  0.00  0.00    +0.162 A 
ATOM     25  C   UNL     1      -4.738  -0.849 -12.897  0.00  0.00    +0.049 A 
ATOM     26  C   UNL     1      -5.784  -1.749 -12.968  0.00  0.00    +0.004 A 
ATOM     27  C   UNL     1      -6.292  -2.314 -11.814  0.00  0.00    +0.004 A 
ATOM     28  C   UNL     1      -5.755  -1.981 -10.584  0.00  0.00    +0.049 A 
ATOM     29  C   UNL     1      -4.705  -1.079 -10.506  0.00  0.00    +0.163 A 
ATOM     30  O   UNL     1      -4.185  -0.763  -9.289  0.00  0.00    -0.480 OA
ENDBRANCH  20  21
ENDBRANCH  18  20
ENDBRANCH   1  16
TORSDOF 4
