REMARK  Name = ZINC09505222
REMARK  8 active torsions:
REMARK  status: ('A' for Active; 'I' for Inactive)
REMARK    1  A    between atoms: C_1  and  C_2
REMARK    2  A    between atoms: C_2  and  O_3
REMARK    3  A    between atoms: O_3  and  C_4
REMARK    4  A    between atoms: C_7  and  C_9
REMARK    5  A    between atoms: C_13  and  N_14
REMARK    6  A    between atoms: C_15  and  C_17
REMARK    7  A    between atoms: N_20  and  S_23
REMARK    8  A    between atoms: S_23  and  C_26
REMARK                            x       y       z     vdW  Elec       q    Type
REMARK                         _______ _______ _______ _____ _____    ______ ____
ROOT
ATOM      1  N   UNL     1      -0.011   0.966   0.007  0.00  0.00    -0.279 N 
ATOM      2  C   UNL     1      -1.187   1.624   0.017  0.00  0.00    +0.221 C 
ATOM      3  O   UNL     1      -1.204   2.836   0.023  0.00  0.00    -0.275 OA
ATOM      4  H   UNL     1       0.002  -0.004   0.002  0.00  0.00    +0.155 HD
ENDROOT
BRANCH   2   5
ATOM      5  C   UNL     1      -2.482   0.853   0.018  0.00  0.00    +0.078 C 
ATOM      6  C   UNL     1      -2.556  -0.023  -1.235  0.00  0.00    +0.030 C 
ATOM      7  C   UNL     1      -3.857  -0.831  -1.212  0.00  0.00    +0.110 C 
ATOM      8  N   UNL     1      -4.987   0.096  -1.056  0.00  0.00    -0.176 NA
ATOM      9  C   UNL     1      -4.972   1.044   0.066  0.00  0.00    +0.110 C 
ATOM     10  C   UNL     1      -3.658   1.831   0.029  0.00  0.00    +0.030 C 
BRANCH   8  11
ATOM     11  S   UNL     1      -6.253   0.071  -2.123  0.00  0.00    +0.067 S 
ATOM     12  O   UNL     1      -6.273  -1.228  -2.699  0.00  0.00    -0.152 OA
ATOM     13  O   UNL     1      -7.371   0.619  -1.439  0.00  0.00    -0.152 OA
BRANCH  11  14
ATOM     14  C   UNL     1      -5.859   1.192  -3.424  0.00  0.00    +0.144 A 
ATOM     15  C   UNL     1      -5.204   0.955  -4.586  0.00  0.00    +0.038 A 
ATOM     16  C   UNL     1      -5.006   1.999  -5.470  0.00  0.00    +0.030 A 
ATOM     17  C   UNL     1      -5.474   3.231  -5.147  0.00  0.00    +0.080 A 
ATOM     18  S   UNL     1      -6.226   2.934  -3.556  0.00  0.00    -0.057 S 
ATOM     19 CL   UNL     1      -5.373   4.710  -6.051  0.00  0.00    -0.076 Cl
ENDBRANCH  11  14
ENDBRANCH   8  11
ENDBRANCH   2   5
BRANCH   1  24
ATOM     20  C   UNL     1       2.480   1.181  -0.015  0.00  0.00    +0.066 A 
ATOM     21  C   UNL     1       3.544   2.156  -0.020  0.00  0.00    +0.022 A 
ATOM     22  C   UNL     1       3.189   3.453  -0.010  0.00  0.00    +0.048 A 
ATOM     23  S   UNL     1       1.410   3.391  -0.001  0.00  0.00    -0.081 S 
ATOM     24  C   UNL     1       1.180   1.675  -0.000  0.00  0.00    +0.084 A 
BRANCH  20  28
ATOM     25  C   UNL     1       4.281  -2.024  -0.051  0.00  0.00    +0.407 C 
ATOM     26  O   UNL     1       3.362  -2.818  -0.046  0.00  0.00    -0.226 OA
ATOM     27  N   UNL     1       4.028  -0.700  -0.041  0.00  0.00    -0.217 N 
ATOM     28  C   UNL     1       2.755  -0.258  -0.026  0.00  0.00    +0.255 C 
ATOM     29  O   UNL     1       1.835  -1.054  -0.022  0.00  0.00    -0.270 OA
ATOM     30  H   UNL     1       4.762  -0.066  -0.044  0.00  0.00    +0.161 HD
BRANCH  25  31
ATOM     31  O   UNL     1       5.553  -2.466  -0.065  0.00  0.00    -0.450 OA
BRANCH  31  33
ATOM     32  C   UNL     1       7.249  -4.213  -0.091  0.00  0.00    +0.048 C 
ATOM     33  C   UNL     1       5.751  -3.904  -0.075  0.00  0.00    +0.230 C 
ENDBRANCH  31  33
ENDBRANCH  25  31
ENDBRANCH  20  28
ENDBRANCH   1  24
TORSDOF 7
