REMARK  Name = ZINC36660278
REMARK  10 active torsions:
REMARK  status: ('A' for Active; 'I' for Inactive)
REMARK    1  A    between atoms: C_1  and  C_2
REMARK    2  A    between atoms: C_5  and  S_8
REMARK    3  A    between atoms: S_8  and  N_11
REMARK    4  A    between atoms: C_15  and  C_17
REMARK    5  A    between atoms: N_19  and  C_20
REMARK    6  A    between atoms: C_20  and  C_21
REMARK    7  A    between atoms: C_21  and  C_22
REMARK    8  A    between atoms: C_22  and  N_23
REMARK    9  A    between atoms: N_23  and  C_24
REMARK   10  A    between atoms: N_23  and  C_25
REMARK                            x       y       z     vdW  Elec       q    Type
REMARK                         _______ _______ _______ _____ _____    ______ ____
ROOT
ATOM      1  C   UNL     1       1.818  -6.301   2.048  0.00  0.00    +0.240 C 
ATOM      2  O   UNL     1       0.762  -6.803   1.725  0.00  0.00    -0.273 OA
ATOM      3  N   UNL     1       2.547  -6.846   3.042  0.00  0.00    -0.249 N 
ATOM      4  C   UNL     1       2.138  -8.031   3.632  0.00  0.00    +0.168 A 
ATOM      5  N   UNL     1       2.705  -8.704   4.606  0.00  0.00    -0.224 NA
ATOM      6  C   UNL     1       2.191  -9.857   5.087  0.00  0.00    +0.080 A 
ATOM      7  C   UNL     1       2.698 -10.673   6.124  0.00  0.00    +0.030 A 
ATOM      8  C   UNL     1       2.049 -11.822   6.493  0.00  0.00    +0.022 A 
ATOM      9  C   UNL     1       0.876 -12.225   5.867  0.00  0.00    +0.042 A 
ATOM     10  C   UNL     1       0.352 -11.450   4.848  0.00  0.00    +0.037 A 
ATOM     11  C   UNL     1       0.997 -10.298   4.472  0.00  0.00    +0.042 A 
ATOM     12  S   UNL     1       0.702  -9.029   3.264  0.00  0.00    -0.052 S 
ATOM     13 CL   UNL     1       0.078 -13.687   6.357  0.00  0.00    -0.084 Cl
ENDROOT
BRANCH   1  18
ATOM     14  N   UNL     1       1.179  -4.318   0.783  0.00  0.00    -0.165 NA
ATOM     15  C   UNL     1       1.321  -4.257  -0.683  0.00  0.00    +0.110 C 
ATOM     16  C   UNL     1       2.836  -4.444  -0.942  0.00  0.00    +0.019 C 
ATOM     17  C   UNL     1       3.214  -5.478   0.151  0.00  0.00    +0.031 C 
ATOM     18  C   UNL     1       2.315  -5.069   1.336  0.00  0.00    +0.166 C 
BRANCH  14  19
ATOM     19  S   UNL     1      -0.054  -3.647   1.663  0.00  0.00    +0.062 S 
ATOM     20  O   UNL     1      -0.123  -4.370   2.884  0.00  0.00    -0.153 OA
ATOM     21  O   UNL     1      -1.163  -3.529   0.783  0.00  0.00    -0.153 OA
BRANCH  19  26
ATOM     22  C   UNL     1       1.622   1.973   3.083  0.00  0.00    +0.044 C 
ATOM     23  C   UNL     1       1.203   0.570   2.728  0.00  0.00    -0.050 A 
ATOM     24  C   UNL     1       0.512   0.330   1.555  0.00  0.00    +0.005 A 
ATOM     25  C   UNL     1       0.129  -0.958   1.230  0.00  0.00    +0.029 A 
ATOM     26  C   UNL     1       0.436  -2.006   2.077  0.00  0.00    +0.106 A 
ATOM     27  C   UNL     1       1.128  -1.766   3.249  0.00  0.00    +0.029 A 
ATOM     28  C   UNL     1       1.516  -0.479   3.573  0.00  0.00    +0.005 A 
ENDBRANCH  19  26
ENDBRANCH  14  19
ENDBRANCH   1  18
BRANCH   3  29
ATOM     29  C   UNL     1       3.771  -6.184   3.500  0.00  0.00    +0.114 C 
BRANCH  29  30
ATOM     30  C   UNL     1       3.425  -5.174   4.597  0.00  0.00    +0.001 C 
BRANCH  30  31
ATOM     31  C   UNL     1       4.703  -4.483   5.075  0.00  0.00    -0.078 C 
BRANCH  31  32
ATOM     32  N   UNL     1       4.371  -3.514   6.128  0.00  0.00    +0.376 N 
ATOM     33  C   UNL     1       3.852  -4.226   7.303  0.00  0.00    -0.097 C 
ATOM     34  C   UNL     1       5.579  -2.766   6.503  0.00  0.00    -0.097 C 
ATOM     35  H   UNL     1       3.671  -2.873   5.787  0.00  0.00    -0.083 HD
ENDBRANCH  31  32
ENDBRANCH  30  31
ENDBRANCH  29  30
ENDBRANCH   3  29
TORSDOF 7
