REMARK  Name = ZINC17145948
REMARK  5 active torsions:
REMARK  status: ('A' for Active; 'I' for Inactive)
REMARK    1  A    between atoms: C_1  and  C_2
REMARK    2  A    between atoms: C_2  and  C_3
REMARK    3  A    between atoms: C_2  and  C_4
REMARK    4  A    between atoms: C_7  and  C_10
REMARK    5  A    between atoms: C_20  and  C_22
REMARK                            x       y       z     vdW  Elec       q    Type
REMARK                         _______ _______ _______ _____ _____    ______ ____
ROOT
ATOM      1  C   UNL     1      -5.506   5.680  -5.792  0.00  0.00    +0.024 C 
ATOM      2  C   UNL     1      -5.501   4.364  -5.430  0.00  0.00    +0.081 C 
ATOM      3  C   UNL     1      -5.324   3.939  -4.011  0.00  0.00    +0.152 C 
ATOM      4  N   UNL     1      -5.763   4.632  -2.996  0.00  0.00    -0.283 NA
ATOM      5  N   UNL     1      -4.636   2.714  -3.874  0.00  0.00    -0.152 N 
ATOM      6  C   UNL     1      -4.643   1.855  -4.952  0.00  0.00    +0.181 C 
ATOM      7  N   UNL     1      -5.152   2.067  -6.140  0.00  0.00    -0.152 NA
ATOM      8  C   UNL     1      -5.671   3.277  -6.428  0.00  0.00    +0.273 C 
ATOM      9  O   UNL     1      -6.262   3.474  -7.477  0.00  0.00    -0.268 OA
ATOM     10  S   UNL     1      -3.767   0.451  -4.315  0.00  0.00    -0.038 S 
ATOM     11  C   UNL     1      -3.422   1.107  -2.688  0.00  0.00    +0.103 C 
ATOM     12  N   UNL     1      -3.977   2.284  -2.742  0.00  0.00    -0.169 NA
ATOM     13  H   UNL     1      -5.603   4.268  -1.970  0.00  0.00    +0.188 HD
ENDROOT
BRANCH   1  17
ATOM     14  C   UNL     1      -5.453   6.751  -9.892  0.00  0.00    -0.045 A 
ATOM     15  C   UNL     1      -6.174   7.515  -8.990  0.00  0.00    +0.004 A 
ATOM     16  C   UNL     1      -6.197   7.174  -7.655  0.00  0.00    +0.008 A 
ATOM     17  C   UNL     1      -5.488   6.051  -7.211  0.00  0.00    -0.024 A 
ATOM     18  C   UNL     1      -4.757   5.286  -8.130  0.00  0.00    +0.008 A 
ATOM     19  C   UNL     1      -4.750   5.639  -9.462  0.00  0.00    +0.004 A 
BRANCH  14  21
ATOM     20  C   UNL     1      -3.995   7.411 -11.786  0.00  0.00    +0.012 C 
ATOM     21  C   UNL     1      -5.435   7.132 -11.350  0.00  0.00    +0.013 C 
ATOM     22  C   UNL     1      -6.006   5.984 -12.184  0.00  0.00    +0.012 C 
ENDBRANCH  14  21
ENDBRANCH   1  17
BRANCH  11  23
ATOM     23  C   UNL     1      -2.675   0.465  -1.548  0.00  0.00    +0.046 C 
ATOM     24  C   UNL     1      -1.174   0.702  -1.725  0.00  0.00    +0.010 C 
ATOM     25  C   UNL     1      -0.415   0.049  -0.567  0.00  0.00    +0.001 C 
ATOM     26  C   UNL     1      -0.876   0.664   0.756  0.00  0.00    +0.000 C 
ATOM     27  C   UNL     1      -2.378   0.428   0.932  0.00  0.00    +0.001 C 
ATOM     28  C   UNL     1      -3.136   1.080  -0.225  0.00  0.00    +0.010 C 
ENDBRANCH  11  23
TORSDOF 3
