REMARK  Name = ZINC15671533
REMARK  11 active torsions:
REMARK  status: ('A' for Active; 'I' for Inactive)
REMARK    1  A    between atoms: C_1  and  C_2
REMARK    2  A    between atoms: C_7  and  N_8
REMARK    3  A    between atoms: C_9  and  C_11
REMARK    4  A    between atoms: C_12  and  C_28
REMARK    5  A    between atoms: C_17  and  O_27
REMARK    6  A    between atoms: C_18  and  C_22
REMARK    7  A    between atoms: C_19  and  C_21
REMARK    8  A    between atoms: C_22  and  C_23
REMARK    9  A    between atoms: C_23  and  C_24
REMARK   10  A    between atoms: C_24  and  C_25
REMARK   11  A    between atoms: C_24  and  C_26
REMARK                            x       y       z     vdW  Elec       q    Type
REMARK                         _______ _______ _______ _____ _____    ______ ____
ROOT
ATOM      1  C   UNL     1      -1.237   5.970   5.440  0.00  0.00    +0.099 A 
ATOM      2  C   UNL     1      -2.164   4.978   5.728  0.00  0.00    +0.060 A 
ATOM      3  N   UNL     1      -2.221   3.947   4.926  0.00  0.00    -0.226 NA
ATOM      4  C   UNL     1      -1.421   3.838   3.878  0.00  0.00    +0.198 A 
ATOM      5  S   UNL     1      -0.482   5.296   3.967  0.00  0.00    -0.043 S 
ATOM      6  N   UNL     1      -1.352   2.816   2.940  0.00  0.00    -0.175 N 
ATOM      7  C   UNL     1      -0.501   2.758   1.877  0.00  0.00    +0.221 A 
ATOM      8  C   UNL     1      -0.760   1.602   1.211  0.00  0.00    +0.037 A 
ATOM      9  C   UNL     1      -1.786   0.935   1.889  0.00  0.00    +0.067 A 
ATOM     10  N   UNL     1      -2.140   1.658   2.920  0.00  0.00    -0.166 NA
ATOM     11  C   UNL     1      -2.384  -0.391   1.497  0.00  0.00    +0.068 C 
ATOM     12  C   UNL     1      -3.079   5.088   6.920  0.00  0.00    +0.067 C 
ENDROOT
BRANCH   1  14
ATOM     13  N   UNL     1      -0.000   8.053   5.690  0.00  0.00    -0.281 N 
ATOM     14  C   UNL     1      -0.957   7.221   6.147  0.00  0.00    +0.257 C 
ATOM     15  O   UNL     1      -1.587   7.509   7.147  0.00  0.00    -0.269 OA
ATOM     16  H   UNL     1       0.556   7.787   4.941  0.00  0.00    +0.155 HD
BRANCH  13  23
ATOM     17  C   UNL     1       2.559   9.277   5.468  0.00  0.00    +0.045 C 
ATOM     18  C   UNL     1       1.423   9.932   6.212  0.00  0.00    -0.029 A 
ATOM     19  C   UNL     1       1.608  11.163   6.811  0.00  0.00    +0.005 A 
ATOM     20  C   UNL     1       0.566  11.765   7.492  0.00  0.00    +0.000 A 
ATOM     21  C   UNL     1      -0.663  11.137   7.577  0.00  0.00    +0.002 A 
ATOM     22  C   UNL     1      -0.856   9.909   6.976  0.00  0.00    +0.023 A 
ATOM     23  C   UNL     1       0.190   9.299   6.295  0.00  0.00    +0.037 A 
ENDBRANCH  13  23
ENDBRANCH   1  14
BRANCH   7  24
ATOM     24  O   UNL     1       0.431   3.686   1.544  0.00  0.00    -0.492 OA
ATOM     25  H   UNL     1       0.105   4.375   0.949  0.00  0.00    +0.294 HD
ENDBRANCH   7  24
BRANCH   8  26
ATOM     26  C   UNL     1      -0.061   1.121  -0.034  0.00  0.00    +0.042 C 
BRANCH  26  27
ATOM     27  C   UNL     1      -0.803   1.638  -1.268  0.00  0.00    +0.008 C 
BRANCH  27  28
ATOM     28  C   UNL     1      -0.093   1.149  -2.532  0.00  0.00    -0.017 C 
ATOM     29  C   UNL     1      -0.903   1.561  -3.764  0.00  0.00    +0.007 C 
ATOM     30  C   UNL     1       1.302   1.774  -2.608  0.00  0.00    +0.007 C 
ENDBRANCH  27  28
ENDBRANCH  26  27
ENDBRANCH   8  26
TORSDOF 6
