REMARK  Name = ZINC22309929
REMARK  8 active torsions:
REMARK  status: ('A' for Active; 'I' for Inactive)
REMARK    1  A    between atoms: C_1  and  C_2
REMARK    2  A    between atoms: C_2  and  N_3
REMARK    3  A    between atoms: C_7  and  S_28
REMARK    4  A    between atoms: C_11  and  S_12
REMARK    5  A    between atoms: S_12  and  C_13
REMARK    6  A    between atoms: C_13  and  C_15
REMARK    7  A    between atoms: C_13  and  C_16
REMARK    8  A    between atoms: S_28  and  N_31
REMARK                            x       y       z     vdW  Elec       q    Type
REMARK                         _______ _______ _______ _____ _____    ______ ____
ROOT
ATOM      1  N   UNL     1      -1.813   4.868  -4.939  0.00  0.00    -0.319 N 
ATOM      2  C   UNL     1      -1.666   4.346  -3.664  0.00  0.00    +0.070 A 
ATOM      3  C   UNL     1      -1.157   4.844  -2.475  0.00  0.00    +0.030 A 
ATOM      4  C   UNL     1      -1.156   4.053  -1.344  0.00  0.00    +0.030 A 
ATOM      5  C   UNL     1      -1.651   2.758  -1.392  0.00  0.00    +0.107 A 
ATOM      6  C   UNL     1      -2.160   2.248  -2.565  0.00  0.00    +0.058 A 
ATOM      7  C   UNL     1      -2.174   3.037  -3.717  0.00  0.00    +0.092 A 
ATOM      8  N   UNL     1      -2.598   2.823  -4.990  0.00  0.00    -0.222 NA
ATOM      9  C   UNL     1      -2.387   3.898  -5.711  0.00  0.00    +0.171 A 
ENDROOT
BRANCH   5  10
ATOM     10  S   UNL     1      -1.634   1.762   0.061  0.00  0.00    +0.056 S 
ATOM     11  O   UNL     1      -2.654   0.786  -0.104  0.00  0.00    -0.153 OA
ATOM     12  O   UNL     1      -1.606   2.655   1.166  0.00  0.00    -0.153 OA
BRANCH  10  13
ATOM     13  N   UNL     1      -0.194   0.944   0.077  0.00  0.00    -0.204 NA
ATOM     14  H   UNL     1      -0.144   0.307   0.973  0.00  0.00    +0.144 HD
ATOM     15  H   UNL     1       0.637   1.664   0.093  0.00  0.00    +0.144 HD
ENDBRANCH  10  13
ENDBRANCH   5  10
BRANCH   1  17
ATOM     16  C   UNL     1      -2.601   7.171  -5.177  0.00  0.00    +0.027 C 
ATOM     17  C   UNL     1      -1.426   6.212  -5.378  0.00  0.00    +0.121 C 
ENDBRANCH   1  17
BRANCH   9  18
ATOM     18  S   UNL     1      -2.785   4.065  -7.419  0.00  0.00    -0.075 S 
BRANCH  18  19
ATOM     19  C   UNL     1      -3.488   2.429  -7.740  0.00  0.00    +0.137 C 
ATOM     20  C   UNL     1      -4.775   2.258  -6.929  0.00  0.00    +0.029 C 
BRANCH  19  21
ATOM     21  C   UNL     1      -3.799   2.295  -9.209  0.00  0.00    +0.233 C 
ATOM     22  O   UNL     1      -4.006   3.285  -9.877  0.00  0.00    -0.274 OA
ATOM     23  N   UNL     1      -3.847   1.074  -9.778  0.00  0.00    -0.270 N 
ATOM     24  C   UNL     1      -3.674  -0.137  -8.965  0.00  0.00    +0.114 C 
ATOM     25  C   UNL     1      -2.726  -1.078  -9.713  0.00  0.00    +0.024 C 
ATOM     26  C   UNL     1      -3.374  -1.487 -11.036  0.00  0.00    +0.038 C 
ATOM     27  C   UNL     1      -3.837  -0.272 -11.795  0.00  0.00    -0.026 A 
ATOM     28  C   UNL     1      -4.056   0.940 -11.158  0.00  0.00    +0.039 A 
ATOM     29  C   UNL     1      -4.488   2.041 -11.888  0.00  0.00    +0.024 A 
ATOM     30  C   UNL     1      -4.697   1.930 -13.248  0.00  0.00    +0.002 A 
ATOM     31  C   UNL     1      -4.476   0.722 -13.883  0.00  0.00    +0.000 A 
ATOM     32  C   UNL     1      -4.048  -0.374 -13.159  0.00  0.00    +0.005 A 
ENDBRANCH  19  21
ENDBRANCH  18  19
ENDBRANCH   9  18
TORSDOF 6
