REMARK  Name = ZINC67062427
REMARK  7 active torsions:
REMARK  status: ('A' for Active; 'I' for Inactive)
REMARK    1  A    between atoms: C_3  and  N_23
REMARK    2  A    between atoms: C_6  and  C_7
REMARK    3  A    between atoms: C_7  and  N_8
REMARK    4  A    between atoms: N_11  and  N_12
REMARK    5  A    between atoms: C_13  and  C_15
REMARK    6  A    between atoms: C_15  and  C_16
REMARK    7  A    between atoms: C_16  and  C_17
REMARK                            x       y       z     vdW  Elec       q    Type
REMARK                         _______ _______ _______ _____ _____    ______ ____
ROOT
ATOM      1  N   UNL     1      -1.734  -1.001  -1.370  0.00  0.00    -0.294 N 
ATOM      2  C   UNL     1      -2.874  -1.680  -1.609  0.00  0.00    +0.316 C 
ATOM      3  O   UNL     1      -3.531  -2.111  -0.682  0.00  0.00    -0.251 OA
ATOM      4  N   UNL     1      -3.284  -1.881  -2.877  0.00  0.00    -0.218 N 
ATOM      5  H   UNL     1      -1.210  -0.657  -2.110  0.00  0.00    +0.151 HD
ATOM      6  H   UNL     1      -4.104  -2.369  -3.050  0.00  0.00    +0.174 HD
ENDROOT
BRANCH   4   7
ATOM      7  N   UNL     1      -2.527  -1.384  -3.946  0.00  0.00    -0.233 N 
ATOM      8  C   UNL     1      -2.937  -1.585  -5.214  0.00  0.00    +0.229 C 
ATOM      9  O   UNL     1      -3.963  -2.196  -5.430  0.00  0.00    -0.274 OA
ATOM     10  H   UNL     1      -1.707  -0.896  -3.773  0.00  0.00    +0.173 HD
BRANCH   8  11
ATOM     11  C   UNL     1      -2.122  -1.051  -6.364  0.00  0.00    +0.097 C 
BRANCH  11  12
ATOM     12  C   UNL     1      -2.804  -1.414  -7.684  0.00  0.00    +0.013 C 
BRANCH  12  13
ATOM     13  C   UNL     1      -1.977  -0.871  -8.851  0.00  0.00    -0.011 C 
ATOM     14  C   UNL     1      -1.972   0.658  -8.805  0.00  0.00    +0.003 C 
ATOM     15  C   UNL     1      -1.144   1.200  -9.972  0.00  0.00    +0.000 C 
ATOM     16  C   UNL     1      -1.758   0.732 -11.293  0.00  0.00    +0.000 C 
ATOM     17  C   UNL     1      -1.763  -0.797 -11.339  0.00  0.00    +0.000 C 
ATOM     18  C   UNL     1      -2.590  -1.340 -10.172  0.00  0.00    +0.003 C 
ENDBRANCH  12  13
ENDBRANCH  11  12
ENDBRANCH   8  11
ENDBRANCH   4   7
BRANCH   1  19
ATOM     19  C   UNL     1      -1.288  -0.783   0.009  0.00  0.00    +0.142 C 
BRANCH  19  25
ATOM     20  C   UNL     1      -0.016   1.384   0.036  0.00  0.00    +0.010 A 
ATOM     21  C   UNL     1       1.190   2.061   0.028  0.00  0.00    +0.042 A 
ATOM     22  C   UNL     1       2.374   1.332  -0.013  0.00  0.00    +0.099 A 
ATOM     23  N   UNL     1       2.350   0.008  -0.045  0.00  0.00    -0.349 N 
ATOM     24  C   UNL     1       1.214  -0.663  -0.040  0.00  0.00    +0.089 A 
ATOM     25  C   UNL     1       0.002  -0.004   0.001  0.00  0.00    -0.014 A 
ATOM     26  H   UNL     1       3.188  -0.480  -0.074  0.00  0.00    +0.167 HD
BRANCH  22  27
ATOM     27  N   UNL     1       3.594   1.999  -0.022  0.00  0.00    -0.317 N 
ATOM     28  C   UNL     1       4.856   1.252   0.066  0.00  0.00    +0.106 C 
ATOM     29  C   UNL     1       5.754   1.662  -1.105  0.00  0.00    +0.019 C 
ATOM     30  C   UNL     1       5.922   3.183  -1.106  0.00  0.00    +0.003 C 
ATOM     31  C   UNL     1       4.556   3.849  -1.289  0.00  0.00    +0.019 C 
ATOM     32  C   UNL     1       3.645   3.464  -0.125  0.00  0.00    +0.106 C 
ENDBRANCH  22  27
ENDBRANCH  19  25
ENDBRANCH   1  19
TORSDOF 7
