REMARK  Name = ZINC09625692
REMARK  10 active torsions:
REMARK  status: ('A' for Active; 'I' for Inactive)
REMARK    1  A    between atoms: C_1  and  C_2
REMARK    2  A    between atoms: C_2  and  O_3
REMARK    3  A    between atoms: O_3  and  C_4
REMARK    4  A    between atoms: C_4  and  C_5
REMARK    5  A    between atoms: C_5  and  N_6
REMARK    6  A    between atoms: C_10  and  O_23
REMARK    7  A    between atoms: N_15  and  C_16
REMARK    8  A    between atoms: C_16  and  C_18
REMARK    9  A    between atoms: O_23  and  C_24
REMARK   10  A    between atoms: C_24  and  C_25
REMARK                            x       y       z     vdW  Elec       q    Type
REMARK                         _______ _______ _______ _____ _____    ______ ____
ROOT
ATOM      1  N   UNL     1      -1.111   2.232   0.035  0.00  0.00    -0.319 N 
ATOM      2  C   UNL     1      -0.019   1.381   0.066  0.00  0.00    +0.058 A 
ATOM      3  C   UNL     1      -0.011  -0.022   0.089  0.00  0.00    +0.030 A 
ATOM      4  C   UNL     1       1.173  -0.719   0.113  0.00  0.00    +0.048 A 
ATOM      5  C   UNL     1       2.396  -0.059   0.115  0.00  0.00    +0.122 A 
ATOM      6  C   UNL     1       2.415   1.328   0.092  0.00  0.00    +0.062 A 
ATOM      7  C   UNL     1       1.228   2.022   0.068  0.00  0.00    +0.042 A 
ATOM      8  S   UNL     1       0.802   3.745   0.036  0.00  0.00    -0.052 S 
ATOM      9  C   UNL     1      -0.924   3.579   0.020  0.00  0.00    +0.167 A 
ATOM     10  N   UNL     1      -1.844   4.538  -0.005  0.00  0.00    -0.149 NA
ENDROOT
BRANCH  10  11
ATOM     11  C   UNL     1      -1.471   5.822  -0.022  0.00  0.00    +0.307 C 
ATOM     12  O   UNL     1      -0.287   6.113  -0.013  0.00  0.00    -0.265 OA
BRANCH  11  13
ATOM     13  C   UNL     1      -2.494   6.888  -0.050  0.00  0.00    +0.223 A 
ATOM     14  C   UNL     1      -2.273   8.238  -0.064  0.00  0.00    +0.077 A 
ATOM     15  C   UNL     1      -3.572   8.792  -0.091  0.00  0.00    +0.157 A 
ATOM     16  N   UNL     1      -4.404   7.791  -0.084  0.00  0.00    -0.086 NA
ATOM     17  O   UNL     1      -3.830   6.727  -0.062  0.00  0.00    -0.350 OA
ENDBRANCH  11  13
ENDBRANCH  10  11
BRANCH   1  18
ATOM     18  C   UNL     1      -2.468   1.681   0.022  0.00  0.00    +0.152 C 
BRANCH  18  19
ATOM     19  C   UNL     1      -3.388   2.573   0.859  0.00  0.00    +0.181 C 
BRANCH  19  20
ATOM     20  O   UNL     1      -4.678   1.966   0.958  0.00  0.00    -0.378 OA
BRANCH  20  22
ATOM     21  C   UNL     1      -6.957   1.981   1.762  0.00  0.00    +0.034 C 
ATOM     22  C   UNL     1      -5.619   2.722   1.723  0.00  0.00    +0.156 C 
ENDBRANCH  20  22
ENDBRANCH  19  20
ENDBRANCH  18  19
ENDBRANCH   1  18
BRANCH   5  23
ATOM     23  O   UNL     1       3.558  -0.764   0.139  0.00  0.00    -0.492 OA
BRANCH  23  24
ATOM     24  C   UNL     1       3.453  -2.189   0.161  0.00  0.00    +0.225 C 
ATOM     25  C   UNL     1       4.854  -2.803   0.186  0.00  0.00    +0.048 C 
ENDBRANCH  23  24
ENDBRANCH   5  23
TORSDOF 8
