REMARK  Name = ZINC63900046
REMARK  9 active torsions:
REMARK  status: ('A' for Active; 'I' for Inactive)
REMARK    1  A    between atoms: C_1  and  C_2
REMARK    2  A    between atoms: C_4  and  C_14
REMARK    3  A    between atoms: C_7  and  O_12
REMARK    4  A    between atoms: O_12  and  C_13
REMARK    5  A    between atoms: C_14  and  C_15
REMARK    6  A    between atoms: C_15  and  N_16
REMARK    7  A    between atoms: N_16  and  S_17
REMARK    8  A    between atoms: S_17  and  C_20
REMARK    9  A    between atoms: C_23  and  N_26
REMARK                            x       y       z     vdW  Elec       q    Type
REMARK                         _______ _______ _______ _____ _____    ______ ____
ROOT
ATOM      1  N   UNL     1       0.997  -0.729  -4.977  0.00  0.00    -0.190 NA
ATOM      2  H   UNL     1       0.113  -0.396  -5.198  0.00  0.00    +0.148 HD
ENDROOT
BRANCH   1   3
ATOM      3  S   UNL     1       2.092  -1.035  -6.182  0.00  0.00    +0.058 S 
ATOM      4  O   UNL     1       1.438  -0.740  -7.409  0.00  0.00    -0.153 OA
ATOM      5  O   UNL     1       3.306  -0.406  -5.796  0.00  0.00    -0.153 OA
BRANCH   3   6
ATOM      6  C   UNL     1       2.399  -2.770  -6.179  0.00  0.00    +0.105 A 
ATOM      7  C   UNL     1       3.414  -3.289  -5.398  0.00  0.00    +0.030 A 
ATOM      8  C   UNL     1       3.658  -4.649  -5.394  0.00  0.00    +0.027 A 
ATOM      9  C   UNL     1       2.881  -5.494  -6.175  0.00  0.00    +0.059 A 
ATOM     10  C   UNL     1       1.862  -4.969  -6.959  0.00  0.00    +0.027 A 
ATOM     11  C   UNL     1       1.620  -3.609  -6.955  0.00  0.00    +0.030 A 
BRANCH   9  12
ATOM     12  N   UNL     1       3.125  -6.872  -6.173  0.00  0.00    -0.144 N 
ATOM     13  C   UNL     1       4.290  -7.467  -5.875  0.00  0.00    +0.240 C 
ATOM     14  O   UNL     1       5.253  -6.811  -5.539  0.00  0.00    -0.274 OA
ATOM     15  C   UNL     1       4.374  -8.960  -5.965  0.00  0.00    +0.122 C 
ATOM     16  C   UNL     1       2.935  -9.541  -5.933  0.00  0.00    +0.198 C 
ATOM     17  S   UNL     1       2.013  -8.070  -6.537  0.00  0.00    +0.052 S 
ATOM     18  O   UNL     1       0.883  -7.806  -5.717  0.00  0.00    -0.155 OA
ATOM     19  O   UNL     1       1.913  -8.084  -7.954  0.00  0.00    -0.155 OA
ENDBRANCH   9  12
ENDBRANCH   3   6
ENDBRANCH   1   3
BRANCH   1  20
ATOM     20  C   UNL     1       1.363  -0.963  -3.578  0.00  0.00    +0.110 C 
BRANCH  20  21
ATOM     21  C   UNL     1       0.352  -0.269  -2.664  0.00  0.00    +0.050 C 
BRANCH  21  24
ATOM     22  C   UNL     1      -0.019   1.526   0.010  0.00  0.00    +0.035 C 
ATOM     23  C   UNL     1       0.002  -0.004   0.002  0.00  0.00    +0.103 C 
ATOM     24  C   UNL     1       0.729  -0.509  -1.224  0.00  0.00    -0.037 C 
ATOM     25  C   UNL     1       1.785  -1.220  -0.768  0.00  0.00    +0.003 A 
ATOM     26  C   UNL     1       2.858  -1.954  -1.447  0.00  0.00    +0.055 A 
ATOM     27  C   UNL     1       3.803  -2.586  -0.711  0.00  0.00    +0.121 A 
ATOM     28  C   UNL     1       3.796  -2.567   0.695  0.00  0.00    +0.047 A 
ATOM     29  C   UNL     1       2.851  -1.919   1.409  0.00  0.00    +0.029 A 
ATOM     30  C   UNL     1       1.779  -1.200   0.713  0.00  0.00    +0.043 A 
ATOM     31  N   UNL     1       0.758  -0.506   1.155  0.00  0.00    -0.378 N 
ATOM     32  H   UNL     1       0.540  -0.349   2.087  0.00  0.00    +0.160 HD
BRANCH  27  33
ATOM     33  O   UNL     1       4.792  -3.263  -1.353  0.00  0.00    -0.495 OA
ATOM     34  C   UNL     1       5.767  -3.915  -0.537  0.00  0.00    +0.277 C 
ENDBRANCH  27  33
ENDBRANCH  21  24
ENDBRANCH  20  21
ENDBRANCH   1  20
TORSDOF 7
