REMARK  Name = ZINC41027106
REMARK  5 active torsions:
REMARK  status: ('A' for Active; 'I' for Inactive)
REMARK    1  A    between atoms: C_1  and  C_2
REMARK    2  A    between atoms: C_6  and  S_12
REMARK    3  A    between atoms: C_7  and  N_11
REMARK    4  A    between atoms: S_12  and  C_13
REMARK    5  A    between atoms: C_19  and  N_21
REMARK                            x       y       z     vdW  Elec       q    Type
REMARK                         _______ _______ _______ _____ _____    ______ ____
ROOT
ATOM      1  C   UNL     1      -0.340   0.903   1.171  0.00  0.00    +0.073 C 
ATOM      2  C   UNL     1      -0.253  -0.579   0.910  0.00  0.00    +0.076 A 
ATOM      3  N   UNL     1      -0.208  -1.208  -0.233  0.00  0.00    -0.244 NA
ATOM      4  C   UNL     1      -0.130  -2.553  -0.324  0.00  0.00    +0.080 A 
ATOM      5  C   UNL     1      -0.075  -3.347  -1.494  0.00  0.00    +0.045 A 
ATOM      6  C   UNL     1       0.002  -4.716  -1.412  0.00  0.00    +0.038 A 
ATOM      7  C   UNL     1       0.031  -5.370  -0.175  0.00  0.00    +0.040 A 
ATOM      8  C   UNL     1      -0.020  -4.617   0.988  0.00  0.00    +0.041 A 
ATOM      9  C   UNL     1      -0.099  -3.247   0.907  0.00  0.00    +0.041 A 
ATOM     10  S   UNL     1      -0.177  -1.922   2.087  0.00  0.00    -0.072 S 
ENDROOT
BRANCH   7  11
ATOM     11  N   UNL     1       0.110  -6.767  -0.112  0.00  0.00    -0.357 N 
ATOM     12  H   UNL     1       0.145  -7.287  -0.930  0.00  0.00    +0.142 HD
ATOM     13  H   UNL     1       0.129  -7.213   0.749  0.00  0.00    +0.142 HD
ENDBRANCH   7  11
BRANCH   6  14
ATOM     14  S   UNL     1       0.067  -5.668  -2.893  0.00  0.00    -0.050 S 
BRANCH  14  15
ATOM     15  C   UNL     1       1.756  -6.152  -3.016  0.00  0.00    +0.176 A 
ATOM     16  N   UNL     1       2.138  -6.998  -4.014  0.00  0.00    -0.302 N 
ATOM     17  H   UNL     1       1.481  -7.326  -4.648  0.00  0.00    +0.171 HD
ATOM     18  C   UNL     1       3.428  -7.379  -4.123  0.00  0.00    +0.254 A 
ATOM     19  O   UNL     1       3.779  -8.135  -5.015  0.00  0.00    -0.268 OA
ATOM     20  C   UNL     1       4.356  -6.892  -3.197  0.00  0.00    +0.113 A 
ATOM     21  C   UNL     1       3.917  -6.034  -2.199  0.00  0.00    +0.124 A 
ATOM     22  N   UNL     1       2.626  -5.686  -2.143  0.00  0.00    -0.208 NA
BRANCH  21  23
ATOM     23  N   UNL     1       4.809  -5.537  -1.270  0.00  0.00    -0.343 N 
ATOM     24  H   UNL     1       5.745  -5.787  -1.315  0.00  0.00    +0.144 HD
ATOM     25  H   UNL     1       4.500  -4.937  -0.573  0.00  0.00    +0.144 HD
ENDBRANCH  21  23
ENDBRANCH  14  15
ENDBRANCH   6  14
TORSDOF 4
