REMARK  Name = ZINC50709537
REMARK  8 active torsions:
REMARK  status: ('A' for Active; 'I' for Inactive)
REMARK    1  A    between atoms: C_1  and  C_2
REMARK    2  A    between atoms: C_8  and  N_10
REMARK    3  A    between atoms: N_10  and  C_11
REMARK    4  A    between atoms: C_12  and  C_14
REMARK    5  A    between atoms: C_15  and  N_23
REMARK    6  A    between atoms: C_18  and  C_20
REMARK    7  A    between atoms: C_20  and  C_21
REMARK    8  A    between atoms: C_20  and  C_22
REMARK                            x       y       z     vdW  Elec       q    Type
REMARK                         _______ _______ _______ _____ _____    ______ ____
ROOT
ATOM      1  C   UNL     1       0.236   1.137   4.713  0.00  0.00    +0.150 A 
ATOM      2  C   UNL     1       1.031   1.786   5.670  0.00  0.00    +0.074 A 
ATOM      3  C   UNL     1       0.429   2.174   6.870  0.00  0.00    +0.137 A 
ATOM      4  N   UNL     1      -0.852   1.918   7.056  0.00  0.00    -0.238 NA
ATOM      5  C   UNL     1      -1.567   1.305   6.132  0.00  0.00    +0.132 A 
ATOM      6  N   UNL     1      -1.050   0.924   4.985  0.00  0.00    -0.225 NA
ENDROOT
BRANCH   1   9
ATOM      7  N   UNL     1       0.073  -0.019   2.559  0.00  0.00    -0.296 N 
ATOM      8  C   UNL     1      -1.338  -0.285   2.851  0.00  0.00    +0.132 C 
ATOM      9  C   UNL     1       0.816   0.702   3.422  0.00  0.00    +0.267 C 
ATOM     10  O   UNL     1       1.961   0.994   3.141  0.00  0.00    -0.268 OA
BRANCH   7  17
ATOM     11  C   UNL     1      -0.038   1.524   0.111  0.00  0.00    +0.009 C 
ATOM     12  C   UNL     1      -0.095  -0.005   0.119  0.00  0.00    +0.006 C 
ATOM     13  C   UNL     1      -1.553  -0.461   0.203  0.00  0.00    +0.005 C 
ATOM     14  C   UNL     1      -1.610  -1.990   0.212  0.00  0.00    +0.000 C 
ATOM     15  C   UNL     1      -0.839  -2.522   1.422  0.00  0.00    +0.002 C 
ATOM     16  C   UNL     1       0.619  -2.067   1.337  0.00  0.00    +0.023 C 
ATOM     17  C   UNL     1       0.676  -0.538   1.329  0.00  0.00    +0.079 C 
ENDBRANCH   7  17
ENDBRANCH   1   9
BRANCH   5  18
ATOM     18  C   UNL     1      -3.026   1.037   6.398  0.00  0.00    +0.051 C 
ATOM     19  C   UNL     1      -3.165   0.154   7.639  0.00  0.00    +0.015 C 
ATOM     20  C   UNL     1      -3.754   2.363   6.631  0.00  0.00    +0.015 C 
ENDBRANCH   5  18
BRANCH   2  21
ATOM     21  N   UNL     1       2.376   2.035   5.432  0.00  0.00    -0.355 N 
ATOM     22  H   UNL     1       2.762   1.827   4.567  0.00  0.00    +0.142 HD
ATOM     23  H   UNL     1       2.930   2.416   6.131  0.00  0.00    +0.142 HD
ENDBRANCH   2  21
TORSDOF 4
