REMARK  Name = ZINC63589432
REMARK  10 active torsions:
REMARK  status: ('A' for Active; 'I' for Inactive)
REMARK    1  A    between atoms: C_1  and  O_2
REMARK    2  A    between atoms: O_2  and  C_3
REMARK    3  A    between atoms: C_5  and  N_11
REMARK    4  A    between atoms: C_7  and  O_9
REMARK    5  A    between atoms: O_9  and  C_10
REMARK    6  A    between atoms: N_13  and  C_14
REMARK    7  A    between atoms: C_14  and  C_15
REMARK    8  A    between atoms: C_15  and  C_16
REMARK    9  A    between atoms: N_25  and  C_26
REMARK   10  A    between atoms: C_26  and  C_28
REMARK                            x       y       z     vdW  Elec       q    Type
REMARK                         _______ _______ _______ _____ _____    ______ ____
ROOT
ATOM      1  N   UNL     1       0.749  -4.300   2.871  0.00  0.00    -0.328 N 
ATOM      2  C   UNL     1       2.011  -4.646   3.260  0.00  0.00    +0.194 C 
ATOM      3  N   UNL     1       2.621  -5.735   2.710  0.00  0.00    -0.357 N 
ATOM      4  N   UNL     1       2.644  -3.924   4.173  0.00  0.00    -0.143 NA
ATOM      5  H   UNL     1       3.518  -5.981   2.987  0.00  0.00    +0.162 HD
ATOM      6  H   UNL     1       0.331  -4.755   2.123  0.00  0.00    +0.169 HD
ENDROOT
BRANCH   1   9
ATOM      7  C   UNL     1      -1.045  -1.157   3.540  0.00  0.00    +0.126 A 
ATOM      8  C   UNL     1      -0.361  -2.157   2.867  0.00  0.00    +0.071 A 
ATOM      9  C   UNL     1       0.060  -3.290   3.550  0.00  0.00    +0.049 A 
ATOM     10  C   UNL     1      -0.204  -3.420   4.907  0.00  0.00    +0.071 A 
ATOM     11  C   UNL     1      -0.888  -2.419   5.579  0.00  0.00    +0.126 A 
ATOM     12  C   UNL     1      -1.303  -1.285   4.897  0.00  0.00    +0.091 A 
BRANCH   7  14
ATOM     13  C   UNL     1      -2.150   0.946   3.630  0.00  0.00    +0.277 C 
ATOM     14  O   UNL     1      -1.457  -0.047   2.872  0.00  0.00    -0.495 OA
ENDBRANCH   7  14
BRANCH  11  15
ATOM     15  O   UNL     1      -1.146  -2.546   6.907  0.00  0.00    -0.495 OA
ATOM     16  C   UNL     1      -1.950  -1.532   7.511  0.00  0.00    +0.277 C 
ENDBRANCH  11  15
ENDBRANCH   1   9
BRANCH   4  17
ATOM     17  C   UNL     1       2.591  -2.586   4.123  0.00  0.00    +0.270 C 
ATOM     18  O   UNL     1       1.959  -2.034   3.240  0.00  0.00    -0.268 OA
BRANCH  17  19
ATOM     19  C   UNL     1       3.299  -1.779   5.141  0.00  0.00    +0.039 A 
ATOM     20  C   UNL     1       4.113  -2.404   6.087  0.00  0.00    +0.016 A 
ATOM     21  C   UNL     1       4.771  -1.647   7.034  0.00  0.00    +0.039 A 
ATOM     22  C   UNL     1       4.625  -0.269   7.047  0.00  0.00    +0.123 A 
ATOM     23  C   UNL     1       3.818   0.356   6.109  0.00  0.00    +0.039 A 
ATOM     24  C   UNL     1       3.160  -0.390   5.155  0.00  0.00    +0.016 A 
ATOM     25  F   UNL     1       5.271   0.468   7.977  0.00  0.00    -0.205 F 
ENDBRANCH  17  19
ENDBRANCH   4  17
BRANCH   3  26
ATOM     26  C   UNL     1       1.921  -6.534   1.701  0.00  0.00    +0.120 C 
BRANCH  26  27
ATOM     27  C   UNL     1       2.820  -7.688   1.251  0.00  0.00    +0.054 C 
BRANCH  27  28
ATOM     28  C   UNL     1       2.100  -8.510   0.213  0.00  0.00    -0.040 C 
ATOM     29  C   UNL     1       2.200  -8.392  -1.131  0.00  0.00    -0.001 A 
ATOM     30  C   UNL     1       2.979  -7.497  -1.995  0.00  0.00    +0.010 A 
ATOM     31  C   UNL     1       2.868  -7.620  -3.337  0.00  0.00    +0.001 A 
ATOM     32  C   UNL     1       2.030  -8.579  -3.922  0.00  0.00    +0.002 A 
ATOM     33  C   UNL     1       1.283  -9.436  -3.195  0.00  0.00    +0.026 A 
ATOM     34  C   UNL     1       1.323  -9.396  -1.773  0.00  0.00    +0.043 A 
ATOM     35  N   UNL     1       0.704 -10.107  -0.863  0.00  0.00    -0.380 N 
ATOM     36  C   UNL     1       1.124  -9.638   0.463  0.00  0.00    +0.144 C 
ATOM     37  H   UNL     1       0.076 -10.826  -1.036  0.00  0.00    +0.160 HD
ENDBRANCH  27  28
ENDBRANCH  26  27
ENDBRANCH   3  26
TORSDOF 8
