REMARK  Name = ZINC12856369
REMARK  9 active torsions:
REMARK  status: ('A' for Active; 'I' for Inactive)
REMARK    1  A    between atoms: C_1  and  C_2
REMARK    2  A    between atoms: C_2  and  C_3
REMARK    3  A    between atoms: C_2  and  C_4
REMARK    4  A    between atoms: C_4  and  O_35
REMARK    5  A    between atoms: C_5  and  C_31
REMARK    6  A    between atoms: C_7  and  C_23
REMARK    7  A    between atoms: N_12  and  C_13
REMARK    8  A    between atoms: C_31  and  O_33
REMARK    9  A    between atoms: O_33  and  C_34
REMARK                            x       y       z     vdW  Elec       q    Type
REMARK                         _______ _______ _______ _____ _____    ______ ____
ROOT
ATOM      1  C   UNL     1       3.597  -2.133   0.079  0.00  0.00    +0.156 C 
ATOM      2  C   UNL     1       4.702  -2.783   0.919  0.00  0.00    +0.173 C 
ATOM      3  C   UNL     1       6.058  -2.279   0.416  0.00  0.00    +0.126 C 
ATOM      4  N   UNL     1       6.071  -0.816   0.456  0.00  0.00    -0.318 N 
ATOM      5  C   UNL     1       4.944  -0.104   0.307  0.00  0.00    +0.140 C 
ATOM      6  S   UNL     1       5.040   1.605   0.343  0.00  0.00    -0.018 S 
ATOM      7  N   UNL     1       3.744  -0.678   0.137  0.00  0.00    -0.253 N 
ATOM      8  H   UNL     1       6.912  -0.351   0.588  0.00  0.00    +0.148 HD
ENDROOT
BRANCH   7   9
ATOM      9  C   UNL     1       2.608   0.132   0.006  0.00  0.00    +0.042 A 
ATOM     10  C   UNL     1       2.460   0.946  -1.109  0.00  0.00    +0.027 A 
ATOM     11  C   UNL     1       1.342   1.746  -1.237  0.00  0.00    +0.051 A 
ATOM     12  C   UNL     1       0.363   1.738  -0.255  0.00  0.00    +0.162 A 
ATOM     13  C   UNL     1       0.506   0.922   0.861  0.00  0.00    +0.164 A 
ATOM     14  C   UNL     1       1.630   0.120   0.991  0.00  0.00    +0.073 A 
ATOM     15  O   UNL     1      -0.448   0.894   1.831  0.00  0.00    -0.485 OA
ATOM     16  C   UNL     1      -1.377   1.984   1.852  0.00  0.00    +0.270 C 
ATOM     17  C   UNL     1      -1.866   2.226   0.418  0.00  0.00    +0.270 C 
ATOM     18  O   UNL     1      -0.730   2.540  -0.395  0.00  0.00    -0.485 OA
ENDBRANCH   7   9
BRANCH   3  19
ATOM     19  C   UNL     1       6.276  -2.746  -1.000  0.00  0.00    +0.044 A 
ATOM     20  C   UNL     1       6.304  -4.101  -1.285  0.00  0.00    +0.131 A 
ATOM     21  C   UNL     1       6.499  -4.529  -2.588  0.00  0.00    +0.039 A 
ATOM     22  C   UNL     1       6.676  -3.605  -3.600  0.00  0.00    +0.006 A 
ATOM     23  C   UNL     1       6.654  -2.253  -3.315  0.00  0.00    +0.039 A 
ATOM     24  C   UNL     1       6.454  -1.822  -2.015  0.00  0.00    +0.131 A 
ATOM     25  F   UNL     1       6.432  -0.500  -1.736  0.00  0.00    -0.205 F 
ATOM     26  F   UNL     1       6.136  -5.004  -0.295  0.00  0.00    -0.205 F 
ENDBRANCH   3  19
BRANCH   1  28
ATOM     27  C   UNL     1       3.535  -4.120  -1.434  0.00  0.00    +0.012 C 
ATOM     28  C   UNL     1       3.716  -2.602  -1.372  0.00  0.00    +0.034 C 
ATOM     29  C   UNL     1       2.635  -1.925  -2.217  0.00  0.00    +0.012 C 
ENDBRANCH   1  28
BRANCH   2  30
ATOM     30  C   UNL     1       4.526  -2.404   2.367  0.00  0.00    +0.317 C 
ATOM     31  O   UNL     1       3.611  -1.687   2.697  0.00  0.00    -0.250 OA
BRANCH  30  32
ATOM     32  O   UNL     1       5.385  -2.863   3.291  0.00  0.00    -0.468 OA
ATOM     33  C   UNL     1       5.155  -2.457   4.665  0.00  0.00    +0.280 C 
ENDBRANCH  30  32
ENDBRANCH   2  30
BRANCH   1  34
ATOM     34  O   UNL     1       2.319  -2.506   0.599  0.00  0.00    -0.370 OA
ATOM     35  H   UNL     1       1.572  -2.142   0.103  0.00  0.00    +0.212 HD
ENDBRANCH   1  34
TORSDOF 6
