REMARK  Name = ZINC24152570
REMARK  3 active torsions:
REMARK  status: ('A' for Active; 'I' for Inactive)
REMARK    1  A    between atoms: C_1  and  C_2
REMARK    2  A    between atoms: C_10  and  C_11
REMARK    3  A    between atoms: N_20  and  C_23
REMARK                            x       y       z     vdW  Elec       q    Type
REMARK                         _______ _______ _______ _____ _____    ______ ____
ROOT
ATOM      1  C   UNL     1       0.030  -0.162   2.546  0.00  0.00    +0.257 C 
ATOM      2  O   UNL     1       0.016   1.040   2.734  0.00  0.00    -0.269 OA
ATOM      3  N   UNL     1       0.052  -1.008   3.595  0.00  0.00    -0.260 N 
ATOM      4  C   UNL     1       0.058  -0.508   4.890  0.00  0.00    +0.165 A 
ATOM      5  N   UNL     1       0.084  -1.176   6.024  0.00  0.00    -0.229 NA
ATOM      6  C   UNL     1       0.086  -0.559   7.200  0.00  0.00    +0.056 A 
ATOM      7  C   UNL     1       0.059   0.799   7.135  0.00  0.00    +0.028 A 
ATOM      8  S   UNL     1       0.042   1.101   5.392  0.00  0.00    -0.055 S 
ATOM      9  C   UNL     1       0.051   1.752   8.281  0.00  0.00    +0.128 C 
ATOM     10  N   UNL     1      -0.275   0.992   9.505  0.00  0.00    -0.300 NA
ATOM     11  C   UNL     1       0.554  -0.217   9.604  0.00  0.00    +0.090 C 
ATOM     12  C   UNL     1       0.119  -1.248   8.557  0.00  0.00    +0.071 C 
ATOM     13  C   UNL     1      -0.126   1.832  10.701  0.00  0.00    +0.105 C 
ATOM     14  H   UNL     1       0.063  -1.966   3.445  0.00  0.00    +0.157 HD
ENDROOT
BRANCH   1  24
ATOM     15  C   UNL     1      -0.018   1.503   0.010  0.00  0.00    +0.046 C 
ATOM     16  C   UNL     1       0.002  -0.004   0.002  0.00  0.00    -0.021 A 
ATOM     17  C   UNL     1       0.005  -0.701  -1.219  0.00  0.00    +0.028 A 
ATOM     18  C   UNL     1      -0.009  -0.167  -2.536  0.00  0.00    +0.132 A 
ATOM     19  C   UNL     1      -0.004  -0.998  -3.625  0.00  0.00    +0.039 A 
ATOM     20  C   UNL     1       0.015  -2.380  -3.483  0.00  0.00    +0.004 A 
ATOM     21  C   UNL     1       0.029  -2.934  -2.219  0.00  0.00    +0.016 A 
ATOM     22  C   UNL     1       0.025  -2.112  -1.112  0.00  0.00    +0.023 A 
ATOM     23  S   UNL     1       0.038  -2.393   0.640  0.00  0.00    -0.083 S 
ATOM     24  C   UNL     1       0.023  -0.691   1.176  0.00  0.00    +0.078 A 
ATOM     25  F   UNL     1      -0.028   1.172  -2.715  0.00  0.00    -0.205 F 
ENDBRANCH   1  24
TORSDOF 1
