REMARK  Name = ZINC38320823
REMARK  5 active torsions:
REMARK  status: ('A' for Active; 'I' for Inactive)
REMARK    1  A    between atoms: C_1  and  C_2
REMARK    2  A    between atoms: N_9  and  N_10
REMARK    3  A    between atoms: C_15  and  C_18
REMARK    4  A    between atoms: C_18  and  C_19
REMARK    5  A    between atoms: C_19  and  C_21
REMARK                            x       y       z     vdW  Elec       q    Type
REMARK                         _______ _______ _______ _____ _____    ______ ____
ROOT
ATOM      1  N   UNL     1       0.074  -3.921   4.362  0.00  0.00    -0.126 NA
ATOM      2  C   UNL     1       0.076  -3.720   5.676  0.00  0.00    +0.183 C 
ATOM      3  N   UNL     1       0.057  -2.519   6.325  0.00  0.00    -0.263 N 
ATOM      4  C   UNL     1       0.061  -2.425   7.647  0.00  0.00    +0.232 C 
ATOM      5  O   UNL     1       0.043  -1.368   8.242  0.00  0.00    -0.274 OA
ATOM      6  C   UNL     1       0.090  -3.778   8.344  0.00  0.00    +0.147 C 
ATOM      7  S   UNL     1       0.097  -4.892   6.882  0.00  0.00    -0.075 S 
ATOM      8  H   UNL     1       0.039  -1.704   5.799  0.00  0.00    +0.157 HD
ENDROOT
BRANCH   1  17
ATOM      9  C   UNL     1      -0.018   1.503   0.010  0.00  0.00    +0.044 C 
ATOM     10  C   UNL     1       0.002  -0.004   0.002  0.00  0.00    -0.050 A 
ATOM     11  C   UNL     1       0.006  -0.689  -1.202  0.00  0.00    +0.005 A 
ATOM     12  C   UNL     1       0.024  -2.069  -1.226  0.00  0.00    +0.024 A 
ATOM     13  C   UNL     1       0.039  -2.788  -0.036  0.00  0.00    +0.043 A 
ATOM     14  C   UNL     1       0.035  -2.091   1.181  0.00  0.00    +0.029 A 
ATOM     15  C   UNL     1       0.023  -0.699   1.194  0.00  0.00    +0.015 A 
ATOM     16  C   UNL     1       0.054  -3.115   2.247  0.00  0.00    +0.157 C 
ATOM     17  N   UNL     1       0.057  -2.915   3.555  0.00  0.00    -0.142 NA
ATOM     18  C   UNL     1       0.068  -4.402   1.541  0.00  0.00    +0.269 C 
ATOM     19  O   UNL     1       0.084  -5.504   2.061  0.00  0.00    -0.268 OA
ATOM     20  N   UNL     1       0.059  -4.153   0.221  0.00  0.00    -0.280 N 
ATOM     21  H   UNL     1       0.064  -4.838  -0.466  0.00  0.00    +0.155 HD
ENDBRANCH   1  17
BRANCH   6  22
ATOM     22  C   UNL     1       1.359  -3.944   9.182  0.00  0.00    +0.103 C 
BRANCH  22  23
ATOM     23  C   UNL     1       1.288  -5.240   9.948  0.00  0.00    +0.165 C 
ATOM     24  O   UNL     1       0.319  -5.960   9.835  0.00  0.00    -0.292 OA
BRANCH  23  25
ATOM     25  C   UNL     1       2.396  -5.631  10.834  0.00  0.00    +0.018 A 
ATOM     26  C   UNL     1       3.513  -4.801  10.972  0.00  0.00    +0.012 A 
ATOM     27  C   UNL     1       4.546  -5.174  11.804  0.00  0.00    +0.016 A 
ATOM     28  C   UNL     1       4.481  -6.369  12.502  0.00  0.00    +0.018 A 
ATOM     29  C   UNL     1       3.378  -7.197  12.370  0.00  0.00    +0.016 A 
ATOM     30  C   UNL     1       2.334  -6.834  11.547  0.00  0.00    +0.012 A 
ATOM     31 BR   UNL     1       5.904  -6.873  13.640  0.00  0.00    -0.050 Br
ENDBRANCH  23  25
ENDBRANCH  22  23
ENDBRANCH   6  22
TORSDOF 4
