REMARK  Name = ZINC03345988
REMARK  8 active torsions:
REMARK  status: ('A' for Active; 'I' for Inactive)
REMARK    1  A    between atoms: C_1  and  C_2
REMARK    2  A    between atoms: C_5  and  C_17
REMARK    3  A    between atoms: C_7  and  S_8
REMARK    4  A    between atoms: S_8  and  N_11
REMARK    5  A    between atoms: C_17  and  O_19
REMARK    6  A    between atoms: O_19  and  C_20
REMARK    7  A    between atoms: C_20  and  C_21
REMARK    8  A    between atoms: C_21  and  C_23
REMARK                            x       y       z     vdW  Elec       q    Type
REMARK                         _______ _______ _______ _____ _____    ______ ____
ROOT
ATOM      1  C   UNL     1      -0.425   1.490   0.078  0.00  0.00    +0.046 C 
ATOM      2  C   UNL     1      -0.201   0.000   0.029  0.00  0.00    -0.024 A 
ATOM      3  C   UNL     1      -0.310  -0.674  -1.175  0.00  0.00    +0.006 A 
ATOM      4  C   UNL     1      -0.106  -2.037  -1.227  0.00  0.00    +0.015 A 
ATOM      5  C   UNL     1       0.211  -2.737  -0.061  0.00  0.00    +0.061 A 
ATOM      6  C   UNL     1       0.320  -2.050   1.150  0.00  0.00    +0.043 A 
ATOM      7  C   UNL     1       0.119  -0.686   1.187  0.00  0.00    +0.109 A 
ENDROOT
BRANCH   7   8
ATOM      8  S   UNL     1       0.263   0.183   2.713  0.00  0.00    +0.061 S 
ATOM      9  O   UNL     1      -0.844   1.071   2.780  0.00  0.00    -0.153 OA
ATOM     10  O   UNL     1       0.520  -0.793   3.713  0.00  0.00    -0.153 OA
BRANCH   8  11
ATOM     11  N   UNL     1       1.621   1.126   2.613  0.00  0.00    -0.177 NA
ATOM     12  C   UNL     1       2.942   0.574   2.942  0.00  0.00    +0.109 C 
ATOM     13  C   UNL     1       3.889   0.827   1.765  0.00  0.00    +0.017 C 
ATOM     14  C   UNL     1       3.897   2.321   1.433  0.00  0.00    +0.003 C 
ATOM     15  C   UNL     1       2.490   2.762   1.024  0.00  0.00    +0.017 C 
ATOM     16  C   UNL     1       1.527   2.529   2.187  0.00  0.00    +0.109 C 
ENDBRANCH   8  11
ENDBRANCH   7   8
BRANCH   5  17
ATOM     17  C   UNL     1       0.431  -4.197  -0.108  0.00  0.00    +0.340 C 
ATOM     18  O   UNL     1       0.707  -4.803   0.907  0.00  0.00    -0.245 OA
BRANCH  17  19
ATOM     19  O   UNL     1       0.324  -4.856  -1.278  0.00  0.00    -0.453 OA
BRANCH  19  20
ATOM     20  C   UNL     1       0.549  -6.267  -1.251  0.00  0.00    +0.312 C 
BRANCH  20  21
ATOM     21  C   UNL     1       0.389  -6.828  -2.640  0.00  0.00    +0.202 C 
ATOM     22  O   UNL     1       0.108  -6.092  -3.564  0.00  0.00    -0.288 OA
BRANCH  21  23
ATOM     23  C   UNL     1       0.564  -8.216  -2.868  0.00  0.00    +0.046 A 
ATOM     24  C   UNL     1       0.876  -9.177  -1.930  0.00  0.00    +0.095 A 
ATOM     25  N   UNL     1       0.959 -10.381  -2.526  0.00  0.00    -0.360 N 
ATOM     26  H   UNL     1       1.167 -11.210  -2.067  0.00  0.00    +0.165 HD
ATOM     27  C   UNL     1       0.708 -10.275  -3.879  0.00  0.00    +0.047 A 
ATOM     28  C   UNL     1       0.444  -8.925  -4.158  0.00  0.00    +0.010 A 
ATOM     29  C   UNL     1       0.150  -8.524  -5.457  0.00  0.00    +0.011 A 
ATOM     30  C   UNL     1       0.115  -9.460  -6.469  0.00  0.00    +0.001 A 
ATOM     31  C   UNL     1       0.371 -10.795  -6.195  0.00  0.00    +0.002 A 
ATOM     32  C   UNL     1       0.672 -11.204  -4.914  0.00  0.00    +0.026 A 
ENDBRANCH  21  23
ENDBRANCH  20  21
ENDBRANCH  19  20
ENDBRANCH  17  19
ENDBRANCH   5  17
TORSDOF 7
