REMARK  Name = ZINC14195213
REMARK  4 active torsions:
REMARK  status: ('A' for Active; 'I' for Inactive)
REMARK    1  A    between atoms: C_10  and  C_11
REMARK    2  A    between atoms: C_11  and  N_12
REMARK    3  A    between atoms: N_15  and  C_18
REMARK    4  A    between atoms: C_21  and  N_24
REMARK                            x       y       z     vdW  Elec       q    Type
REMARK                         _______ _______ _______ _____ _____    ______ ____
ROOT
ATOM      1  N   UNL     1       1.587   6.078  -1.005  0.00  0.00    -0.295 NA
ATOM      2  C   UNL     1       2.372   5.527   0.108  0.00  0.00    +0.103 C 
ATOM      3  C   UNL     1       2.320   3.998   0.057  0.00  0.00    +0.120 C 
ATOM      4  N   UNL     1       0.921   3.555   0.134  0.00  0.00    -0.327 N 
ATOM      5  C   UNL     1       0.135   4.107  -0.978  0.00  0.00    +0.120 C 
ATOM      6  C   UNL     1       0.187   5.635  -0.928  0.00  0.00    +0.103 C 
ENDROOT
BRANCH   4   7
ATOM      7  C   UNL     1       0.838   2.161   0.163  0.00  0.00    +0.030 A 
ATOM      8  C   UNL     1      -0.402   1.539   0.235  0.00  0.00    +0.025 A 
ATOM      9  C   UNL     1      -0.481   0.161   0.263  0.00  0.00    +0.034 A 
ATOM     10  C   UNL     1       0.673  -0.600   0.219  0.00  0.00    +0.126 A 
ATOM     11  C   UNL     1       1.909   0.016   0.147  0.00  0.00    +0.034 A 
ATOM     12  C   UNL     1       1.995   1.394   0.120  0.00  0.00    +0.025 A 
BRANCH  10  13
ATOM     13  N   UNL     1       0.585  -2.078   0.248  0.00  0.00    +0.056 N 
ATOM     14  O   UNL     1      -0.503  -2.622   0.312  0.00  0.00    -0.126 OA
ATOM     15  O   UNL     1       1.600  -2.749   0.209  0.00  0.00    -0.126 OA
ENDBRANCH  10  13
ENDBRANCH   4   7
BRANCH   1  16
ATOM     16  C   UNL     1       1.674   7.544  -1.035  0.00  0.00    +0.120 C 
BRANCH  16  26
ATOM     17  C   UNL     1       3.578   7.652  -5.785  0.00  0.00    +0.001 A 
ATOM     18  C   UNL     1       4.035   7.180  -4.556  0.00  0.00    +0.001 A 
ATOM     19  C   UNL     1       3.276   7.300  -3.433  0.00  0.00    +0.009 A 
ATOM     20  C   UNL     1       2.013   7.912  -3.510  0.00  0.00    -0.013 A 
ATOM     21  C   UNL     1       1.546   8.388  -4.761  0.00  0.00    -0.018 A 
ATOM     22  C   UNL     1       2.359   8.246  -5.898  0.00  0.00    +0.008 A 
ATOM     23  C   UNL     1       0.282   8.996  -4.838  0.00  0.00    +0.008 A 
ATOM     24  C   UNL     1      -0.478   9.115  -3.715  0.00  0.00    +0.001 A 
ATOM     25  C   UNL     1      -0.021   8.643  -2.486  0.00  0.00    +0.005 A 
ATOM     26  C   UNL     1       1.198   8.048  -2.373  0.00  0.00    -0.026 A 
ENDBRANCH  16  26
ENDBRANCH   1  16
TORSDOF 4
