REMARK  Name = ZINC35155529
REMARK  9 active torsions:
REMARK  status: ('A' for Active; 'I' for Inactive)
REMARK    1  A    between atoms: C_1  and  C_2
REMARK    2  A    between atoms: C_2  and  C_3
REMARK    3  A    between atoms: C_3  and  C_5
REMARK    4  A    between atoms: C_3  and  C_6
REMARK    5  A    between atoms: C_6  and  C_8
REMARK    6  A    between atoms: C_6  and  N_27
REMARK    7  A    between atoms: C_14  and  C_17
REMARK    8  A    between atoms: N_20  and  C_21
REMARK    9  A    between atoms: C_28  and  C_30
REMARK                            x       y       z     vdW  Elec       q    Type
REMARK                         _______ _______ _______ _____ _____    ______ ____
ROOT
ATOM      1  C   UNL     1       0.973  -2.136  -0.058  0.00  0.00    +0.236 C 
ATOM      2  O   UNL     1       0.029  -2.361   0.670  0.00  0.00    -0.274 OA
ATOM      3  N   UNL     1       2.195  -1.925   0.470  0.00  0.00    -0.297 N 
ATOM      4  C   UNL     1       3.358  -1.704  -0.402  0.00  0.00    +0.127 C 
ATOM      5  C   UNL     1       4.441  -2.728  -0.041  0.00  0.00    +0.128 C 
ATOM      6  N   UNL     1       4.635  -2.713   1.416  0.00  0.00    -0.280 N 
ATOM      7  C   UNL     1       3.472  -2.933   2.287  0.00  0.00    +0.092 C 
ATOM      8  C   UNL     1       2.387  -1.904   1.927  0.00  0.00    +0.130 C 
ATOM      9  C   UNL     1       2.935  -4.351   2.078  0.00  0.00    +0.030 C 
ATOM     10  C   UNL     1       5.857  -2.502   1.944  0.00  0.00    +0.307 C 
ATOM     11  O   UNL     1       6.024  -2.586   3.145  0.00  0.00    -0.252 OA
ATOM     12  N   UNL     1       6.894  -2.196   1.139  0.00  0.00    -0.269 N 
ATOM     13  H   UNL     1       6.752  -2.079   0.187  0.00  0.00    +0.156 HD
ENDROOT
BRANCH  12  14
ATOM     14  C   UNL     1       8.178  -2.048   1.678  0.00  0.00    +0.035 A 
ATOM     15  C   UNL     1       8.576  -2.832   2.753  0.00  0.00    +0.023 A 
ATOM     16  C   UNL     1       9.843  -2.683   3.282  0.00  0.00    +0.002 A 
ATOM     17  C   UNL     1      10.715  -1.755   2.743  0.00  0.00    +0.000 A 
ATOM     18  C   UNL     1      10.321  -0.973   1.672  0.00  0.00    +0.002 A 
ATOM     19  C   UNL     1       9.057  -1.121   1.135  0.00  0.00    +0.023 A 
ENDBRANCH  12  14
BRANCH   1  20
ATOM     20  C   UNL     1       0.779  -2.094  -1.552  0.00  0.00    +0.162 C 
BRANCH  20  21
ATOM     21  N   UNL     1      -0.345  -2.957  -1.923  0.00  0.00    -0.299 N 
ATOM     22  C   UNL     1      -0.410  -3.483  -3.162  0.00  0.00    +0.251 C 
ATOM     23  O   UNL     1       0.465  -3.241  -3.973  0.00  0.00    -0.270 OA
ATOM     24  H   UNL     1      -1.043  -3.149  -1.277  0.00  0.00    +0.150 HD
BRANCH  22  25
ATOM     25  C   UNL     1      -1.535  -4.346  -3.534  0.00  0.00    +0.074 A 
ATOM     26  C   UNL     1      -1.786  -4.984  -4.739  0.00  0.00    +0.021 A 
ATOM     27  C   UNL     1      -2.936  -5.735  -4.788  0.00  0.00    +0.008 A 
ATOM     28  C   UNL     1      -3.728  -5.802  -3.689  0.00  0.00    +0.046 A 
ATOM     29  S   UNL     1      -2.933  -4.855  -2.552  0.00  0.00    -0.092 S 
ENDBRANCH  22  25
ENDBRANCH  20  21
BRANCH  20  30
ATOM     30  C   UNL     1       0.485  -0.657  -1.987  0.00  0.00    +0.015 C 
ATOM     31  C   UNL     1       1.704   0.222  -1.701  0.00  0.00    +0.010 C 
BRANCH  30  33
ATOM     32  C   UNL     1      -1.092   1.264  -1.733  0.00  0.00    +0.004 C 
ATOM     33  C   UNL     1      -0.721  -0.125  -1.210  0.00  0.00    +0.002 C 
ENDBRANCH  30  33
ENDBRANCH  20  30
ENDBRANCH   1  20
TORSDOF 6
