REMARK  Name = ZINC21251117
REMARK  10 active torsions:
REMARK  status: ('A' for Active; 'I' for Inactive)
REMARK    1  A    between atoms: C_1  and  C_2
REMARK    2  A    between atoms: C_2  and  C_4
REMARK    3  A    between atoms: C_2  and  N_7
REMARK    4  A    between atoms: C_4  and  O_5
REMARK    5  A    between atoms: O_5  and  C_6
REMARK    6  A    between atoms: C_17  and  S_18
REMARK    7  A    between atoms: S_18  and  C_19
REMARK    8  A    between atoms: C_19  and  C_21
REMARK    9  A    between atoms: C_19  and  C_22
REMARK   10  A    between atoms: N_27  and  C_28
REMARK                            x       y       z     vdW  Elec       q    Type
REMARK                         _______ _______ _______ _____ _____    ______ ____
ROOT
ATOM      1  C   UNL     1      -6.426   4.328   3.138  0.00  0.00    +0.137 C 
ATOM      2  C   UNL     1      -6.497   5.091   1.814  0.00  0.00    +0.029 C 
ENDROOT
BRANCH   1   3
ATOM      3  C   UNL     1      -7.794   3.800   3.488  0.00  0.00    +0.233 C 
ATOM      4  O   UNL     1      -8.072   2.641   3.267  0.00  0.00    -0.274 OA
ATOM      5  N   UNL     1      -8.709   4.618   4.046  0.00  0.00    -0.239 N 
ATOM      6  C   UNL     1      -9.932   4.146   4.359  0.00  0.00    +0.306 C 
ATOM      7  O   UNL     1     -10.210   2.984   4.137  0.00  0.00    -0.252 OA
ATOM      8  N   UNL     1     -10.847   4.963   4.918  0.00  0.00    -0.294 N 
ATOM      9  H   UNL     1      -8.457   5.669   4.247  0.00  0.00    +0.159 HD
ATOM     10  H   UNL     1     -10.595   6.015   5.118  0.00  0.00    +0.151 HD
BRANCH   8  11
ATOM     11  C   UNL     1     -12.176   4.450   5.258  0.00  0.00    +0.037 C 
ATOM     12  C   UNL     1     -12.864   3.937   3.991  0.00  0.00    +0.029 C 
ATOM     13  C   UNL     1     -14.253   3.401   4.346  0.00  0.00    -0.008 C 
ATOM     14  C   UNL     1     -15.090   4.524   4.962  0.00  0.00    +0.007 C 
ATOM     15  C   UNL     1     -14.402   5.037   6.228  0.00  0.00    -0.008 C 
ATOM     16  C   UNL     1     -13.014   5.573   5.873  0.00  0.00    +0.029 C 
ATOM     17  C   UNL     1     -14.266   3.893   7.234  0.00  0.00    +0.007 C 
ATOM     18  C   UNL     1     -13.428   2.770   6.619  0.00  0.00    -0.008 C 
ATOM     19  C   UNL     1     -14.116   2.256   5.353  0.00  0.00    +0.007 C 
ATOM     20  C   UNL     1     -12.040   3.306   6.264  0.00  0.00    +0.029 C 
ENDBRANCH   8  11
ENDBRANCH   1   3
BRANCH   1  21
ATOM     21  S   UNL     1      -5.270   2.945   2.976  0.00  0.00    -0.075 S 
BRANCH  21  32
ATOM     22  N   UNL     1      -2.614   3.120   2.553  0.00  0.00    -0.282 N 
ATOM     23  C   UNL     1      -1.438   3.760   2.352  0.00  0.00    +0.263 A 
ATOM     24  O   UNL     1      -0.402   3.141   2.193  0.00  0.00    -0.267 OA
ATOM     25  C   UNL     1      -1.459   5.228   2.333  0.00  0.00    +0.065 A 
ATOM     26  C   UNL     1      -0.301   5.979   2.133  0.00  0.00    +0.015 A 
ATOM     27  C   UNL     1      -0.377   7.345   2.123  0.00  0.00    +0.001 A 
ATOM     28  C   UNL     1      -1.593   7.989   2.311  0.00  0.00    +0.002 A 
ATOM     29  C   UNL     1      -2.743   7.278   2.510  0.00  0.00    +0.028 A 
ATOM     30  C   UNL     1      -2.698   5.881   2.525  0.00  0.00    +0.079 A 
ATOM     31  N   UNL     1      -3.808   5.140   2.717  0.00  0.00    -0.223 NA
ATOM     32  C   UNL     1      -3.767   3.831   2.725  0.00  0.00    +0.173 A 
BRANCH  22  34
ATOM     33  C   UNL     1      -1.621   1.139   3.588  0.00  0.00    +0.033 C 
ATOM     34  C   UNL     1      -2.650   1.656   2.581  0.00  0.00    +0.115 C 
BRANCH  34  35
ATOM     35  C   UNL     1      -2.321   1.111   1.190  0.00  0.00    +0.184 C 
BRANCH  35  36
ATOM     36  O   UNL     1      -0.964   1.423   0.866  0.00  0.00    -0.381 OA
ATOM     37  C   UNL     1      -0.552   0.956  -0.421  0.00  0.00    +0.194 C 
ENDBRANCH  35  36
ENDBRANCH  34  35
ENDBRANCH  22  34
ENDBRANCH  21  32
ENDBRANCH   1  21
TORSDOF 7
