REMARK  Name = ZINC08655303
REMARK  7 active torsions:
REMARK  status: ('A' for Active; 'I' for Inactive)
REMARK    1  A    between atoms: C_7  and  C_11
REMARK    2  A    between atoms: C_7  and  O_29
REMARK    3  A    between atoms: C_11  and  C_12
REMARK    4  A    between atoms: C_12  and  C_21
REMARK    5  A    between atoms: N_13  and  N_14
REMARK    6  A    between atoms: C_15  and  C_17
REMARK    7  A    between atoms: N_19  and  N_20
REMARK                            x       y       z     vdW  Elec       q    Type
REMARK                         _______ _______ _______ _____ _____    ______ ____
ROOT
ATOM      1  C   UNL     1       4.355   4.803   1.222  0.00  0.00    +0.071 C 
ATOM      2  N   UNL     1       4.966   5.938   1.383  0.00  0.00    -0.184 NA
ENDROOT
BRANCH   1   3
ATOM      3  C   UNL     1       5.076   3.538   1.449  0.00  0.00    +0.016 A 
ATOM      4  C   UNL     1       4.399   2.319   1.365  0.00  0.00    +0.012 A 
ATOM      5  C   UNL     1       5.081   1.139   1.574  0.00  0.00    +0.021 A 
ATOM      6  C   UNL     1       6.433   1.160   1.876  0.00  0.00    +0.042 A 
ATOM      7  C   UNL     1       7.110   2.364   1.966  0.00  0.00    +0.040 A 
ATOM      8  C   UNL     1       6.441   3.553   1.755  0.00  0.00    +0.051 A 
ATOM      9 CL   UNL     1       7.291   5.062   1.869  0.00  0.00    -0.083 Cl
ATOM     10 CL   UNL     1       7.282  -0.331   2.143  0.00  0.00    -0.083 Cl
ENDBRANCH   1   3
BRANCH   2  11
ATOM     11  N   UNL     1       4.252   7.139   1.281  0.00  0.00    -0.199 N 
ATOM     12  C   UNL     1       4.904   8.317   1.344  0.00  0.00    +0.319 C 
ATOM     13  O   UNL     1       6.109   8.338   1.490  0.00  0.00    -0.263 OA
ATOM     14  H   UNL     1       3.289   7.122   1.165  0.00  0.00    +0.178 HD
BRANCH  12  15
ATOM     15  C   UNL     1       4.143   9.596   1.235  0.00  0.00    +0.314 C 
ATOM     16  O   UNL     1       2.938   9.576   1.090  0.00  0.00    -0.264 OA
ATOM     17  N   UNL     1       4.795  10.775   1.298  0.00  0.00    -0.246 N 
ATOM     18  H   UNL     1       5.758  10.791   1.415  0.00  0.00    +0.169 HD
BRANCH  17  19
ATOM     19  N   UNL     1       4.099  11.946   1.199  0.00  0.00    -0.254 NA
ATOM     20  H   UNL     1       3.372  11.995   1.897  0.00  0.00    +0.140 HD
ATOM     21  H   UNL     1       4.717  12.741   1.263  0.00  0.00    +0.140 HD
ENDBRANCH  17  19
ENDBRANCH  12  15
ENDBRANCH   2  11
BRANCH   1  22
ATOM     22  C   UNL     1       2.907   4.780   0.802  0.00  0.00    +0.107 C 
BRANCH  22  29
ATOM     23  C   UNL     1      -0.946   5.288  -1.486  0.00  0.00    +0.000 A 
ATOM     24  C   UNL     1      -1.058   4.178  -2.303  0.00  0.00    +0.002 A 
ATOM     25  C   UNL     1       0.040   3.379  -2.549  0.00  0.00    +0.024 A 
ATOM     26  C   UNL     1       1.274   3.694  -1.985  0.00  0.00    +0.040 A 
ATOM     27  C   UNL     1       1.375   4.816  -1.172  0.00  0.00    +0.014 A 
ATOM     28  C   UNL     1       0.277   5.607  -0.922  0.00  0.00    +0.009 A 
ATOM     29  C   UNL     1       2.816   4.886  -0.721  0.00  0.00    +0.174 C 
ATOM     30  C   UNL     1       3.466   3.688  -1.379  0.00  0.00    +0.254 C 
ATOM     31  O   UNL     1       4.630   3.357  -1.286  0.00  0.00    -0.272 OA
ATOM     32  N   UNL     1       2.512   3.058  -2.086  0.00  0.00    -0.282 N 
ATOM     33  H   UNL     1       2.666   2.254  -2.606  0.00  0.00    +0.155 HD
BRANCH  29  34
ATOM     34  O   UNL     1       3.424   6.097  -1.175  0.00  0.00    -0.374 OA
ATOM     35  H   UNL     1       3.421   6.203  -2.136  0.00  0.00    +0.211 HD
ENDBRANCH  29  34
ENDBRANCH  22  29
ENDBRANCH   1  22
TORSDOF 7
