REMARK  Name = ZINC49286427
REMARK  6 active torsions:
REMARK  status: ('A' for Active; 'I' for Inactive)
REMARK    1  A    between atoms: C_1  and  C_2
REMARK    2  A    between atoms: C_2  and  O_3
REMARK    3  A    between atoms: O_3  and  C_4
REMARK    4  A    between atoms: N_6  and  C_7
REMARK    5  A    between atoms: N_16  and  C_17
REMARK    6  A    between atoms: C_17  and  C_18
REMARK                            x       y       z     vdW  Elec       q    Type
REMARK                         _______ _______ _______ _____ _____    ______ ____
ROOT
ATOM      1  C   UNL     1       1.504  -3.745  -2.599  0.00  0.00    +0.094 C 
ATOM      2  C   UNL     1       2.712  -4.059  -3.484  0.00  0.00    +0.025 C 
ATOM      3  C   UNL     1       2.854  -5.575  -3.637  0.00  0.00    +0.021 C 
ATOM      4  C   UNL     1       1.599  -6.136  -4.313  0.00  0.00    +0.109 C 
ATOM      5  N   UNL     1       0.419  -5.715  -3.545  0.00  0.00    -0.284 N 
ATOM      6  C   UNL     1       0.234  -4.285  -3.263  0.00  0.00    +0.131 C 
ATOM      7  C   UNL     1      -0.476  -6.622  -3.108  0.00  0.00    +0.303 C 
ATOM      8  O   UNL     1      -1.396  -6.274  -2.394  0.00  0.00    -0.253 OA
ATOM      9  N   UNL     1      -0.352  -7.917  -3.463  0.00  0.00    -0.295 N 
ATOM     10  H   UNL     1       0.421  -8.208  -3.972  0.00  0.00    +0.151 HD
ENDROOT
BRANCH   1  13
ATOM     11  C   UNL     1       0.765  -1.791  -1.344  0.00  0.00    +0.401 C 
ATOM     12  O   UNL     1       0.299  -2.541  -0.508  0.00  0.00    -0.226 OA
ATOM     13  N   UNL     1       1.388  -2.294  -2.428  0.00  0.00    -0.277 N 
ATOM     14  H   UNL     1       1.759  -1.696  -3.095  0.00  0.00    +0.152 HD
BRANCH  11  15
ATOM     15  O   UNL     1       0.658  -0.459  -1.186  0.00  0.00    -0.451 OA
BRANCH  15  17
ATOM     16  C   UNL     1      -0.038   1.534  -0.010  0.00  0.00    +0.048 C 
ATOM     17  C   UNL     1      -0.015   0.005  -0.014  0.00  0.00    +0.230 C 
ENDBRANCH  15  17
ENDBRANCH  11  15
ENDBRANCH   1  13
BRANCH   9  18
ATOM     18  C   UNL     1      -1.383  -8.884  -3.080  0.00  0.00    +0.148 C 
BRANCH  18  19
ATOM     19  C   UNL     1      -1.008 -10.249  -3.595  0.00  0.00    +0.006 C 
ATOM     20  C   UNL     1      -0.740 -11.217  -2.752  0.00  0.00    +0.021 C 
ATOM     21 BR   UNL     1      -0.923 -10.567  -5.457  0.00  0.00    -0.054 Br
ENDBRANCH  18  19
ENDBRANCH   9  18
TORSDOF 5
