REMARK  Name = ZINC42135097
REMARK  3 active torsions:
REMARK  status: ('A' for Active; 'I' for Inactive)
REMARK    1  A    between atoms: C_1  and  C_2
REMARK    2  A    between atoms: C_8  and  N_10
REMARK    3  A    between atoms: N_10  and  C_11
REMARK                            x       y       z     vdW  Elec       q    Type
REMARK                         _______ _______ _______ _____ _____    ______ ____
ROOT
ATOM      1  C   UNL     1       2.756  -0.284   2.525  0.00  0.00    +0.049 C 
ATOM      2  C   UNL     1       2.071   0.486   3.631  0.00  0.00    -0.030 A 
ATOM      3  C   UNL     1       0.784   0.478   4.119  0.00  0.00    +0.022 A 
ATOM      4  C   UNL     1       0.436   1.314   5.165  0.00  0.00    +0.053 A 
ATOM      5  C   UNL     1       1.387   2.157   5.718  0.00  0.00    +0.139 A 
ATOM      6  C   UNL     1       2.679   2.166   5.229  0.00  0.00    +0.063 A 
ATOM      7  C   UNL     1       3.034   1.326   4.176  0.00  0.00    +0.038 A 
ATOM      8  N   UNL     1       4.253   1.154   3.517  0.00  0.00    -0.286 N 
ATOM      9  C   UNL     1       4.179   0.231   2.540  0.00  0.00    +0.208 C 
ATOM     10  O   UNL     1       5.081  -0.122   1.810  0.00  0.00    -0.277 OA
ATOM     11  F   UNL     1       1.049   2.974   6.740  0.00  0.00    -0.204 F 
ATOM     12 BR   UNL     1      -1.331   1.306   5.840  0.00  0.00    -0.047 Br
ATOM     13  H   UNL     1       5.061   1.643   3.739  0.00  0.00    +0.155 HD
ENDROOT
BRANCH   1  14
ATOM     14  N   UNL     1       2.120  -0.002   1.231  0.00  0.00    +0.391 N 
ATOM     15  H   UNL     1       2.697  -0.365   0.487  0.00  0.00    -0.084 HD
ATOM     16  H   UNL     1       2.014   0.995   1.119  0.00  0.00    -0.084 HD
BRANCH  14  23
ATOM     17  C   UNL     1      -0.082   1.268  -0.160  0.00  0.00    +0.006 C 
ATOM     18  C   UNL     1       0.087  -0.251  -0.112  0.00  0.00    -0.028 C 
ATOM     19  C   UNL     1      -1.288  -0.920  -0.161  0.00  0.00    +0.002 C 
ATOM     20  C   UNL     1      -1.118  -2.439  -0.112  0.00  0.00    +0.000 C 
ATOM     21  C   UNL     1      -0.406  -2.832   1.183  0.00  0.00    -0.002 C 
ATOM     22  C   UNL     1       0.969  -2.164   1.232  0.00  0.00    -0.015 C 
ATOM     23  C   UNL     1       0.800  -0.644   1.184  0.00  0.00    -0.067 C 
ENDBRANCH  14  23
ENDBRANCH   1  14
TORSDOF 2
