REMARK  Name = ZINC35198675
REMARK  14 active torsions:
REMARK  status: ('A' for Active; 'I' for Inactive)
REMARK    1  A    between atoms: C_1  and  C_2
REMARK    2  A    between atoms: C_6  and  C_8
REMARK    3  A    between atoms: C_8  and  S_9
REMARK    4  A    between atoms: S_9  and  C_10
REMARK    5  A    between atoms: C_13  and  C_24
REMARK    6  A    between atoms: N_14  and  C_15
REMARK    7  A    between atoms: C_18  and  N_21
REMARK    8  A    between atoms: C_24  and  C_26
REMARK    9  A    between atoms: C_24  and  N_27
REMARK   10  A    between atoms: C_28  and  C_30
REMARK   11  A    between atoms: C_33  and  C_36
REMARK   12  A    between atoms: C_36  and  C_37
REMARK   13  A    between atoms: C_36  and  C_38
REMARK   14  A    between atoms: C_36  and  C_39
REMARK                            x       y       z     vdW  Elec       q    Type
REMARK                         _______ _______ _______ _____ _____    ______ ____
ROOT
ATOM      1  C   UNL     1       1.622  -4.015   4.517  0.00  0.00    +0.196 A 
ATOM      2  N   UNL     1       0.504  -4.376   5.104  0.00  0.00    -0.122 NA
ATOM      3  N   UNL     1       0.766  -5.007   6.192  0.00  0.00    -0.131 NA
ATOM      4  C   UNL     1       2.054  -5.088   6.366  0.00  0.00    +0.159 A 
ATOM      5  N   UNL     1       2.649  -4.463   5.301  0.00  0.00    -0.273 N 
ENDROOT
BRANCH   5   6
ATOM      6  C   UNL     1       4.023  -4.313   5.066  0.00  0.00    +0.050 A 
ATOM      7  C   UNL     1       4.813  -5.428   4.824  0.00  0.00    +0.028 A 
ATOM      8  C   UNL     1       6.167  -5.277   4.593  0.00  0.00    +0.035 A 
ATOM      9  C   UNL     1       6.734  -4.016   4.602  0.00  0.00    +0.126 A 
ATOM     10  C   UNL     1       5.950  -2.904   4.843  0.00  0.00    +0.035 A 
ATOM     11  C   UNL     1       4.595  -3.048   5.069  0.00  0.00    +0.028 A 
BRANCH   9  12
ATOM     12  N   UNL     1       8.185  -3.858   4.355  0.00  0.00    +0.056 N 
ATOM     13  O   UNL     1       8.873  -4.830   4.145  0.00  0.00    -0.126 OA
ATOM     14  O   UNL     1       8.683  -2.756   4.363  0.00  0.00    -0.126 OA
ENDBRANCH   9  12
ENDBRANCH   5   6
BRANCH   4  15
ATOM     15  C   UNL     1       2.761  -5.750   7.521  0.00  0.00    +0.139 C 
ATOM     16  C   UNL     1       2.690  -7.270   7.358  0.00  0.00    +0.036 C 
BRANCH  15  17
ATOM     17  N   UNL     1       2.113  -5.363   8.776  0.00  0.00    -0.302 N 
ATOM     18  C   UNL     1       2.809  -5.389   9.930  0.00  0.00    +0.245 C 
ATOM     19  O   UNL     1       3.974  -5.734   9.929  0.00  0.00    -0.270 OA
ATOM     20  H   UNL     1       1.183  -5.087   8.777  0.00  0.00    +0.150 HD
BRANCH  18  21
ATOM     21  C   UNL     1       2.155  -4.998  11.197  0.00  0.00    +0.037 A 
ATOM     22  C   UNL     1       0.815  -4.607  11.203  0.00  0.00    +0.013 A 
ATOM     23  C   UNL     1       0.211  -4.243  12.389  0.00  0.00    +0.005 A 
ATOM     24  C   UNL     1       0.930  -4.266  13.570  0.00  0.00    -0.042 A 
ATOM     25  C   UNL     1       2.259  -4.653  13.572  0.00  0.00    +0.005 A 
ATOM     26  C   UNL     1       2.873  -5.024  12.394  0.00  0.00    +0.013 A 
BRANCH  24  27
ATOM     27  C   UNL     1       0.264  -3.867  14.862  0.00  0.00    -0.013 C 
ATOM     28  C   UNL     1      -0.923  -4.795  15.131  0.00  0.00    +0.015 C 
ATOM     29  C   UNL     1       1.269  -3.979  16.010  0.00  0.00    +0.015 C 
ATOM     30  C   UNL     1      -0.232  -2.424  14.756  0.00  0.00    +0.015 C 
ENDBRANCH  24  27
ENDBRANCH  18  21
ENDBRANCH  15  17
ENDBRANCH   4  15
BRANCH   1  31
ATOM     31  S   UNL     1       1.770  -3.127   3.002  0.00  0.00    -0.081 S 
BRANCH  31  32
ATOM     32  C   UNL     1       0.054  -2.845   2.489  0.00  0.00    +0.112 C 
BRANCH  32  38
ATOM     33  C   UNL     1      -0.018   1.503   0.010  0.00  0.00    +0.044 C 
ATOM     34  C   UNL     1       0.002  -0.004   0.002  0.00  0.00    -0.050 A 
ATOM     35  C   UNL     1       0.006  -0.689  -1.199  0.00  0.00    +0.003 A 
ATOM     36  C   UNL     1       0.025  -2.071  -1.207  0.00  0.00    +0.001 A 
ATOM     37  C   UNL     1       0.040  -2.768  -0.013  0.00  0.00    +0.004 A 
ATOM     38  C   UNL     1       0.037  -2.084   1.188  0.00  0.00    -0.037 A 
ATOM     39  C   UNL     1       0.023  -0.702   1.195  0.00  0.00    +0.007 A 
ENDBRANCH  32  38
ENDBRANCH  31  32
ENDBRANCH   1  31
TORSDOF 9
