REMARK  Name = ZINC23027332
REMARK  3 active torsions:
REMARK  status: ('A' for Active; 'I' for Inactive)
REMARK    1  A    between atoms: C_1  and  C_2
REMARK    2  A    between atoms: C_7  and  C_8
REMARK    3  A    between atoms: N_10  and  C_11
REMARK                            x       y       z     vdW  Elec       q    Type
REMARK                         _______ _______ _______ _____ _____    ______ ____
ROOT
ATOM      1  C   UNL     1      -2.112   5.752  -0.958  0.00  0.00    +0.261 C 
ATOM      2  O   UNL     1      -2.639   5.141  -1.869  0.00  0.00    -0.269 OA
ATOM      3  N   UNL     1      -1.510   5.081   0.044  0.00  0.00    -0.305 N 
ATOM      4  H   UNL     1      -1.033   5.633   0.867  0.00  0.00    +0.150 HD
ENDROOT
BRANCH   1  11
ATOM      5  C   UNL     1      -3.419   7.559  -3.147  0.00  0.00    +0.047 C 
ATOM      6  C   UNL     1      -2.702   8.017  -1.903  0.00  0.00    -0.010 A 
ATOM      7  C   UNL     1      -2.492   9.340  -1.498  0.00  0.00    +0.042 A 
ATOM      8  C   UNL     1      -1.780   9.308  -0.298  0.00  0.00    +0.027 A 
ATOM      9  N   UNL     1      -1.572   8.030   0.020  0.00  0.00    -0.354 N 
ATOM     10  H   UNL     1      -1.026   7.775   0.940  0.00  0.00    +0.166 HD
ATOM     11  C   UNL     1      -2.132   7.220  -0.950  0.00  0.00    +0.106 A 
ATOM     12  C   UNL     1      -1.360  10.555   0.438  0.00  0.00    +0.054 C 
ATOM     13  C   UNL     1      -1.363  11.739  -0.533  0.00  0.00    +0.014 C 
ATOM     14  C   UNL     1      -2.711  11.845  -1.254  0.00  0.00    +0.080 C 
ATOM     15  C   UNL     1      -2.888  10.610  -2.126  0.00  0.00    +0.165 C 
ATOM     16  O   UNL     1      -3.324  10.669  -3.256  0.00  0.00    -0.292 OA
ENDBRANCH   1  11
BRANCH   3  17
ATOM     17  C   UNL     1      -1.490   3.616   0.036  0.00  0.00    +0.036 C 
ATOM     18  C   UNL     1      -0.773   3.123  -1.223  0.00  0.00    +0.029 C 
ATOM     19  C   UNL     1      -0.753   1.593  -1.232  0.00  0.00    -0.008 C 
ATOM     20  C   UNL     1      -0.013   1.086   0.008  0.00  0.00    +0.007 C 
ATOM     21  C   UNL     1      -0.729   1.579   1.267  0.00  0.00    -0.008 C 
ATOM     22  C   UNL     1      -0.750   3.109   1.275  0.00  0.00    +0.029 C 
ATOM     23  C   UNL     1      -2.164   1.050   1.278  0.00  0.00    +0.007 C 
ATOM     24  C   UNL     1      -2.904   1.556   0.038  0.00  0.00    -0.008 C 
ATOM     25  C   UNL     1      -2.188   1.063  -1.221  0.00  0.00    +0.007 C 
ATOM     26  C   UNL     1      -2.925   3.086   0.047  0.00  0.00    +0.029 C 
ENDBRANCH   3  17
TORSDOF 2
