REMARK  Name = ZINC45798815
REMARK  10 active torsions:
REMARK  status: ('A' for Active; 'I' for Inactive)
REMARK    1  A    between atoms: C_1  and  C_2
REMARK    2  A    between atoms: C_2  and  C_3
REMARK    3  A    between atoms: C_2  and  C_4
REMARK    4  A    between atoms: C_4  and  C_5
REMARK    5  A    between atoms: C_7  and  C_10
REMARK    6  A    between atoms: C_10  and  O_11
REMARK    7  A    between atoms: O_11  and  C_12
REMARK    8  A    between atoms: C_12  and  C_14
REMARK    9  A    between atoms: C_19  and  S_20
REMARK   10  A    between atoms: S_20  and  C_21
REMARK                            x       y       z     vdW  Elec       q    Type
REMARK                         _______ _______ _______ _____ _____    ______ ____
ROOT
ATOM      1  C   UNL     1       0.063  -6.374  -3.380  0.00  0.00    +0.342 C 
ATOM      2  O   UNL     1      -0.910  -6.921  -3.860  0.00  0.00    -0.245 OA
ENDROOT
BRANCH   1   3
ATOM      3  C   UNL     1       1.416  -6.765  -3.811  0.00  0.00    +0.091 A 
ATOM      4  C   UNL     1       2.546  -6.146  -3.261  0.00  0.00    +0.019 A 
ATOM      5  C   UNL     1       3.794  -6.550  -3.700  0.00  0.00    +0.021 A 
ATOM      6  C   UNL     1       3.892  -7.544  -4.658  0.00  0.00    +0.112 A 
ATOM      7  N   UNL     1       2.817  -8.114  -5.164  0.00  0.00    -0.248 NA
ATOM      8  C   UNL     1       1.597  -7.771  -4.777  0.00  0.00    +0.116 A 
BRANCH   8   9
ATOM      9  S   UNL     1       0.195  -8.572  -5.481  0.00  0.00    -0.069 S 
BRANCH   9  10
ATOM     10  C   UNL     1       0.881  -9.620  -6.721  0.00  0.00    +0.014 A 
ATOM     11  C   UNL     1       1.155 -10.952  -6.433  0.00  0.00    +0.015 A 
ATOM     12  C   UNL     1       1.692 -11.770  -7.407  0.00  0.00    +0.001 A 
ATOM     13  C   UNL     1       1.959 -11.266  -8.666  0.00  0.00    +0.000 A 
ATOM     14  C   UNL     1       1.688  -9.941  -8.956  0.00  0.00    +0.001 A 
ATOM     15  C   UNL     1       1.145  -9.118  -7.989  0.00  0.00    +0.015 A 
ENDBRANCH   9  10
ENDBRANCH   8   9
ENDBRANCH   1   3
BRANCH   1  16
ATOM     16  O   UNL     1      -0.097  -5.408  -2.453  0.00  0.00    -0.451 OA
BRANCH  16  17
ATOM     17  C   UNL     1      -1.437  -5.080  -2.082  0.00  0.00    +0.331 C 
BRANCH  17  20
ATOM     18  C   UNL     1      -1.413  -2.025  -0.130  0.00  0.00    +0.172 A 
ATOM     19  N   UNL     1      -1.440  -2.706  -1.281  0.00  0.00    -0.193 NA
ATOM     20  C   UNL     1      -1.417  -3.988  -1.043  0.00  0.00    +0.265 A 
ATOM     21  O   UNL     1      -1.374  -4.168   0.283  0.00  0.00    -0.334 OA
ATOM     22  N   UNL     1      -1.366  -2.871   0.859  0.00  0.00    -0.061 NA
BRANCH  18  23
ATOM     23  C   UNL     1      -1.427  -0.524   0.001  0.00  0.00    +0.082 C 
BRANCH  23  25
ATOM     24  C   UNL     1      -0.007   1.532  -0.001  0.00  0.00    +0.007 C 
ATOM     25  C   UNL     1       0.010   0.002  -0.007  0.00  0.00    -0.010 C 
ATOM     26  C   UNL     1       0.746  -0.505   1.234  0.00  0.00    +0.007 C 
ENDBRANCH  23  25
ENDBRANCH  18  23
ENDBRANCH  17  20
ENDBRANCH  16  17
ENDBRANCH   1  16
TORSDOF 8
