REMARK  Name = ZINC26938076
REMARK  9 active torsions:
REMARK  status: ('A' for Active; 'I' for Inactive)
REMARK    1  A    between atoms: C_1  and  C_2
REMARK    2  A    between atoms: C_2  and  C_3
REMARK    3  A    between atoms: C_3  and  C_5
REMARK    4  A    between atoms: C_3  and  C_6
REMARK    5  A    between atoms: C_6  and  C_8
REMARK    6  A    between atoms: C_6  and  N_24
REMARK    7  A    between atoms: N_10  and  N_11
REMARK    8  A    between atoms: C_12  and  C_14
REMARK    9  A    between atoms: N_16  and  C_23
REMARK                            x       y       z     vdW  Elec       q    Type
REMARK                         _______ _______ _______ _____ _____    ______ ____
ROOT
ATOM      1  C   UNL     1      -1.112   1.990  -0.132  0.00  0.00    +0.250 C 
ATOM      2  O   UNL     1      -2.046   1.218  -0.099  0.00  0.00    -0.272 OA
ATOM      3  N   UNL     1       0.151   1.519  -0.173  0.00  0.00    -0.233 N 
ATOM      4  H   UNL     1       0.998   2.220  -0.202  0.00  0.00    +0.173 HD
ENDROOT
BRANCH   3   5
ATOM      5  N   UNL     1       0.383   0.138  -0.178  0.00  0.00    -0.230 N 
ATOM      6  C   UNL     1       1.645  -0.333  -0.225  0.00  0.00    +0.262 C 
ATOM      7  O   UNL     1       2.582   0.442  -0.262  0.00  0.00    -0.269 OA
ATOM      8  H   UNL     1      -0.465  -0.563  -0.144  0.00  0.00    +0.173 HD
BRANCH   6   9
ATOM      9  C   UNL     1       1.889  -1.782  -0.230  0.00  0.00    +0.063 A 
ATOM     10  C   UNL     1       0.948  -2.768  -0.192  0.00  0.00    +0.099 A 
ATOM     11  N   UNL     1       1.553  -3.980  -0.212  0.00  0.00    -0.349 N 
ATOM     12  C   UNL     1       2.924  -3.833  -0.265  0.00  0.00    +0.050 A 
ATOM     13  C   UNL     1       3.199  -2.456  -0.284  0.00  0.00    +0.012 A 
ATOM     14  C   UNL     1       4.516  -2.008  -0.330  0.00  0.00    +0.011 A 
ATOM     15  C   UNL     1       5.547  -2.922  -0.366  0.00  0.00    +0.001 A 
ATOM     16  C   UNL     1       5.276  -4.283  -0.353  0.00  0.00    +0.002 A 
ATOM     17  C   UNL     1       3.977  -4.740  -0.303  0.00  0.00    +0.026 A 
ATOM     18  C   UNL     1       0.851  -5.265  -0.182  0.00  0.00    +0.149 C 
ENDBRANCH   6   9
ENDBRANCH   3   5
BRANCH   1  19
ATOM     19  C   UNL     1      -1.362   3.476  -0.126  0.00  0.00    +0.165 C 
BRANCH  19  20
ATOM     20  N   UNL     1      -2.737   3.742  -0.554  0.00  0.00    -0.288 N 
ATOM     21  C   UNL     1      -3.019   3.895  -1.863  0.00  0.00    +0.298 C 
ATOM     22  O   UNL     1      -2.149   3.726  -2.695  0.00  0.00    -0.253 OA
ATOM     23  N   UNL     1      -4.264   4.236  -2.249  0.00  0.00    -0.313 N 
ATOM     24  H   UNL     1      -3.541   3.816   0.194  0.00  0.00    +0.151 HD
ATOM     25  H   UNL     1      -4.494   4.361  -3.318  0.00  0.00    +0.146 HD
ATOM     26  H   UNL     1      -5.051   4.389  -1.496  0.00  0.00    +0.146 HD
ENDBRANCH  19  20
BRANCH  19  27
ATOM     27  C   UNL     1      -1.152   4.023   1.287  0.00  0.00    +0.015 C 
ATOM     28  C   UNL     1      -2.198   3.420   2.228  0.00  0.00    +0.010 C 
BRANCH  27  30
ATOM     29  C   UNL     1      -0.967   6.105   2.657  0.00  0.00    +0.004 C 
ATOM     30  C   UNL     1      -1.299   5.546   1.272  0.00  0.00    +0.002 C 
ENDBRANCH  27  30
ENDBRANCH  19  27
ENDBRANCH   1  19
TORSDOF 6
