REMARK  Name = ZINC33936817
REMARK  15 active torsions:
REMARK  status: ('A' for Active; 'I' for Inactive)
REMARK    1  A    between atoms: C_1  and  C_2
REMARK    2  A    between atoms: C_2  and  O_3
REMARK    3  A    between atoms: O_3  and  C_4
REMARK    4  A    between atoms: C_7  and  C_10
REMARK    5  A    between atoms: C_10  and  N_11
REMARK    6  A    between atoms: N_11  and  C_12
REMARK    7  A    between atoms: N_11  and  C_19
REMARK    8  A    between atoms: C_12  and  C_13
REMARK    9  A    between atoms: C_19  and  C_21
REMARK   10  A    between atoms: C_19  and  C_34
REMARK   11  A    between atoms: C_26  and  C_33
REMARK   12  A    between atoms: N_38  and  C_39
REMARK   13  A    between atoms: C_39  and  C_40
REMARK   14  A    between atoms: C_39  and  C_41
REMARK   15  A    between atoms: C_39  and  C_42
REMARK                            x       y       z     vdW  Elec       q    Type
REMARK                         _______ _______ _______ _____ _____    ______ ____
ROOT
ATOM      1  C   UNL     1      -2.788  -7.952   1.717  0.00  0.00    +0.163 C 
ENDROOT
BRANCH   1   2
ATOM      2  C   UNL     1      -3.407  -7.928   3.090  0.00  0.00    +0.042 A 
ATOM      3  C   UNL     1      -3.236  -8.982   3.927  0.00  0.00    +0.021 A 
ATOM      4  C   UNL     1      -3.850  -8.928   5.255  0.00  0.00    -0.001 A 
ATOM      5  C   UNL     1      -3.708  -9.983   6.161  0.00  0.00    +0.010 A 
ATOM      6  C   UNL     1      -4.293  -9.902   7.393  0.00  0.00    +0.004 A 
ATOM      7  C   UNL     1      -5.029  -8.781   7.753  0.00  0.00    -0.048 A 
ATOM      8  C   UNL     1      -5.183  -7.729   6.875  0.00  0.00    +0.029 A 
ATOM      9  C   UNL     1      -4.595  -7.789   5.616  0.00  0.00    +0.049 A 
ATOM     10  N   UNL     1      -4.732  -6.752   4.719  0.00  0.00    -0.322 N 
ATOM     11  H   UNL     1      -5.245  -5.968   4.969  0.00  0.00    +0.169 HD
ATOM     12  C   UNL     1      -4.159  -6.808   3.503  0.00  0.00    +0.254 A 
ATOM     13  O   UNL     1      -4.297  -5.870   2.738  0.00  0.00    -0.268 OA
ATOM     14  C   UNL     1      -5.666  -8.713   9.117  0.00  0.00    +0.044 C 
ENDBRANCH   1   2
BRANCH   1  15
ATOM     15  C   UNL     1      -3.877  -7.960   0.675  0.00  0.00    +0.174 A 
ATOM     16  N   UNL     1      -4.678  -6.968   0.373  0.00  0.00    -0.111 NA
ATOM     17  N   UNL     1      -5.467  -7.364  -0.565  0.00  0.00    -0.023 NA
ATOM     18  N   UNL     1      -5.189  -8.584  -0.870  0.00  0.00    -0.043 NA
ATOM     19  N   UNL     1      -4.210  -8.985  -0.131  0.00  0.00    -0.222 N 
BRANCH  19  20
ATOM     20  C   UNL     1      -3.583 -10.308  -0.161  0.00  0.00    +0.059 C 
ATOM     21  C   UNL     1      -3.667 -10.944   1.228  0.00  0.00    +0.036 C 
ATOM     22  C   UNL     1      -4.310 -11.195  -1.174  0.00  0.00    +0.036 C 
ATOM     23  C   UNL     1      -2.115 -10.167  -0.570  0.00  0.00    +0.036 C 
ENDBRANCH  19  20
ENDBRANCH   1  15
BRANCH   1  24
ATOM     24  N   UNL     1      -1.948  -6.760   1.538  0.00  0.00    -0.282 NA
BRANCH  24  25
ATOM     25  C   UNL     1      -1.314  -6.757   0.213  0.00  0.00    +0.120 C 
BRANCH  25  29
ATOM     26  C   UNL     1       0.527  -2.962  -0.476  0.00  0.00    +0.121 A 
ATOM     27  C   UNL     1       1.247  -3.986   0.122  0.00  0.00    +0.046 A 
ATOM     28  C   UNL     1       0.650  -5.211   0.345  0.00  0.00    +0.008 A 
ATOM     29  C   UNL     1      -0.665  -5.419  -0.030  0.00  0.00    -0.033 A 
ATOM     30  C   UNL     1      -1.385  -4.401  -0.627  0.00  0.00    +0.008 A 
ATOM     31  C   UNL     1      -0.794  -3.171  -0.846  0.00  0.00    +0.046 A 
BRANCH  26  32
ATOM     32  O   UNL     1       1.112  -1.756  -0.696  0.00  0.00    -0.492 OA
BRANCH  32  34
ATOM     33  C   UNL     1       2.957  -0.197  -0.614  0.00  0.00    +0.048 C 
ATOM     34  C   UNL     1       2.475  -1.612  -0.289  0.00  0.00    +0.225 C 
ENDBRANCH  32  34
ENDBRANCH  26  32
ENDBRANCH  25  29
ENDBRANCH  24  25
BRANCH  24  35
ATOM     35  C   UNL     1      -0.941  -6.661   2.604  0.00  0.00    +0.117 C 
BRANCH  35  36
ATOM     36  C   UNL     1       0.104  -7.764   2.422  0.00  0.00    +0.132 C 
ATOM     37  C   UNL     1       1.192  -7.660   3.520  0.00  0.00    +0.035 C 
ATOM     38  C   UNL     1       1.707  -9.124   3.565  0.00  0.00    +0.031 C 
ATOM     39  C   UNL     1       0.425  -9.932   3.270  0.00  0.00    +0.160 C 
ATOM     40  O   UNL     1      -0.497  -9.056   2.608  0.00  0.00    -0.375 OA
ENDBRANCH  35  36
ENDBRANCH  24  35
ENDBRANCH   1  24
TORSDOF 10
