REMARK  Name = ZINC19535853
REMARK  8 active torsions:
REMARK  status: ('A' for Active; 'I' for Inactive)
REMARK    1  A    between atoms: C_1  and  C_2
REMARK    2  A    between atoms: C_3  and  C_24
REMARK    3  A    between atoms: C_4  and  C_14
REMARK    4  A    between atoms: C_16  and  O_22
REMARK    5  A    between atoms: C_17  and  O_21
REMARK    6  A    between atoms: O_22  and  C_23
REMARK    7  A    between atoms: C_24  and  O_26
REMARK    8  A    between atoms: O_26  and  C_27
REMARK                            x       y       z     vdW  Elec       q    Type
REMARK                         _______ _______ _______ _____ _____    ______ ____
ROOT
ATOM      1  C   UNL     1       4.754   4.147   0.819  0.00  0.00    +0.061 C 
ATOM      2  C   UNL     1       3.565   3.322   0.398  0.00  0.00    +0.016 C 
ATOM      3  C   UNL     1       3.646   1.981   0.411  0.00  0.00    +0.065 C 
ATOM      4  C   UNL     1       2.485   1.127  -0.009  0.00  0.00    +0.092 C 
ATOM      5  C   UNL     1       1.201   1.918   0.001  0.00  0.00    +0.024 C 
ATOM      6  C   UNL     1       1.222   3.267  -0.001  0.00  0.00    +0.015 C 
ATOM      7  N   UNL     1       2.413   3.944   0.006  0.00  0.00    -0.321 N 
ATOM      8  C   UNL     1      -0.059   4.064  -0.015  0.00  0.00    +0.051 C 
ATOM      9  C   UNL     1      -1.155   3.287   0.717  0.00  0.00    +0.014 C 
ATOM     10  C   UNL     1      -1.335   1.931   0.019  0.00  0.00    +0.080 C 
ATOM     11  C   UNL     1      -0.014   1.211   0.009  0.00  0.00    +0.162 C 
ATOM     12  O   UNL     1       0.002  -0.004   0.002  0.00  0.00    -0.292 OA
ATOM     13  H   UNL     1       2.435   4.997  -0.309  0.00  0.00    +0.152 HD
ENDROOT
BRANCH   4  14
ATOM     14  C   UNL     1       2.734   0.604  -1.400  0.00  0.00    -0.030 A 
ATOM     15  C   UNL     1       2.824  -0.758  -1.619  0.00  0.00    +0.054 A 
ATOM     16  C   UNL     1       3.053  -1.242  -2.897  0.00  0.00    +0.163 A 
ATOM     17  C   UNL     1       3.190  -0.353  -3.959  0.00  0.00    +0.173 A 
ATOM     18  C   UNL     1       3.098   1.011  -3.734  0.00  0.00    +0.063 A 
ATOM     19  C   UNL     1       2.865   1.487  -2.455  0.00  0.00    +0.023 A 
ATOM     20 BR   UNL     1       3.284   2.223  -5.174  0.00  0.00    -0.046 Br
BRANCH  17  21
ATOM     21  O   UNL     1       3.415  -0.823  -5.216  0.00  0.00    -0.503 OA
ATOM     22  H   UNL     1       3.523  -0.119  -6.055  0.00  0.00    +0.292 HD
ENDBRANCH  17  21
BRANCH  16  23
ATOM     23  O   UNL     1       3.143  -2.581  -3.113  0.00  0.00    -0.491 OA
ATOM     24  C   UNL     1       2.992  -3.433  -1.976  0.00  0.00    +0.277 C 
ENDBRANCH  16  23
ENDBRANCH   4  14
BRANCH   3  25
ATOM     25  C   UNL     1       4.847   1.362   0.828  0.00  0.00    +0.338 C 
ATOM     26  O   UNL     1       5.795   2.043   1.171  0.00  0.00    -0.245 OA
BRANCH  25  27
ATOM     27  O   UNL     1       4.942   0.016   0.846  0.00  0.00    -0.458 OA
BRANCH  27  28
ATOM     28  C   UNL     1       6.185  -0.542   1.278  0.00  0.00    +0.177 C 
ATOM     29  C   UNL     1       7.100  -0.797   0.063  0.00  0.00    +0.044 C 
ATOM     30  C   UNL     1       7.831  -2.119   0.409  0.00  0.00    +0.004 C 
ATOM     31  C   UNL     1       6.726  -2.946   1.111  0.00  0.00    +0.004 C 
ATOM     32  C   UNL     1       5.947  -1.908   1.944  0.00  0.00    +0.044 C 
ENDBRANCH  27  28
ENDBRANCH  25  27
ENDBRANCH   3  25
TORSDOF 6
