REMARK  Name = ZINC15722843
REMARK  9 active torsions:
REMARK  status: ('A' for Active; 'I' for Inactive)
REMARK    1  A    between atoms: C_1  and  C_2
REMARK    2  A    between atoms: C_2  and  O_3
REMARK    3  A    between atoms: O_3  and  C_4
REMARK    4  A    between atoms: C_7  and  N_10
REMARK    5  A    between atoms: N_10  and  S_11
REMARK    6  A    between atoms: S_11  and  C_14
REMARK    7  A    between atoms: C_17  and  N_20
REMARK    8  A    between atoms: N_20  and  C_21
REMARK    9  A    between atoms: N_28  and  C_31
REMARK                            x       y       z     vdW  Elec       q    Type
REMARK                         _______ _______ _______ _____ _____    ______ ____
ROOT
ATOM      1  C   UNL     1      -4.812  -6.132   0.532  0.00  0.00    +0.109 A 
ATOM      2  C   UNL     1      -5.299  -4.898   0.922  0.00  0.00    +0.030 A 
ATOM      3  C   UNL     1      -6.497  -4.435   0.416  0.00  0.00    +0.025 A 
ATOM      4  C   UNL     1      -7.214  -5.210  -0.488  0.00  0.00    +0.031 A 
ATOM      5  C   UNL     1      -6.722  -6.449  -0.878  0.00  0.00    +0.025 A 
ATOM      6  C   UNL     1      -5.520  -6.904  -0.372  0.00  0.00    +0.030 A 
ENDROOT
BRANCH   1   7
ATOM      7  S   UNL     1      -3.283  -6.720   1.181  0.00  0.00    +0.072 S 
ATOM      8  O   UNL     1      -3.262  -8.124   0.961  0.00  0.00    -0.150 OA
ATOM      9  O   UNL     1      -3.145  -6.149   2.474  0.00  0.00    -0.150 OA
BRANCH   7  10
ATOM     10  N   UNL     1      -2.076  -6.077   0.248  0.00  0.00    -0.216 N 
ATOM     11  H   UNL     1      -1.416  -5.487   0.646  0.00  0.00    +0.174 HD
BRANCH  10  15
ATOM     12  C   UNL     1      -1.869  -6.989  -3.814  0.00  0.00    +0.121 A 
ATOM     13  C   UNL     1      -1.729  -5.675  -3.391  0.00  0.00    +0.047 A 
ATOM     14  C   UNL     1      -1.798  -5.372  -2.045  0.00  0.00    +0.028 A 
ATOM     15  C   UNL     1      -2.007  -6.383  -1.116  0.00  0.00    +0.048 A 
ATOM     16  C   UNL     1      -2.147  -7.697  -1.541  0.00  0.00    +0.028 A 
ATOM     17  C   UNL     1      -2.084  -7.998  -2.887  0.00  0.00    +0.047 A 
BRANCH  12  18
ATOM     18  O   UNL     1      -1.802  -7.286  -5.140  0.00  0.00    -0.492 OA
BRANCH  18  20
ATOM     19  C   UNL     1      -1.533  -6.723  -7.475  0.00  0.00    +0.048 C 
ATOM     20  C   UNL     1      -1.578  -6.198  -6.038  0.00  0.00    +0.225 C 
ENDBRANCH  18  20
ENDBRANCH  12  18
ENDBRANCH  10  15
ENDBRANCH   7  10
ENDBRANCH   1   7
BRANCH   4  21
ATOM     21  N   UNL     1      -8.427  -4.744  -1.002  0.00  0.00    -0.320 N 
ATOM     22  H   UNL     1      -8.769  -3.878  -0.729  0.00  0.00    +0.152 HD
BRANCH  21  23
ATOM     23  C   UNL     1      -9.121  -5.497  -1.879  0.00  0.00    +0.090 C 
ATOM     24  C   UNL     1     -10.372  -5.088  -2.304  0.00  0.00    +0.113 C 
ATOM     25  C   UNL     1     -11.221  -5.953  -3.143  0.00  0.00    +0.258 C 
ATOM     26  O   UNL     1     -10.841  -7.057  -3.486  0.00  0.00    -0.270 OA
ATOM     27  N   UNL     1     -12.429  -5.488  -3.521  0.00  0.00    -0.235 N 
ATOM     28  C   UNL     1     -12.860  -4.274  -3.150  0.00  0.00    +0.320 C 
ATOM     29  O   UNL     1     -13.959  -3.913  -3.523  0.00  0.00    -0.251 OA
ATOM     30  N   UNL     1     -12.142  -3.436  -2.389  0.00  0.00    -0.190 N 
ATOM     31  C   UNL     1     -10.917  -3.770  -1.933  0.00  0.00    +0.265 C 
ATOM     32  O   UNL     1     -10.278  -3.003  -1.238  0.00  0.00    -0.269 OA
ATOM     33  H   UNL     1     -13.000  -6.045  -4.073  0.00  0.00    +0.159 HD
BRANCH  30  34
ATOM     34  C   UNL     1     -12.679  -2.185  -2.054  0.00  0.00    +0.046 A 
ATOM     35  C   UNL     1     -12.099  -1.024  -2.548  0.00  0.00    +0.024 A 
ATOM     36  C   UNL     1     -12.631   0.207  -2.216  0.00  0.00    +0.002 A 
ATOM     37  C   UNL     1     -13.739   0.284  -1.393  0.00  0.00    +0.000 A 
ATOM     38  C   UNL     1     -14.319  -0.871  -0.900  0.00  0.00    +0.002 A 
ATOM     39  C   UNL     1     -13.795  -2.105  -1.232  0.00  0.00    +0.024 A 
ENDBRANCH  30  34
ENDBRANCH  21  23
ENDBRANCH   4  21
TORSDOF 8
