REMARK  Name = ZINC07343682
REMARK  3 active torsions:
REMARK  status: ('A' for Active; 'I' for Inactive)
REMARK    1  A    between atoms: C_4  and  C_7
REMARK    2  A    between atoms: C_7  and  C_8
REMARK    3  A    between atoms: C_7  and  C_21
REMARK                            x       y       z     vdW  Elec       q    Type
REMARK                         _______ _______ _______ _____ _____    ______ ____
ROOT
ATOM      1  C   UNL     1       3.711  -0.707  -0.038  0.00  0.00    +0.097 C 
ENDROOT
BRANCH   1   2
ATOM      2  C   UNL     1       3.850  -1.488   1.244  0.00  0.00    +0.076 A 
ATOM      3  C   UNL     1       3.925  -0.810   2.474  0.00  0.00    +0.197 A 
ATOM      4  C   UNL     1       4.061  -1.617   3.701  0.00  0.00    +0.045 A 
ATOM      5  C   UNL     1       4.140  -1.018   4.958  0.00  0.00    +0.014 A 
ATOM      6  C   UNL     1       4.266  -1.807   6.080  0.00  0.00    +0.001 A 
ATOM      7  C   UNL     1       4.313  -3.189   5.965  0.00  0.00    +0.002 A 
ATOM      8  C   UNL     1       4.235  -3.795   4.730  0.00  0.00    +0.026 A 
ATOM      9  C   UNL     1       4.108  -3.016   3.584  0.00  0.00    +0.053 A 
ATOM     10  N   UNL     1       4.029  -3.598   2.336  0.00  0.00    -0.322 N 
ATOM     11  H   UNL     1       4.062  -4.564   2.260  0.00  0.00    +0.169 HD
ATOM     12  C   UNL     1       3.897  -2.848   1.210  0.00  0.00    +0.257 A 
ATOM     13  O   UNL     1       3.818  -3.473   0.015  0.00  0.00    -0.267 OA
ATOM     14  O   UNL     1       3.880   0.409   2.525  0.00  0.00    -0.287 OA
ENDBRANCH   1   2
BRANCH   1  15
ATOM     15  C   UNL     1       4.471  -1.405  -1.136  0.00  0.00    +0.076 A 
ATOM     16  C   UNL     1       3.792  -1.857  -2.282  0.00  0.00    +0.197 A 
ATOM     17  C   UNL     1       4.579  -2.535  -3.329  0.00  0.00    +0.045 A 
ATOM     18  C   UNL     1       3.978  -3.010  -4.494  0.00  0.00    +0.014 A 
ATOM     19  C   UNL     1       4.747  -3.637  -5.449  0.00  0.00    +0.001 A 
ATOM     20  C   UNL     1       6.112  -3.797  -5.257  0.00  0.00    +0.002 A 
ATOM     21  C   UNL     1       6.719  -3.333  -4.111  0.00  0.00    +0.026 A 
ATOM     22  C   UNL     1       5.960  -2.696  -3.134  0.00  0.00    +0.053 A 
ATOM     23  N   UNL     1       6.544  -2.222  -1.978  0.00  0.00    -0.322 N 
ATOM     24  H   UNL     1       7.499  -2.336  -1.848  0.00  0.00    +0.169 HD
ATOM     25  C   UNL     1       5.814  -1.593  -1.020  0.00  0.00    +0.257 A 
ATOM     26  O   UNL     1       6.442  -1.145   0.089  0.00  0.00    -0.267 OA
ATOM     27  O   UNL     1       2.589  -1.693  -2.406  0.00  0.00    -0.287 OA
ENDBRANCH   1  15
BRANCH   1  31
ATOM     28  C   UNL     1      -0.416  -0.447  -1.107  0.00  0.00    +0.000 A 
ATOM     29  C   UNL     1       0.429   0.620  -1.349  0.00  0.00    +0.000 A 
ATOM     30  C   UNL     1       1.765   0.536  -1.003  0.00  0.00    +0.004 A 
ATOM     31  C   UNL     1       2.255  -0.615  -0.414  0.00  0.00    -0.035 A 
ATOM     32  C   UNL     1       1.409  -1.682  -0.172  0.00  0.00    +0.004 A 
ATOM     33  C   UNL     1       0.074  -1.598  -0.519  0.00  0.00    +0.000 A 
ENDBRANCH   1  31
TORSDOF 3
