REMARK  Name = ZINC67535832
REMARK  10 active torsions:
REMARK  status: ('A' for Active; 'I' for Inactive)
REMARK    1  A    between atoms: C_1  and  C_2
REMARK    2  A    between atoms: C_2  and  O_3
REMARK    3  A    between atoms: O_3  and  C_4
REMARK    4  A    between atoms: N_6  and  C_7
REMARK    5  A    between atoms: N_16  and  C_17
REMARK    6  A    between atoms: C_17  and  C_19
REMARK    7  A    between atoms: C_17  and  C_20
REMARK    8  A    between atoms: C_21  and  C_27
REMARK    9  A    between atoms: N_23  and  C_26
REMARK   10  A    between atoms: C_24  and  C_25
REMARK                            x       y       z     vdW  Elec       q    Type
REMARK                         _______ _______ _______ _____ _____    ______ ____
ROOT
ATOM      1  C   UNL     1       1.006  -3.729  -2.184  0.00  0.00    +0.094 C 
ATOM      2  C   UNL     1       0.927  -4.010  -3.687  0.00  0.00    +0.025 C 
ATOM      3  C   UNL     1       1.026  -5.518  -3.932  0.00  0.00    +0.021 C 
ATOM      4  C   UNL     1       2.375  -6.027  -3.414  0.00  0.00    +0.109 C 
ATOM      5  N   UNL     1       2.521  -5.634  -2.006  0.00  0.00    -0.284 N 
ATOM      6  C   UNL     1       2.354  -4.219  -1.647  0.00  0.00    +0.131 C 
ATOM      7  C   UNL     1       2.803  -6.553  -1.062  0.00  0.00    +0.303 C 
ATOM      8  O   UNL     1       3.013  -6.204   0.083  0.00  0.00    -0.253 OA
ATOM      9  N   UNL     1       2.851  -7.860  -1.387  0.00  0.00    -0.293 N 
ATOM     10  H   UNL     1       2.756  -8.133  -2.313  0.00  0.00    +0.151 HD
ENDROOT
BRANCH   1  13
ATOM     11  C   UNL     1       0.422  -1.838  -0.764  0.00  0.00    +0.401 C 
ATOM     12  O   UNL     1       0.115  -2.626   0.109  0.00  0.00    -0.226 OA
ATOM     13  N   UNL     1       0.879  -2.289  -1.949  0.00  0.00    -0.277 N 
ATOM     14  H   UNL     1       1.123  -1.660  -2.646  0.00  0.00    +0.152 HD
BRANCH  11  15
ATOM     15  O   UNL     1       0.305  -0.514  -0.547  0.00  0.00    -0.451 OA
BRANCH  15  17
ATOM     16  C   UNL     1      -0.248   1.421   0.791  0.00  0.00    +0.048 C 
ATOM     17  C   UNL     1      -0.185  -0.107   0.732  0.00  0.00    +0.230 C 
ENDBRANCH  15  17
ENDBRANCH  11  15
ENDBRANCH   1  13
BRANCH   9  18
ATOM     18  C   UNL     1       3.045  -8.868  -0.342  0.00  0.00    +0.105 C 
ATOM     19  C   UNL     1       4.519  -8.899   0.068  0.00  0.00    +0.033 C 
BRANCH  18  20
ATOM     20  C   UNL     1       2.642 -10.222  -0.869  0.00  0.00    +0.016 A 
ATOM     21  C   UNL     1       3.040 -10.783  -2.086  0.00  0.00    +0.065 A 
ATOM     22  N   UNL     1       2.488 -11.965  -2.192  0.00  0.00    -0.176 NA
ATOM     23  N   UNL     1       1.720 -12.193  -1.042  0.00  0.00    -0.271 N 
ATOM     24  C   UNL     1       1.835 -11.111  -0.244  0.00  0.00    +0.041 A 
ATOM     25  C   UNL     1       1.181 -10.924   1.100  0.00  0.00    +0.065 C 
ATOM     26  C   UNL     1       0.935 -13.396  -0.755  0.00  0.00    +0.172 C 
ATOM     27  C   UNL     1       3.948 -10.138  -3.102  0.00  0.00    +0.068 C 
ENDBRANCH  18  20
ENDBRANCH   9  18
TORSDOF 5
