REMARK  Name = ZINC12191941
REMARK  11 active torsions:
REMARK  status: ('A' for Active; 'I' for Inactive)
REMARK    1  A    between atoms: C_1  and  C_2
REMARK    2  A    between atoms: C_2  and  C_3
REMARK    3  A    between atoms: C_2  and  C_4
REMARK    4  A    between atoms: C_4  and  N_5
REMARK    5  A    between atoms: C_6  and  N_35
REMARK    6  A    between atoms: C_7  and  C_14
REMARK    7  A    between atoms: C_14  and  C_16
REMARK    8  A    between atoms: C_16  and  S_17
REMARK    9  A    between atoms: S_17  and  C_18
REMARK   10  A    between atoms: C_22  and  C_25
REMARK   11  A    between atoms: N_33  and  C_34
REMARK                            x       y       z     vdW  Elec       q    Type
REMARK                         _______ _______ _______ _____ _____    ______ ____
ROOT
ATOM      1  C   UNL     1      -1.329   1.949   0.089  0.00  0.00    +0.157 C 
ENDROOT
BRANCH   1   2
ATOM      2  C   UNL     1      -0.015   1.213   0.041  0.00  0.00    +0.182 C 
ATOM      3  O   UNL     1      -0.001  -0.002   0.017  0.00  0.00    -0.291 OA
BRANCH   2   6
ATOM      4  N   UNL     1       3.583   2.014   0.059  0.00  0.00    -0.281 N 
ATOM      5  C   UNL     1       2.436   1.273   0.091  0.00  0.00    +0.116 A 
ATOM      6  C   UNL     1       1.198   1.934   0.017  0.00  0.00    +0.120 A 
ATOM      7  C   UNL     1       1.206   3.399  -0.080  0.00  0.00    +0.266 A 
ATOM      8  O   UNL     1       0.164   4.024  -0.142  0.00  0.00    -0.267 OA
ATOM      9  N   UNL     1       2.394   4.038  -0.098  0.00  0.00    -0.274 N 
ATOM     10  H   UNL     1       2.417   5.036  -0.164  0.00  0.00    +0.173 HD
ATOM     11  C   UNL     1       3.547   3.352  -0.030  0.00  0.00    +0.331 A 
ATOM     12  O   UNL     1       4.595   3.966  -0.049  0.00  0.00    -0.246 OA
BRANCH   5  13
ATOM     13  N   UNL     1       2.491  -0.083   0.187  0.00  0.00    -0.344 N 
ATOM     14  H   UNL     1       1.678  -0.608   0.122  0.00  0.00    +0.144 HD
ATOM     15  H   UNL     1       3.344  -0.526   0.321  0.00  0.00    +0.144 HD
ENDBRANCH   5  13
BRANCH   4  16
ATOM     16  C   UNL     1       4.879   1.334   0.131  0.00  0.00    +0.131 C 
BRANCH  16  18
ATOM     17  C   UNL     1       6.590   0.374   1.678  0.00  0.00    +0.009 C 
ATOM     18  C   UNL     1       5.300   1.192   1.595  0.00  0.00    +0.003 C 
ATOM     19  C   UNL     1       5.537   2.580   2.194  0.00  0.00    +0.009 C 
ENDBRANCH  16  18
ENDBRANCH   4  16
ENDBRANCH   2   6
ENDBRANCH   1   2
BRANCH   1  20
ATOM     20  S   UNL     1      -2.690   0.756   0.102  0.00  0.00    -0.080 S 
BRANCH  20  21
ATOM     21  C   UNL     1      -4.063   1.859   0.159  0.00  0.00    +0.173 A 
ATOM     22  N   UNL     1      -3.853   3.159   0.179  0.00  0.00    -0.216 NA
ATOM     23  C   UNL     1      -4.868   4.014   0.221  0.00  0.00    +0.117 A 
ATOM     24  C   UNL     1      -6.205   3.581   0.248  0.00  0.00    +0.080 A 
ATOM     25  C   UNL     1      -7.199   4.650   0.293  0.00  0.00    +0.004 A 
ATOM     26  C   UNL     1      -6.773   5.935   0.306  0.00  0.00    +0.056 A 
ATOM     27  S   UNL     1      -4.998   5.783   0.257  0.00  0.00    -0.076 S 
ATOM     28  C   UNL     1      -6.403   2.166   0.226  0.00  0.00    +0.263 A 
ATOM     29  O   UNL     1      -7.530   1.700   0.247  0.00  0.00    -0.267 OA
ATOM     30  N   UNL     1      -5.331   1.355   0.177  0.00  0.00    -0.290 N 
ATOM     31  C   UNL     1      -5.529  -0.097   0.149  0.00  0.00    +0.154 C 
BRANCH  25  32
ATOM     32  C   UNL     1      -8.646   4.334   0.325  0.00  0.00    -0.017 A 
ATOM     33  C   UNL     1      -9.190   3.449  -0.605  0.00  0.00    +0.008 A 
ATOM     34  C   UNL     1     -10.538   3.155  -0.567  0.00  0.00    +0.001 A 
ATOM     35  C   UNL     1     -11.351   3.745   0.384  0.00  0.00    +0.000 A 
ATOM     36  C   UNL     1     -10.818   4.628   1.306  0.00  0.00    +0.001 A 
ATOM     37  C   UNL     1      -9.471   4.926   1.281  0.00  0.00    +0.008 A 
ENDBRANCH  25  32
ENDBRANCH  20  21
ENDBRANCH   1  20
TORSDOF 8
