REMARK  Name = ZINC08608718
REMARK  8 active torsions:
REMARK  status: ('A' for Active; 'I' for Inactive)
REMARK    1  A    between atoms: C_1  and  C_2
REMARK    2  A    between atoms: C_5  and  S_8
REMARK    3  A    between atoms: S_8  and  N_11
REMARK    4  A    between atoms: C_19  and  N_21
REMARK    5  A    between atoms: N_21  and  S_22
REMARK    6  A    between atoms: S_22  and  C_25
REMARK    7  A    between atoms: C_28  and  O_32
REMARK    8  A    between atoms: O_32  and  C_33
REMARK                            x       y       z     vdW  Elec       q    Type
REMARK                         _______ _______ _______ _____ _____    ______ ____
ROOT
ATOM      1  N   UNL     1       1.651  -4.999  -0.034  0.00  0.00    -0.203 N 
ATOM      2  C   UNL     1       2.331  -5.304  -1.301  0.00  0.00    +0.132 C 
ATOM      3  C   UNL     1       3.133  -6.597  -1.103  0.00  0.00    +0.025 C 
ATOM      4  C   UNL     1       4.206  -6.354  -0.042  0.00  0.00    +0.039 C 
ATOM      5  C   UNL     1       3.596  -5.757   1.199  0.00  0.00    -0.023 A 
ATOM      6  C   UNL     1       2.371  -5.107   1.165  0.00  0.00    +0.055 A 
ATOM      7  C   UNL     1       1.838  -4.557   2.325  0.00  0.00    +0.027 A 
ATOM      8  C   UNL     1       2.527  -4.653   3.517  0.00  0.00    +0.028 A 
ATOM      9  C   UNL     1       3.754  -5.301   3.556  0.00  0.00    +0.075 A 
ATOM     10  C   UNL     1       4.283  -5.859   2.397  0.00  0.00    +0.032 A 
ENDROOT
BRANCH   1  11
ATOM     11  S   UNL     1       0.063  -4.530  -0.023  0.00  0.00    +0.075 S 
ATOM     12  O   UNL     1      -0.477  -4.953   1.222  0.00  0.00    -0.150 OA
ATOM     13  O   UNL     1      -0.489  -4.934  -1.269  0.00  0.00    -0.150 OA
BRANCH  11  18
ATOM     14  C   UNL     1      -0.018   1.503   0.025  0.00  0.00    +0.044 C 
ATOM     15  C   UNL     1       0.002  -0.004   0.013  0.00  0.00    -0.050 A 
ATOM     16  C   UNL     1       0.007  -0.686  -1.189  0.00  0.00    +0.005 A 
ATOM     17  C   UNL     1       0.025  -2.068  -1.200  0.00  0.00    +0.029 A 
ATOM     18  C   UNL     1       0.040  -2.768  -0.009  0.00  0.00    +0.109 A 
ATOM     19  C   UNL     1       0.036  -2.087   1.194  0.00  0.00    +0.029 A 
ATOM     20  C   UNL     1       0.022  -0.705   1.205  0.00  0.00    +0.005 A 
ENDBRANCH  11  18
ENDBRANCH   1  11
BRANCH   9  21
ATOM     21  N   UNL     1       4.455  -5.401   4.763  0.00  0.00    -0.098 NA
BRANCH  21  22
ATOM     22  S   UNL     1       3.820  -4.747   6.146  0.00  0.00    +0.092 S 
ATOM     23  O   UNL     1       3.800  -3.339   5.957  0.00  0.00    -0.148 OA
ATOM     24  O   UNL     1       2.648  -5.492   6.447  0.00  0.00    -0.148 OA
BRANCH  22  25
ATOM     25  C   UNL     1       4.966  -5.064   7.446  0.00  0.00    +0.113 A 
ATOM     26  C   UNL     1       4.864  -6.227   8.187  0.00  0.00    +0.032 A 
ATOM     27  C   UNL     1       5.761  -6.479   9.208  0.00  0.00    +0.050 A 
ATOM     28  C   UNL     1       6.765  -5.565   9.490  0.00  0.00    +0.155 A 
ATOM     29  C   UNL     1       6.866  -4.397   8.744  0.00  0.00    +0.167 A 
ATOM     30  C   UNL     1       5.969  -4.153   7.720  0.00  0.00    +0.071 A 
ATOM     31  F   UNL     1       7.843  -3.504   9.016  0.00  0.00    -0.202 F 
BRANCH  28  32
ATOM     32  O   UNL     1       7.648  -5.811  10.494  0.00  0.00    -0.492 OA
ATOM     33  C   UNL     1       7.483  -7.031  11.219  0.00  0.00    +0.277 C 
ENDBRANCH  28  32
ENDBRANCH  22  25
ENDBRANCH  21  22
ENDBRANCH   9  21
TORSDOF 6
