REMARK  Name = ZINC39967104
REMARK  14 active torsions:
REMARK  status: ('A' for Active; 'I' for Inactive)
REMARK    1  A    between atoms: C_1  and  C_2
REMARK    2  A    between atoms: C_5  and  O_9
REMARK    3  A    between atoms: C_6  and  C_8
REMARK    4  A    between atoms: O_9  and  C_10
REMARK    5  A    between atoms: C_10  and  C_12
REMARK    6  A    between atoms: C_10  and  C_13
REMARK    7  A    between atoms: C_16  and  S_19
REMARK    8  A    between atoms: N_17  and  C_18
REMARK    9  A    between atoms: S_19  and  C_20
REMARK   10  A    between atoms: C_20  and  C_21
REMARK   11  A    between atoms: N_23  and  C_24
REMARK   12  A    between atoms: C_25  and  C_33
REMARK   13  A    between atoms: C_26  and  C_32
REMARK   14  A    between atoms: C_27  and  C_29
REMARK                            x       y       z     vdW  Elec       q    Type
REMARK                         _______ _______ _______ _____ _____    ______ ____
ROOT
ATOM      1  S   UNL     1      -3.529  -8.712  -2.088  0.00  0.00    -0.077 S 
ENDROOT
BRANCH   1   5
ATOM      2  C   UNL     1      -0.840  -6.048  -1.143  0.00  0.00    +0.174 A 
ATOM      3  N   UNL     1      -0.697  -6.939  -0.203  0.00  0.00    -0.130 NA
ATOM      4  N   UNL     1      -1.530  -7.903  -0.378  0.00  0.00    -0.122 NA
ATOM      5  C   UNL     1      -2.256  -7.676  -1.447  0.00  0.00    +0.192 A 
ATOM      6  N   UNL     1      -1.842  -6.483  -1.967  0.00  0.00    -0.306 N 
ATOM      7  C   UNL     1      -2.361  -5.810  -3.160  0.00  0.00    +0.153 C 
BRANCH   2   8
ATOM      8  C   UNL     1      -0.052  -4.772  -1.292  0.00  0.00    +0.238 C 
ATOM      9  C   UNL     1       1.346  -5.095  -1.822  0.00  0.00    +0.060 C 
BRANCH   8  10
ATOM     10  O   UNL     1       0.057  -4.129  -0.021  0.00  0.00    -0.481 OA
BRANCH  10  15
ATOM     11  C   UNL     1       0.864   1.445  -0.036  0.00  0.00    +0.044 C 
ATOM     12  C   UNL     1       0.648  -0.046  -0.032  0.00  0.00    -0.050 A 
ATOM     13  C   UNL     1       0.647  -0.747  -1.224  0.00  0.00    +0.007 A 
ATOM     14  C   UNL     1       0.449  -2.114  -1.223  0.00  0.00    +0.046 A 
ATOM     15  C   UNL     1       0.252  -2.784  -0.024  0.00  0.00    +0.124 A 
ATOM     16  C   UNL     1       0.254  -2.079   1.170  0.00  0.00    -0.009 A 
ATOM     17  C   UNL     1       0.458  -0.713   1.164  0.00  0.00    +0.010 A 
ATOM     18  C   UNL     1       0.040  -2.804   2.474  0.00  0.00    +0.047 C 
ENDBRANCH  10  15
ENDBRANCH   8  10
ENDBRANCH   2   8
ENDBRANCH   1   5
BRANCH   1  19
ATOM     19  C   UNL     1      -3.575 -10.113  -0.937  0.00  0.00    +0.173 C 
BRANCH  19  20
ATOM     20  C   UNL     1      -4.637 -11.089  -1.375  0.00  0.00    +0.228 C 
ATOM     21  O   UNL     1      -5.297 -10.861  -2.367  0.00  0.00    -0.275 OA
ATOM     22  N   UNL     1      -4.853 -12.214  -0.666  0.00  0.00    -0.278 N 
ATOM     23  H   UNL     1      -4.325 -12.396   0.127  0.00  0.00    +0.155 HD
BRANCH  22  24
ATOM     24  C   UNL     1      -5.827 -13.109  -1.068  0.00  0.00    +0.090 A 
ATOM     25  C   UNL     1      -6.193 -14.311  -0.463  0.00  0.00    +0.084 A 
ATOM     26  C   UNL     1      -7.208 -15.047  -1.055  0.00  0.00    -0.012 A 
ATOM     27  C   UNL     1      -7.761 -14.516  -2.191  0.00  0.00    +0.080 A 
ATOM     28  S   UNL     1      -6.850 -12.999  -2.395  0.00  0.00    -0.067 S 
ATOM     29  C   UNL     1      -7.678 -16.359  -0.481  0.00  0.00    +0.046 C 
BRANCH  27  30
ATOM     30  C   UNL     1      -8.835 -15.057  -3.025  0.00  0.00    +0.248 C 
ATOM     31  O   UNL     1      -9.357 -16.117  -2.733  0.00  0.00    -0.270 OA
ATOM     32  N   UNL     1      -9.247 -14.381  -4.115  0.00  0.00    -0.325 N 
ATOM     33  H   UNL     1      -8.831 -13.536  -4.348  0.00  0.00    +0.145 HD
ATOM     34  H   UNL     1      -9.959 -14.740  -4.668  0.00  0.00    +0.145 HD
ENDBRANCH  27  30
BRANCH  25  35
ATOM     35  C   UNL     1      -5.542 -14.770   0.728  0.00  0.00    +0.102 C 
ATOM     36  N   UNL     1      -5.026 -15.134   1.672  0.00  0.00    -0.191 NA
ENDBRANCH  25  35
ENDBRANCH  22  24
ENDBRANCH  19  20
ENDBRANCH   1  19
TORSDOF 9
