REMARK  Name = ZINC66159850
REMARK  9 active torsions:
REMARK  status: ('A' for Active; 'I' for Inactive)
REMARK    1  A    between atoms: C_1  and  C_2
REMARK    2  A    between atoms: C_2  and  C_3
REMARK    3  A    between atoms: C_3  and  C_4
REMARK    4  A    between atoms: C_3  and  C_5
REMARK    5  A    between atoms: C_3  and  O_21
REMARK    6  A    between atoms: C_5  and  N_6
REMARK    7  A    between atoms: N_9  and  C_10
REMARK    8  A    between atoms: C_13  and  S_16
REMARK    9  A    between atoms: S_16  and  C_17
REMARK                            x       y       z     vdW  Elec       q    Type
REMARK                         _______ _______ _______ _____ _____    ______ ____
ROOT
ATOM      1  N   UNL     1       1.370  -2.528   2.474  0.00  0.00    -0.296 N 
ATOM      2  C   UNL     1       1.488  -3.852   2.692  0.00  0.00    +0.304 C 
ATOM      3  O   UNL     1       1.092  -4.643   1.858  0.00  0.00    -0.253 OA
ATOM      4  N   UNL     1       2.043  -4.301   3.836  0.00  0.00    -0.269 N 
ATOM      5  H   UNL     1       1.686  -1.897   3.140  0.00  0.00    +0.150 HD
ATOM      6  H   UNL     1       2.419  -3.672   4.471  0.00  0.00    +0.156 HD
ENDROOT
BRANCH   4   7
ATOM      7  C   UNL     1       2.078  -5.676   4.106  0.00  0.00    +0.035 A 
ATOM      8  C   UNL     1       1.930  -6.130   5.410  0.00  0.00    +0.024 A 
ATOM      9  C   UNL     1       1.964  -7.484   5.677  0.00  0.00    +0.017 A 
ATOM     10  C   UNL     1       2.144  -8.392   4.641  0.00  0.00    +0.016 A 
ATOM     11  C   UNL     1       2.292  -7.937   3.336  0.00  0.00    +0.017 A 
ATOM     12  C   UNL     1       2.253  -6.583   3.070  0.00  0.00    +0.024 A 
BRANCH  10  13
ATOM     13  S   UNL     1       2.188 -10.121   4.981  0.00  0.00    -0.016 S 
BRANCH  13  14
ATOM     14  C   UNL     1       2.438 -10.882   3.353  0.00  0.00    +0.448 C 
ATOM     15  F   UNL     1       3.639 -10.423   2.804  0.00  0.00    -0.160 F 
ATOM     16  F   UNL     1       2.490 -12.273   3.492  0.00  0.00    -0.160 F 
ATOM     17  F   UNL     1       1.377 -10.537   2.509  0.00  0.00    -0.160 F 
ENDBRANCH  13  14
ENDBRANCH  10  13
ENDBRANCH   4   7
BRANCH   1  18
ATOM     18  C   UNL     1       0.766  -2.040   1.232  0.00  0.00    +0.140 C 
BRANCH  18  19
ATOM     19  C   UNL     1       0.755  -0.510   1.236  0.00  0.00    +0.078 C 
ATOM     20  C   UNL     1       0.046  -0.009   2.496  0.00  0.00    +0.043 C 
BRANCH  19  22
ATOM     21  C   UNL     1       0.002   1.527   0.002  0.00  0.00    +0.007 C 
ATOM     22  C   UNL     1       0.013  -0.003  -0.002  0.00  0.00    +0.032 C 
ENDBRANCH  19  22
BRANCH  19  23
ATOM     23  O   UNL     1       2.098  -0.024   1.219  0.00  0.00    -0.387 OA
ATOM     24  H   UNL     1       2.608  -0.303   0.447  0.00  0.00    +0.210 HD
ENDBRANCH  19  23
ENDBRANCH  18  19
ENDBRANCH   1  18
TORSDOF 7
