REMARK  Name = ZINC01754995
REMARK  5 active torsions:
REMARK  status: ('A' for Active; 'I' for Inactive)
REMARK    1  A    between atoms: C_1  and  C_2
REMARK    2  A    between atoms: C_5  and  N_8
REMARK    3  A    between atoms: C_14  and  C_21
REMARK    4  A    between atoms: C_17  and  C_19
REMARK    5  A    between atoms: C_17  and  C_20
REMARK                            x       y       z     vdW  Elec       q    Type
REMARK                         _______ _______ _______ _____ _____    ______ ____
ROOT
ATOM      1  N   UNL     1      -0.892  -4.107  -0.122  0.00  0.00    -0.212 N 
ATOM      2  C   UNL     1      -1.169  -4.886  -1.204  0.00  0.00    +0.161 C 
ATOM      3  N   UNL     1      -0.930  -6.203  -0.930  0.00  0.00    -0.347 N 
ATOM      4  C   UNL     1      -0.456  -6.264   0.458  0.00  0.00    +0.108 C 
ATOM      5  N   UNL     1      -0.449  -4.867   0.923  0.00  0.00    -0.209 NA
ATOM      6  C   UNL     1       0.957  -6.840   0.510  0.00  0.00    +0.049 C 
ATOM      7  C   UNL     1       1.444  -6.873   1.960  0.00  0.00    -0.010 C 
ATOM      8  C   UNL     1       0.496  -7.735   2.796  0.00  0.00    +0.010 C 
ATOM      9  C   UNL     1      -0.911  -7.137   2.753  0.00  0.00    -0.031 C 
ATOM     10  C   UNL     1      -1.407  -7.105   1.305  0.00  0.00    +0.052 C 
ATOM     11  C   UNL     1      -1.857  -7.994   3.597  0.00  0.00    +0.011 C 
ATOM     12  C   UNL     1      -0.878  -5.713   3.312  0.00  0.00    +0.011 C 
ATOM     13  C   UNL     1       2.853  -7.467   2.012  0.00  0.00    +0.007 C 
ATOM     14  S   UNL     1      -1.724  -4.313  -2.660  0.00  0.00    -0.014 SA
ATOM     15  H   UNL     1       0.476  -4.584   1.210  0.00  0.00    +0.147 HD
ATOM     16  H   UNL     1      -1.049  -6.952  -1.535  0.00  0.00    +0.163 HD
ENDROOT
BRANCH   1  21
ATOM     17  C   UNL     1      -1.477   1.534   0.019  0.00  0.00    +0.044 C 
ATOM     18  C   UNL     1      -1.321   0.035  -0.018  0.00  0.00    -0.050 A 
ATOM     19  C   UNL     1      -0.152  -0.549   0.433  0.00  0.00    +0.005 A 
ATOM     20  C   UNL     1      -0.007  -1.922   0.400  0.00  0.00    +0.025 A 
ATOM     21  C   UNL     1      -1.037  -2.716  -0.087  0.00  0.00    +0.052 A 
ATOM     22  C   UNL     1      -2.210  -2.127  -0.540  0.00  0.00    +0.025 A 
ATOM     23  C   UNL     1      -2.351  -0.753  -0.499  0.00  0.00    +0.005 A 
ENDBRANCH   1  21
TORSDOF 1
