REMARK  Name = ZINC12787416
REMARK  6 active torsions:
REMARK  status: ('A' for Active; 'I' for Inactive)
REMARK    1  A    between atoms: C_3  and  C_6
REMARK    2  A    between atoms: C_8  and  C_11
REMARK    3  A    between atoms: C_11  and  C_12
REMARK    4  A    between atoms: N_14  and  C_15
REMARK    5  A    between atoms: N_19  and  C_20
REMARK    6  A    between atoms: C_20  and  C_21
REMARK                            x       y       z     vdW  Elec       q    Type
REMARK                         _______ _______ _______ _____ _____    ______ ____
ROOT
ATOM      1  C   UNL     1      -0.742   1.585  -1.213  0.00  0.00    +0.224 C 
ATOM      2  O   UNL     1      -1.736   2.268  -1.088  0.00  0.00    -0.275 OA
ATOM      3  N   UNL     1      -0.288   1.272  -2.443  0.00  0.00    -0.270 N 
ATOM      4  H   UNL     1       0.507   0.726  -2.543  0.00  0.00    +0.156 HD
ENDROOT
BRANCH   3   5
ATOM      5  C   UNL     1      -0.963   1.734  -3.573  0.00  0.00    +0.123 A 
ATOM      6  C   UNL     1      -2.088   2.500  -3.581  0.00  0.00    +0.065 A 
ATOM      7  C   UNL     1      -2.432   2.742  -4.914  0.00  0.00    +0.136 A 
ATOM      8  N   UNL     1      -1.558   2.141  -5.679  0.00  0.00    -0.178 NA
ATOM      9  N   UNL     1      -0.621   1.498  -4.860  0.00  0.00    -0.246 N 
BRANCH   9  10
ATOM     10  C   UNL     1       0.526   0.710  -5.317  0.00  0.00    +0.182 C 
BRANCH  10  11
ATOM     11  C   UNL     1       0.116  -0.732  -5.471  0.00  0.00    -0.008 A 
ATOM     12  C   UNL     1       0.337  -1.627  -4.442  0.00  0.00    +0.008 A 
ATOM     13  C   UNL     1      -0.044  -2.949  -4.581  0.00  0.00    +0.020 A 
ATOM     14  C   UNL     1      -0.637  -3.378  -5.755  0.00  0.00    +0.042 A 
ATOM     15  C   UNL     1      -0.853  -2.484  -6.788  0.00  0.00    +0.040 A 
ATOM     16  C   UNL     1      -0.476  -1.160  -6.646  0.00  0.00    +0.047 A 
ATOM     17 CL   UNL     1      -0.747  -0.036  -7.942  0.00  0.00    -0.083 Cl
ATOM     18 CL   UNL     1      -1.109  -5.039  -5.933  0.00  0.00    -0.083 Cl
ENDBRANCH  10  11
ENDBRANCH   9  10
ENDBRANCH   3   5
BRANCH   1  19
ATOM     19  C   UNL     1      -0.013   1.086   0.008  0.00  0.00    +0.152 C 
BRANCH  19  22
ATOM     20  C   UNL     1      -1.560   3.308   2.501  0.00  0.00    +0.144 A 
ATOM     21  N   UNL     1      -0.936   2.855   1.420  0.00  0.00    -0.240 NA
ATOM     22  C   UNL     1      -0.718   1.572   1.248  0.00  0.00    +0.058 A 
ATOM     23  C   UNL     1      -1.124   0.683   2.192  0.00  0.00    +0.071 A 
ATOM     24  S   UNL     1      -1.869   1.786   3.387  0.00  0.00    -0.072 S 
BRANCH  20  27
ATOM     25  C   UNL     1      -2.654   6.480   3.954  0.00  0.00    +0.042 A 
ATOM     26  C   UNL     1      -2.544   5.077   4.009  0.00  0.00    +0.052 A 
ATOM     27  C   UNL     1      -1.898   4.690   2.873  0.00  0.00    +0.160 A 
ATOM     28  O   UNL     1      -1.630   5.793   2.148  0.00  0.00    -0.461 OA
ATOM     29  C   UNL     1      -2.085   6.877   2.798  0.00  0.00    +0.196 A 
ENDBRANCH  20  27
ENDBRANCH  19  22
ENDBRANCH   1  19
TORSDOF 6
