REMARK  Name = ZINC02349992
REMARK  9 active torsions:
REMARK  status: ('A' for Active; 'I' for Inactive)
REMARK    1  A    between atoms: C_1  and  C_2
REMARK    2  A    between atoms: C_5  and  N_8
REMARK    3  A    between atoms: C_9  and  C_29
REMARK    4  A    between atoms: C_12  and  S_13
REMARK    5  A    between atoms: S_13  and  C_14
REMARK    6  A    between atoms: C_14  and  C_15
REMARK    7  A    between atoms: N_17  and  N_18
REMARK    8  A    between atoms: C_19  and  C_20
REMARK    9  A    between atoms: C_24  and  N_26
REMARK                            x       y       z     vdW  Elec       q    Type
REMARK                         _______ _______ _______ _____ _____    ______ ____
ROOT
ATOM      1  N   UNL     1      -4.832  12.810   0.107  0.00  0.00    -0.270 N 
ATOM      2  C   UNL     1      -4.154  14.009   0.110  0.00  0.00    +0.169 A 
ATOM      3  N   UNL     1      -2.872  13.725   0.096  0.00  0.00    -0.128 NA
ATOM      4  N   UNL     1      -2.703  12.452   0.089  0.00  0.00    -0.122 NA
ATOM      5  C   UNL     1      -3.866  11.841   0.098  0.00  0.00    +0.197 A 
ENDROOT
BRANCH   1  10
ATOM      6  C   UNL     1     -10.456  12.048   0.135  0.00  0.00    +0.044 C 
ATOM      7  C   UNL     1      -8.963  12.250   0.127  0.00  0.00    -0.050 A 
ATOM      8  C   UNL     1      -8.206  11.838   1.208  0.00  0.00    +0.005 A 
ATOM      9  C   UNL     1      -6.837  12.022   1.204  0.00  0.00    +0.026 A 
ATOM     10  C   UNL     1      -6.221  12.622   0.114  0.00  0.00    +0.051 A 
ATOM     11  C   UNL     1      -6.985  13.040  -0.967  0.00  0.00    +0.026 A 
ATOM     12  C   UNL     1      -8.353  12.848  -0.960  0.00  0.00    +0.005 A 
ENDBRANCH   1  10
BRANCH   2  13
ATOM     13  C   UNL     1      -4.755  15.359   0.123  0.00  0.00    +0.020 A 
ATOM     14  C   UNL     1      -6.104  15.522   0.444  0.00  0.00    +0.013 A 
ATOM     15  C   UNL     1      -6.658  16.785   0.459  0.00  0.00    +0.021 A 
ATOM     16  C   UNL     1      -5.883  17.889   0.145  0.00  0.00    +0.041 A 
ATOM     17  C   UNL     1      -4.545  17.732  -0.180  0.00  0.00    +0.021 A 
ATOM     18  C   UNL     1      -3.978  16.475  -0.193  0.00  0.00    +0.013 A 
ATOM     19 CL   UNL     1      -6.589  19.474   0.159  0.00  0.00    -0.084 Cl
ENDBRANCH   2  13
BRANCH   5  20
ATOM     20  S   UNL     1      -4.133  10.099   0.093  0.00  0.00    -0.076 S 
BRANCH  20  21
ATOM     21  C   UNL     1      -2.418   9.519   0.073  0.00  0.00    +0.174 C 
BRANCH  21  22
ATOM     22  C   UNL     1      -2.398   8.012   0.066  0.00  0.00    +0.242 C 
ATOM     23  O   UNL     1      -3.440   7.391   0.073  0.00  0.00    -0.273 OA
ATOM     24  N   UNL     1      -1.222   7.354   0.051  0.00  0.00    -0.206 N 
ATOM     25  H   UNL     1      -0.388   7.850   0.045  0.00  0.00    +0.177 HD
BRANCH  24  26
ATOM     26  N   UNL     1      -1.202   5.953   0.044  0.00  0.00    -0.188 NA
ATOM     27  C   UNL     1      -0.070   5.320   0.030  0.00  0.00    +0.138 C 
BRANCH  27  28
ATOM     28  C   UNL     1      -0.050   3.845   0.023  0.00  0.00    -0.003 A 
ATOM     29  C   UNL     1      -1.248   3.127   0.031  0.00  0.00    +0.009 A 
ATOM     30  C   UNL     1      -1.222   1.748   0.017  0.00  0.00    +0.003 A 
ATOM     31  C   UNL     1      -0.013   1.076   0.008  0.00  0.00    +0.033 A 
ATOM     32  C   UNL     1       1.178   1.780   0.000  0.00  0.00    +0.127 A 
ATOM     33  C   UNL     1       1.167   3.160   0.007  0.00  0.00    +0.042 A 
BRANCH  32  34
ATOM     34  N   UNL     1       2.467   1.053  -0.016  0.00  0.00    +0.056 N 
ATOM     35  O   UNL     1       2.478  -0.165  -0.022  0.00  0.00    -0.126 OA
ATOM     36  O   UNL     1       3.516   1.672  -0.022  0.00  0.00    -0.126 OA
ENDBRANCH  32  34
ENDBRANCH  27  28
ENDBRANCH  24  26
ENDBRANCH  21  22
ENDBRANCH  20  21
ENDBRANCH   5  20
TORSDOF 8
