REMARK  Name = ZINC63152159
REMARK  15 active torsions:
REMARK  status: ('A' for Active; 'I' for Inactive)
REMARK    1  A    between atoms: C_1  and  O_2
REMARK    2  A    between atoms: O_2  and  C_3
REMARK    3  A    between atoms: C_3  and  C_5
REMARK    4  A    between atoms: C_5  and  C_7
REMARK    5  A    between atoms: C_5  and  N_17
REMARK    6  A    between atoms: C_7  and  C_8
REMARK    7  A    between atoms: C_18  and  C_20
REMARK    8  A    between atoms: C_20  and  C_22
REMARK    9  A    between atoms: C_20  and  N_26
REMARK   10  A    between atoms: C_22  and  C_23
REMARK   11  A    between atoms: C_23  and  S_24
REMARK   12  A    between atoms: S_24  and  C_25
REMARK   13  A    between atoms: C_27  and  O_29
REMARK   14  A    between atoms: O_29  and  C_30
REMARK   15  A    between atoms: C_30  and  C_31
REMARK                            x       y       z     vdW  Elec       q    Type
REMARK                         _______ _______ _______ _____ _____    ______ ____
ROOT
ATOM      1  N   UNL     1       1.354  -2.503  -2.345  0.00  0.00    -0.301 N 
ATOM      2  C   UNL     1       2.700  -2.578  -2.362  0.00  0.00    +0.234 C 
ATOM      3  O   UNL     1       3.334  -2.315  -1.362  0.00  0.00    -0.274 OA
ATOM      4  H   UNL     1       0.847  -2.713  -3.145  0.00  0.00    +0.150 HD
ENDROOT
BRANCH   1   5
ATOM      5  C   UNL     1       0.657  -2.104  -1.120  0.00  0.00    +0.186 C 
BRANCH   5   6
ATOM      6  C   UNL     1       0.598  -0.600  -1.043  0.00  0.00    +0.328 C 
ATOM      7  O   UNL     1       1.088   0.070  -1.921  0.00  0.00    -0.249 OA
BRANCH   6   9
ATOM      8  C   UNL     1      -0.017   1.425   0.010  0.00  0.00    +0.280 C 
ATOM      9  O   UNL     1       0.002  -0.004   0.002  0.00  0.00    -0.467 OA
ENDBRANCH   6   9
ENDBRANCH   5   6
BRANCH   5  10
ATOM     10  C   UNL     1      -0.764  -2.670  -1.133  0.00  0.00    +0.067 C 
BRANCH  10  11
ATOM     11  C   UNL     1      -0.705  -4.175  -1.086  0.00  0.00    -0.039 C 
ATOM     12  C   UNL     1      -0.796  -4.958   0.013  0.00  0.00    -0.001 A 
ATOM     13  C   UNL     1      -0.970  -4.655   1.438  0.00  0.00    +0.010 A 
ATOM     14  C   UNL     1      -1.026  -5.676   2.324  0.00  0.00    +0.001 A 
ATOM     15  C   UNL     1      -0.923  -7.013   1.915  0.00  0.00    +0.002 A 
ATOM     16  C   UNL     1      -0.763  -7.370   0.623  0.00  0.00    +0.026 A 
ATOM     17  C   UNL     1      -0.691  -6.378  -0.393  0.00  0.00    +0.043 A 
ATOM     18  N   UNL     1      -0.540  -6.469  -1.692  0.00  0.00    -0.380 N 
ATOM     19  C   UNL     1      -0.539  -5.115  -2.259  0.00  0.00    +0.144 C 
ATOM     20  H   UNL     1      -0.449  -7.293  -2.195  0.00  0.00    +0.160 HD
ENDBRANCH  10  11
ENDBRANCH   5  10
ENDBRANCH   1   5
BRANCH   2  21
ATOM     21  C   UNL     1       3.416  -2.989  -3.622  0.00  0.00    +0.163 C 
BRANCH  21  22
ATOM     22  N   UNL     1       4.861  -2.993  -3.383  0.00  0.00    -0.270 N 
ATOM     23  C   UNL     1       5.715  -2.828  -4.413  0.00  0.00    +0.401 C 
ATOM     24  O   UNL     1       5.286  -2.675  -5.539  0.00  0.00    -0.226 OA
ATOM     25  H   UNL     1       5.204  -3.116  -2.484  0.00  0.00    +0.153 HD
BRANCH  23  26
ATOM     26  O   UNL     1       7.043  -2.832  -4.193  0.00  0.00    -0.446 OA
BRANCH  26  27
ATOM     27  C   UNL     1       7.890  -2.651  -5.330  0.00  0.00    +0.269 C 
BRANCH  27  28
ATOM     28  C   UNL     1       9.332  -2.684  -4.894  0.00  0.00    -0.010 A 
ATOM     29  C   UNL     1       9.967  -1.516  -4.518  0.00  0.00    +0.007 A 
ATOM     30  C   UNL     1      11.290  -1.546  -4.117  0.00  0.00    +0.000 A 
ATOM     31  C   UNL     1      11.977  -2.745  -4.092  0.00  0.00    +0.000 A 
ATOM     32  C   UNL     1      11.341  -3.914  -4.468  0.00  0.00    +0.000 A 
ATOM     33  C   UNL     1      10.017  -3.884  -4.864  0.00  0.00    +0.007 A 
ENDBRANCH  27  28
ENDBRANCH  26  27
ENDBRANCH  23  26
ENDBRANCH  21  22
BRANCH  21  34
ATOM     34  C   UNL     1       2.962  -4.391  -4.033  0.00  0.00    +0.042 C 
BRANCH  34  35
ATOM     35  C   UNL     1       3.594  -4.758  -5.377  0.00  0.00    +0.071 C 
BRANCH  35  36
ATOM     36  S   UNL     1       3.056  -6.421  -5.864  0.00  0.00    -0.164 S 
ATOM     37  C   UNL     1       3.881  -6.700  -7.455  0.00  0.00    +0.084 C 
ENDBRANCH  35  36
ENDBRANCH  34  35
ENDBRANCH  21  34
ENDBRANCH   2  21
TORSDOF 13
