REMARK  Name = ZINC00418197
REMARK  5 active torsions:
REMARK  status: ('A' for Active; 'I' for Inactive)
REMARK    1  A    between atoms: C_1  and  C_2
REMARK    2  A    between atoms: C_9  and  C_18
REMARK    3  A    between atoms: C_10  and  N_11
REMARK    4  A    between atoms: N_11  and  C_12
REMARK    5  A    between atoms: C_23  and  O_24
REMARK                            x       y       z     vdW  Elec       q    Type
REMARK                         _______ _______ _______ _____ _____    ______ ____
ROOT
ATOM      1  C   UNL     1       0.007   0.003  -0.151  0.00  0.00    +0.047 C 
ATOM      2  C   UNL     1      -0.024   1.498   0.029  0.00  0.00    -0.008 A 
ATOM      3  C   UNL     1       1.123   2.183   0.283  0.00  0.00    +0.008 A 
ATOM      4  C   UNL     1       1.083   3.579   0.449  0.00  0.00    +0.018 A 
ATOM      5  C   UNL     1      -0.087   4.241   0.358  0.00  0.00    +0.094 A 
ATOM      6  N   UNL     1      -1.252   3.568   0.103  0.00  0.00    -0.287 N 
ATOM      7  C   UNL     1      -1.242   2.203  -0.069  0.00  0.00    +0.143 A 
ATOM      8  N   UNL     1      -2.481   1.798  -0.297  0.00  0.00    -0.225 NA
ATOM      9  C   UNL     1      -3.304   2.863  -0.287  0.00  0.00    +0.115 A 
ATOM     10  C   UNL     1      -2.546   3.987  -0.036  0.00  0.00    +0.131 A 
ENDROOT
BRANCH   9  11
ATOM     11  C   UNL     1      -4.770   2.832  -0.506  0.00  0.00    +0.045 A 
ATOM     12  C   UNL     1      -5.508   4.014  -0.469  0.00  0.00    +0.014 A 
ATOM     13  C   UNL     1      -6.872   3.980  -0.674  0.00  0.00    +0.001 A 
ATOM     14  C   UNL     1      -7.511   2.776  -0.916  0.00  0.00    +0.004 A 
ATOM     15  C   UNL     1      -6.788   1.598  -0.955  0.00  0.00    +0.046 A 
ATOM     16  C   UNL     1      -5.417   1.618  -0.757  0.00  0.00    +0.126 A 
BRANCH  16  17
ATOM     17  O   UNL     1      -4.705   0.462  -0.802  0.00  0.00    -0.506 OA
ATOM     18  H   UNL     1      -4.626   0.015   0.053  0.00  0.00    +0.292 HD
ENDBRANCH  16  17
ENDBRANCH   9  11
BRANCH  10  19
ATOM     19  N   UNL     1      -3.010   5.300   0.057  0.00  0.00    -0.326 N 
ATOM     20  H   UNL     1      -3.602   5.531  -0.727  0.00  0.00    +0.148 HD
BRANCH  19  21
ATOM     21  C   UNL     1      -1.893   6.247   0.171  0.00  0.00    +0.072 C 
ATOM     22  C   UNL     1      -1.447   6.336   1.632  0.00  0.00    +0.022 C 
ATOM     23  C   UNL     1      -0.283   7.322   1.750  0.00  0.00    +0.002 C 
ATOM     24  C   UNL     1      -0.733   8.703   1.269  0.00  0.00    +0.000 C 
ATOM     25  C   UNL     1      -1.179   8.613  -0.192  0.00  0.00    +0.002 C 
ATOM     26  C   UNL     1      -2.343   7.627  -0.310  0.00  0.00    +0.022 C 
ENDBRANCH  19  21
ENDBRANCH  10  19
TORSDOF 4
