REMARK  Name = ZINC35551573
REMARK  8 active torsions:
REMARK  status: ('A' for Active; 'I' for Inactive)
REMARK    1  A    between atoms: C_1  and  C_2
REMARK    2  A    between atoms: N_8  and  C_13
REMARK    3  A    between atoms: C_13  and  C_14
REMARK    4  A    between atoms: C_17  and  O_20
REMARK    5  A    between atoms: O_20  and  C_21
REMARK    6  A    between atoms: C_21  and  C_22
REMARK    7  A    between atoms: C_22  and  C_23
REMARK    8  A    between atoms: C_22  and  C_24
REMARK                            x       y       z     vdW  Elec       q    Type
REMARK                         _______ _______ _______ _____ _____    ______ ____
ROOT
ATOM      1  C   UNL     1       0.807  -0.220   5.476  0.00  0.00    +0.046 C 
ATOM      2  C   UNL     1       0.698  -1.462   4.630  0.00  0.00    -0.028 A 
ATOM      3  C   UNL     1       1.046  -2.691   5.161  0.00  0.00    +0.005 A 
ATOM      4  C   UNL     1       0.952  -3.843   4.398  0.00  0.00    +0.001 A 
ATOM      5  C   UNL     1       0.507  -3.773   3.093  0.00  0.00    +0.014 A 
ATOM      6  C   UNL     1       0.153  -2.540   2.548  0.00  0.00    +0.049 A 
ATOM      7  C   UNL     1       0.242  -1.371   3.322  0.00  0.00    +0.051 A 
ATOM      8  N   UNL     1      -0.169  -0.276   2.564  0.00  0.00    -0.260 N 
ATOM      9  C   UNL     1      -0.535  -0.646   1.325  0.00  0.00    +0.292 C 
ATOM     10  O   UNL     1      -0.935   0.089   0.446  0.00  0.00    -0.266 OA
ATOM     11  C   UNL     1      -0.345  -2.130   1.222  0.00  0.00    +0.250 C 
ATOM     12  O   UNL     1      -0.565  -2.840   0.262  0.00  0.00    -0.282 OA
ENDROOT
BRANCH   8  13
ATOM     13  C   UNL     1      -0.199   1.103   3.057  0.00  0.00    +0.149 C 
BRANCH  13  14
ATOM     14  C   UNL     1      -1.610   1.470   3.437  0.00  0.00    -0.029 A 
ATOM     15  C   UNL     1      -2.507   1.865   2.462  0.00  0.00    +0.009 A 
ATOM     16  C   UNL     1      -3.802   2.202   2.808  0.00  0.00    +0.046 A 
ATOM     17  C   UNL     1      -4.201   2.144   4.136  0.00  0.00    +0.121 A 
ATOM     18  C   UNL     1      -3.299   1.747   5.112  0.00  0.00    +0.046 A 
ATOM     19  C   UNL     1      -2.007   1.406   4.760  0.00  0.00    +0.009 A 
BRANCH  17  20
ATOM     20  O   UNL     1      -5.473   2.476   4.479  0.00  0.00    -0.492 OA
BRANCH  20  21
ATOM     21  C   UNL     1      -5.814   2.393   5.864  0.00  0.00    +0.232 C 
BRANCH  21  22
ATOM     22  C   UNL     1      -7.276   2.801   6.055  0.00  0.00    +0.020 C 
ATOM     23  C   UNL     1      -8.184   1.789   5.354  0.00  0.00    +0.010 C 
ATOM     24  C   UNL     1      -7.606   2.833   7.549  0.00  0.00    +0.010 C 
ENDBRANCH  21  22
ENDBRANCH  20  21
ENDBRANCH  17  20
ENDBRANCH  13  14
ENDBRANCH   8  13
TORSDOF 5
