REMARK  Name = ZINC20287312
REMARK  13 active torsions:
REMARK  status: ('A' for Active; 'I' for Inactive)
REMARK    1  A    between atoms: C_1  and  C_2
REMARK    2  A    between atoms: C_2  and  N_23
REMARK    3  A    between atoms: C_4  and  C_18
REMARK    4  A    between atoms: N_6  and  C_9
REMARK    5  A    between atoms: C_12  and  N_15
REMARK    6  A    between atoms: C_18  and  C_19
REMARK    7  A    between atoms: C_19  and  O_21
REMARK    8  A    between atoms: O_21  and  C_22
REMARK    9  A    between atoms: N_23  and  C_24
REMARK   10  A    between atoms: C_26  and  C_32
REMARK   11  A    between atoms: C_26  and  C_33
REMARK   12  A    between atoms: C_28  and  C_30
REMARK   13  A    between atoms: C_28  and  C_31
REMARK                            x       y       z     vdW  Elec       q    Type
REMARK                         _______ _______ _______ _____ _____    ______ ____
ROOT
ATOM      1  C   UNL     1      -0.445   1.819  -0.074  0.00  0.00    +0.061 C 
ATOM      2  C   UNL     1      -0.315   0.319  -0.121  0.00  0.00    +0.015 C 
ATOM      3  C   UNL     1      -0.058  -0.390   1.040  0.00  0.00    +0.079 C 
ATOM      4  C   UNL     1      -0.003   0.131   2.414  0.00  0.00    +0.084 C 
ATOM      5  N   UNL     1       0.266  -0.866   3.201  0.00  0.00    -0.176 NA
ATOM      6  N   UNL     1       0.406  -2.054   2.484  0.00  0.00    -0.156 N 
ATOM      7  C   UNL     1       0.214  -1.827   1.169  0.00  0.00    +0.274 C 
ATOM      8  O   UNL     1       0.260  -2.648   0.268  0.00  0.00    -0.268 OA
ENDROOT
BRANCH   6   9
ATOM      9  C   UNL     1       0.697  -3.302   3.049  0.00  0.00    +0.060 A 
ATOM     10  C   UNL     1       0.821  -4.422   2.236  0.00  0.00    +0.028 A 
ATOM     11  C   UNL     1       1.108  -5.651   2.796  0.00  0.00    +0.034 A 
ATOM     12  C   UNL     1       1.272  -5.768   4.164  0.00  0.00    +0.126 A 
ATOM     13  C   UNL     1       1.150  -4.655   4.976  0.00  0.00    +0.034 A 
ATOM     14  C   UNL     1       0.869  -3.422   4.421  0.00  0.00    +0.028 A 
BRANCH  12  15
ATOM     15  N   UNL     1       1.580  -7.087   4.761  0.00  0.00    +0.056 N 
ATOM     16  O   UNL     1       1.687  -8.061   4.052  0.00  0.00    -0.126 OA
ATOM     17  O   UNL     1       1.724  -7.191   5.957  0.00  0.00    -0.126 OA
ENDBRANCH  12  15
ENDBRANCH   6   9
BRANCH   2  18
ATOM     18  N   UNL     1      -0.449  -0.333  -1.294  0.00  0.00    -0.344 N 
ATOM     19  H   UNL     1      -0.435  -1.303  -1.314  0.00  0.00    +0.146 HD
BRANCH  18  20
ATOM     20  C   UNL     1      -0.615   0.425  -2.540  0.00  0.00    +0.068 C 
ATOM     21  C   UNL     1      -2.092   0.781  -2.718  0.00  0.00    +0.009 C 
ATOM     22  C   UNL     1      -2.284   1.560  -4.019  0.00  0.00    -0.072 C 
ATOM     23  N   UNL     1      -1.738   0.852  -5.168  0.00  0.00    +0.386 N 
ATOM     24  C   UNL     1      -0.406   0.285  -5.041  0.00  0.00    -0.072 C 
ATOM     25  C   UNL     1      -0.186  -0.447  -3.721  0.00  0.00    +0.009 C 
ATOM     26  C   UNL     1       0.682   1.344  -5.238  0.00  0.00    -0.010 C 
ATOM     27  C   UNL     1      -0.234  -0.754  -6.175  0.00  0.00    -0.010 C 
ATOM     28  C   UNL     1      -1.705   2.968  -3.882  0.00  0.00    -0.010 C 
ATOM     29  C   UNL     1      -3.806   1.710  -4.243  0.00  0.00    -0.010 C 
ATOM     30  H   UNL     1      -2.386   0.100  -5.418  0.00  0.00    -0.084 HD
ATOM     31  H   UNL     1      -1.743   1.488  -5.969  0.00  0.00    -0.084 HD
ENDBRANCH  18  20
ENDBRANCH   2  18
BRANCH   4  32
ATOM     32  C   UNL     1      -0.220   1.562   2.833  0.00  0.00    +0.178 C 
BRANCH  32  33
ATOM     33  C   UNL     1      -0.210   1.652   4.338  0.00  0.00    +0.313 C 
ATOM     34  O   UNL     1      -0.045   0.656   5.001  0.00  0.00    -0.250 OA
BRANCH  33  35
ATOM     35  O   UNL     1      -0.386   2.839   4.940  0.00  0.00    -0.468 OA
ATOM     36  C   UNL     1      -0.366   2.850   6.369  0.00  0.00    +0.280 C 
ENDBRANCH  33  35
ENDBRANCH  32  33
ENDBRANCH   4  32
TORSDOF 7
