REMARK  Name = ZINC51751358
REMARK  7 active torsions:
REMARK  status: ('A' for Active; 'I' for Inactive)
REMARK    1  A    between atoms: C_1  and  C_2
REMARK    2  A    between atoms: N_6  and  C_11
REMARK    3  A    between atoms: C_7  and  C_10
REMARK    4  A    between atoms: C_13  and  C_19
REMARK    5  A    between atoms: C_14  and  N_18
REMARK    6  A    between atoms: C_19  and  O_21
REMARK    7  A    between atoms: O_21  and  C_22
REMARK                            x       y       z     vdW  Elec       q    Type
REMARK                         _______ _______ _______ _____ _____    ______ ____
ROOT
ATOM      1  C   UNL     1       2.260  -3.550  -0.016  0.00  0.00    +0.066 A 
ATOM      2  C   UNL     1       3.511  -2.964  -0.041  0.00  0.00    +0.042 A 
ATOM      3  C   UNL     1       4.656  -3.767  -0.078  0.00  0.00    +0.081 A 
ATOM      4  C   UNL     1       4.525  -5.165  -0.090  0.00  0.00    +0.042 A 
ATOM      5  C   UNL     1       3.261  -5.739  -0.065  0.00  0.00    +0.063 A 
ATOM      6  C   UNL     1       2.136  -4.939  -0.022  0.00  0.00    +0.146 A 
ATOM      7  F   UNL     1       0.909  -5.504   0.007  0.00  0.00    -0.203 F 
ENDROOT
BRANCH   1  12
ATOM      8  C   UNL     1      -0.593   1.152   0.098  0.00  0.00    +0.007 C 
ATOM      9  C   UNL     1      -0.418  -0.368   0.082  0.00  0.00    -0.011 C 
ATOM     10  C   UNL     1       0.321  -0.783  -1.192  0.00  0.00    +0.022 C 
ATOM     11  C   UNL     1       0.464  -2.308  -1.222  0.00  0.00    +0.106 C 
ATOM     12  N   UNL     1       1.112  -2.746   0.022  0.00  0.00    -0.325 N 
ATOM     13  C   UNL     1       0.534  -2.326   1.306  0.00  0.00    +0.071 C 
ATOM     14  C   UNL     1       0.391  -0.801   1.306  0.00  0.00    +0.025 C 
ATOM     15  C   UNL     1      -0.840  -2.974   1.486  0.00  0.00    +0.028 C 
ENDBRANCH   1  12
BRANCH   4  16
ATOM     16  N   UNL     1       5.657  -5.971  -0.128  0.00  0.00    -0.357 N 
ATOM     17  H   UNL     1       6.539  -5.572  -0.064  0.00  0.00    +0.142 HD
ATOM     18  H   UNL     1       5.565  -6.933  -0.217  0.00  0.00    +0.142 HD
ENDBRANCH   4  16
BRANCH   3  19
ATOM     19  C   UNL     1       5.992  -3.149  -0.106  0.00  0.00    +0.341 C 
ATOM     20  O   UNL     1       6.985  -3.846  -0.030  0.00  0.00    -0.245 OA
BRANCH  19  21
ATOM     21  O   UNL     1       6.113  -1.811  -0.215  0.00  0.00    -0.464 OA
ATOM     22  C   UNL     1       7.440  -1.280  -0.235  0.00  0.00    +0.280 C 
ENDBRANCH  19  21
ENDBRANCH   3  19
TORSDOF 4
