REMARK  Name = ZINC08423382
REMARK  7 active torsions:
REMARK  status: ('A' for Active; 'I' for Inactive)
REMARK    1  A    between atoms: C_1  and  C_2
REMARK    2  A    between atoms: C_2  and  C_3
REMARK    3  A    between atoms: C_8  and  N_9
REMARK    4  A    between atoms: C_10  and  C_12
REMARK    5  A    between atoms: C_12  and  N_13
REMARK    6  A    between atoms: C_14  and  C_16
REMARK    7  A    between atoms: C_18  and  N_23
REMARK                            x       y       z     vdW  Elec       q    Type
REMARK                         _______ _______ _______ _____ _____    ______ ____
ROOT
ATOM      1  N   UNL     1      -0.011   0.967  -0.010  0.00  0.00    -0.303 N 
ATOM      2  C   UNL     1       1.147   1.657  -0.027  0.00  0.00    +0.246 C 
ATOM      3  O   UNL     1       1.130   2.872  -0.028  0.00  0.00    -0.270 OA
ATOM      4  H   UNL     1       0.002  -0.003  -0.009  0.00  0.00    +0.150 HD
ENDROOT
BRANCH   2   5
ATOM      5  C   UNL     1       2.436   0.936  -0.045  0.00  0.00    +0.057 A 
ATOM      6  C   UNL     1       2.459  -0.460  -0.038  0.00  0.00    +0.047 A 
ATOM      7  C   UNL     1       3.666  -1.127  -0.059  0.00  0.00    +0.127 A 
ATOM      8  C   UNL     1       4.854  -0.416  -0.077  0.00  0.00    +0.034 A 
ATOM      9  C   UNL     1       4.840   0.966  -0.079  0.00  0.00    +0.023 A 
ATOM     10  C   UNL     1       3.638   1.647  -0.063  0.00  0.00    +0.053 A 
ATOM     11 CL   UNL     1       3.621   3.383  -0.066  0.00  0.00    -0.083 Cl
BRANCH   7  12
ATOM     12  N   UNL     1       3.692  -2.607  -0.057  0.00  0.00    +0.056 N 
ATOM     13  O   UNL     1       4.757  -3.198  -0.071  0.00  0.00    -0.126 OA
ATOM     14  O   UNL     1       2.648  -3.234  -0.041  0.00  0.00    -0.126 OA
ENDBRANCH   7  12
ENDBRANCH   2   5
BRANCH   1  15
ATOM     15  C   UNL     1      -1.290   1.682   0.002  0.00  0.00    +0.200 C 
BRANCH  15  17
ATOM     16  N   UNL     1      -3.698   1.118   0.026  0.00  0.00    -0.284 N 
ATOM     17  C   UNL     1      -2.422   0.687   0.014  0.00  0.00    +0.234 C 
ATOM     18  O   UNL     1      -2.183  -0.503   0.013  0.00  0.00    -0.274 OA
ATOM     19  H   UNL     1      -3.889   2.066   0.107  0.00  0.00    +0.155 HD
BRANCH  16  25
ATOM     20  C   UNL     1      -6.003   0.516   0.423  0.00  0.00    -0.026 A 
ATOM     21  C   UNL     1      -7.038  -0.393   0.318  0.00  0.00    +0.005 A 
ATOM     22  C   UNL     1      -6.825  -1.617  -0.289  0.00  0.00    +0.000 A 
ATOM     23  C   UNL     1      -5.577  -1.935  -0.792  0.00  0.00    +0.002 A 
ATOM     24  C   UNL     1      -4.539  -1.029  -0.694  0.00  0.00    +0.023 A 
ATOM     25  C   UNL     1      -4.748   0.200  -0.080  0.00  0.00    +0.037 A 
BRANCH  20  27
ATOM     26  C   UNL     1      -6.562   2.898   0.018  0.00  0.00    +0.009 C 
ATOM     27  C   UNL     1      -6.236   1.850   1.084  0.00  0.00    +0.033 C 
ENDBRANCH  20  27
ENDBRANCH  16  25
ENDBRANCH  15  17
ENDBRANCH   1  15
TORSDOF 6
