REMARK  Name = ZINC41653987
REMARK  2 active torsions:
REMARK  status: ('A' for Active; 'I' for Inactive)
REMARK    1  A    between atoms: C_3  and  C_6
REMARK    2  A    between atoms: N_18  and  C_21
REMARK                            x       y       z     vdW  Elec       q    Type
REMARK                         _______ _______ _______ _____ _____    ______ ____
ROOT
ATOM      1  C   UNL     1       3.677   1.649  -0.025  0.00  0.00    +0.065 C 
ATOM      2  C   UNL     1       4.665   0.709  -0.039  0.00  0.00    +0.177 C 
ATOM      3  C   UNL     1       6.061   0.972  -0.046  0.00  0.00    +0.231 C 
ATOM      4  O   UNL     1       6.610   2.062  -0.040  0.00  0.00    -0.283 OA
ATOM      5  C   UNL     1       6.704  -0.353  -0.060  0.00  0.00    +0.068 A 
ATOM      6  C   UNL     1       8.032  -0.778  -0.071  0.00  0.00    +0.019 A 
ATOM      7  C   UNL     1       8.318  -2.113  -0.084  0.00  0.00    +0.047 A 
ATOM      8  C   UNL     1       7.289  -3.056  -0.085  0.00  0.00    +0.130 A 
ATOM      9  C   UNL     1       5.967  -2.648  -0.071  0.00  0.00    +0.051 A 
ATOM     10  C   UNL     1       5.660  -1.292  -0.060  0.00  0.00    +0.147 A 
ATOM     11  O   UNL     1       4.481  -0.633  -0.043  0.00  0.00    -0.451 OA
ATOM     12  C   UNL     1       4.846  -3.656  -0.065  0.00  0.00    +0.130 C 
ATOM     13  N   UNL     1       5.360  -4.967  -0.488  0.00  0.00    -0.263 NA
ATOM     14  C   UNL     1       6.580  -5.300   0.266  0.00  0.00    +0.319 C 
ATOM     15  O   UNL     1       7.608  -4.377  -0.101  0.00  0.00    -0.476 OA
ENDROOT
BRANCH  13  16
ATOM     16  C   UNL     1       4.338  -6.010  -0.325  0.00  0.00    +0.060 C 
ATOM     17  C   UNL     1       3.115  -5.664  -1.176  0.00  0.00    +0.019 C 
ATOM     18  C   UNL     1       2.052  -6.751  -1.006  0.00  0.00    +0.002 C 
ATOM     19  C   UNL     1       2.622  -8.097  -1.456  0.00  0.00    +0.000 C 
ATOM     20  C   UNL     1       3.845  -8.443  -0.604  0.00  0.00    +0.002 C 
ATOM     21  C   UNL     1       4.909  -7.356  -0.774  0.00  0.00    +0.019 C 
ENDBRANCH  13  16
BRANCH   1  24
ATOM     22  C   UNL     1      -0.016   1.353   0.009  0.00  0.00    +0.008 A 
ATOM     23  C   UNL     1       1.174   2.037   0.002  0.00  0.00    +0.015 A 
ATOM     24  C   UNL     1       2.322   1.249  -0.013  0.00  0.00    +0.016 A 
ATOM     25  S   UNL     1       1.635  -0.396  -0.016  0.00  0.00    -0.097 S 
ATOM     26  C   UNL     1       0.002  -0.004   0.002  0.00  0.00    +0.046 A 
ENDBRANCH   1  24
TORSDOF 2
