REMARK  Name = ZINC39421198
REMARK  12 active torsions:
REMARK  status: ('A' for Active; 'I' for Inactive)
REMARK    1  A    between atoms: C_1  and  C_2
REMARK    2  A    between atoms: C_7  and  N_8
REMARK    3  A    between atoms: C_10  and  C_24
REMARK    4  A    between atoms: C_12  and  C_15
REMARK    5  A    between atoms: C_18  and  O_22
REMARK    6  A    between atoms: O_22  and  C_23
REMARK    7  A    between atoms: C_24  and  N_25
REMARK    8  A    between atoms: N_25  and  C_26
REMARK    9  A    between atoms: N_25  and  C_27
REMARK   10  A    between atoms: C_27  and  C_28
REMARK   11  A    between atoms: C_29  and  C_35
REMARK   12  A    between atoms: C_32  and  C_34
REMARK                            x       y       z     vdW  Elec       q    Type
REMARK                         _______ _______ _______ _____ _____    ______ ____
ROOT
ATOM      1  N   UNL     1       0.562  -0.477   2.425  0.00  0.00    -0.266 N 
ATOM      2  C   UNL     1      -0.533  -0.636   3.396  0.00  0.00    +0.127 C 
ATOM      3  C   UNL     1      -0.259   0.413   4.500  0.00  0.00    +0.014 C 
ATOM      4  C   UNL     1       1.252   0.697   4.277  0.00  0.00    +0.106 C 
ATOM      5  N   UNL     1       1.374   0.560   2.805  0.00  0.00    -0.232 NA
ATOM      6  H   UNL     1       1.108   1.416   2.341  0.00  0.00    +0.145 HD
ENDROOT
BRANCH   1  13
ATOM      7  C   UNL     1       0.768   0.821  -0.098  0.00  0.00    +0.046 C 
ATOM      8  C   UNL     1       0.855  -0.677   0.038  0.00  0.00    -0.028 A 
ATOM      9  C   UNL     1       1.045  -1.463  -1.082  0.00  0.00    +0.005 A 
ATOM     10  C   UNL     1       1.125  -2.837  -0.959  0.00  0.00    +0.000 A 
ATOM     11  C   UNL     1       1.014  -3.431   0.285  0.00  0.00    +0.002 A 
ATOM     12  C   UNL     1       0.824  -2.651   1.409  0.00  0.00    +0.025 A 
ATOM     13  C   UNL     1       0.749  -1.269   1.290  0.00  0.00    +0.047 A 
ENDBRANCH   1  13
BRANCH   4  14
ATOM     14  C   UNL     1       1.611   2.090   4.724  0.00  0.00    -0.026 A 
ATOM     15  C   UNL     1       1.336   3.170   3.905  0.00  0.00    +0.009 A 
ATOM     16  C   UNL     1       1.664   4.449   4.311  0.00  0.00    +0.049 A 
ATOM     17  C   UNL     1       2.269   4.651   5.542  0.00  0.00    +0.155 A 
ATOM     18  C   UNL     1       2.545   3.566   6.364  0.00  0.00    +0.165 A 
ATOM     19  C   UNL     1       2.209   2.288   5.954  0.00  0.00    +0.047 A 
ATOM     20  F   UNL     1       3.135   3.758   7.564  0.00  0.00    -0.202 F 
BRANCH  17  21
ATOM     21  O   UNL     1       2.594   5.909   5.943  0.00  0.00    -0.492 OA
ATOM     22  C   UNL     1       2.281   6.977   5.046  0.00  0.00    +0.277 C 
ENDBRANCH  17  21
ENDBRANCH   4  14
BRANCH   3  23
ATOM     23  C   UNL     1      -0.510  -0.173   5.891  0.00  0.00    -0.072 C 
BRANCH  23  24
ATOM     24  N   UNL     1      -1.941  -0.466   6.048  0.00  0.00    +0.381 N 
ATOM     25  C   UNL     1      -2.704   0.789   6.011  0.00  0.00    -0.096 C 
ATOM     26  H   UNL     1      -2.245  -1.067   5.297  0.00  0.00    -0.082 HD
BRANCH  24  27
ATOM     27  C   UNL     1      -2.165  -1.138   7.334  0.00  0.00    -0.044 C 
BRANCH  27  28
ATOM     28  C   UNL     1      -3.606  -1.566   7.433  0.00  0.00    -0.038 C 
ATOM     29  C   UNL     1      -4.614  -0.932   8.037  0.00  0.00    +0.060 C 
ATOM     30  N   UNL     1      -5.764  -1.630   7.912  0.00  0.00    -0.159 NA
ATOM     31  N   UNL     1      -5.658  -2.684   7.282  0.00  0.00    -0.180 NA
ATOM     32  C   UNL     1      -4.252  -2.817   6.862  0.00  0.00    +0.151 C 
ATOM     33  C   UNL     1      -3.625  -4.074   7.468  0.00  0.00    +0.039 C 
ATOM     34  C   UNL     1      -4.485   0.383   8.761  0.00  0.00    +0.067 C 
ENDBRANCH  27  28
ENDBRANCH  24  27
ENDBRANCH  23  24
ENDBRANCH   3  23
TORSDOF 7
