REMARK  Name = ZINC16023249
REMARK  7 active torsions:
REMARK  status: ('A' for Active; 'I' for Inactive)
REMARK    1  A    between atoms: C_4  and  S_20
REMARK    2  A    between atoms: C_5  and  C_7
REMARK    3  A    between atoms: N_9  and  C_10
REMARK    4  A    between atoms: C_10  and  C_11
REMARK    5  A    between atoms: S_20  and  C_21
REMARK    6  A    between atoms: C_21  and  C_22
REMARK    7  A    between atoms: N_24  and  C_25
REMARK                            x       y       z     vdW  Elec       q    Type
REMARK                         _______ _______ _______ _____ _____    ______ ____
ROOT
ATOM      1  C   UNL     1       1.520   0.027  -4.933  0.00  0.00    +0.001 A 
ATOM      2  C   UNL     1       1.904  -0.235  -3.626  0.00  0.00    +0.001 A 
ATOM      3  C   UNL     1       1.177   0.272  -2.570  0.00  0.00    +0.015 A 
ATOM      4  C   UNL     1       0.045   1.043  -2.809  0.00  0.00    +0.020 A 
ATOM      5  C   UNL     1      -0.346   1.310  -4.131  0.00  0.00    +0.050 A 
ATOM      6  C   UNL     1       0.405   0.793  -5.190  0.00  0.00    +0.014 A 
ENDROOT
BRANCH   5   7
ATOM      7  C   UNL     1      -1.540   2.131  -4.400  0.00  0.00    +0.245 C 
ATOM      8  O   UNL     1      -2.191   2.579  -3.475  0.00  0.00    -0.270 OA
ATOM      9  N   UNL     1      -1.912   2.384  -5.670  0.00  0.00    -0.307 N 
ATOM     10  H   UNL     1      -1.393   2.027  -6.408  0.00  0.00    +0.149 HD
BRANCH   9  11
ATOM     11  C   UNL     1      -3.099   3.200  -5.938  0.00  0.00    +0.140 C 
BRANCH  11  12
ATOM     12  C   UNL     1      -3.293   3.332  -7.426  0.00  0.00    -0.027 A 
ATOM     13  C   UNL     1      -2.708   4.383  -8.108  0.00  0.00    +0.009 A 
ATOM     14  C   UNL     1      -2.879   4.504  -9.474  0.00  0.00    +0.050 A 
ATOM     15  C   UNL     1      -3.648   3.579 -10.162  0.00  0.00    +0.166 A 
ATOM     16  C   UNL     1      -4.242   2.524  -9.475  0.00  0.00    +0.167 A 
ATOM     17  C   UNL     1      -4.061   2.405  -8.106  0.00  0.00    +0.054 A 
ATOM     18  O   UNL     1      -4.938   1.760 -10.366  0.00  0.00    -0.453 OA
ATOM     19  C   UNL     1      -5.102   2.585 -11.534  0.00  0.00    +0.466 C 
ATOM     20  O   UNL     1      -3.973   3.477 -11.484  0.00  0.00    -0.453 OA
ENDBRANCH  11  12
ENDBRANCH   9  11
ENDBRANCH   5   7
BRANCH   4  21
ATOM     21  S   UNL     1      -0.890   1.687  -1.462  0.00  0.00    -0.115 S 
BRANCH  21  22
ATOM     22  C   UNL     1      -0.013   1.086   0.008  0.00  0.00    +0.170 C 
BRANCH  22  23
ATOM     23  C   UNL     1      -0.718   1.572   1.248  0.00  0.00    +0.224 C 
ATOM     24  O   UNL     1      -1.714   2.256   1.150  0.00  0.00    -0.275 OA
ATOM     25  N   UNL     1      -0.242   1.246   2.466  0.00  0.00    -0.309 N 
ATOM     26  H   UNL     1       0.555   0.699   2.544  0.00  0.00    +0.149 HD
BRANCH  25  27
ATOM     27  C   UNL     1      -0.927   1.718   3.671  0.00  0.00    +0.035 C 
ATOM     28  C   UNL     1      -0.948   3.248   3.679  0.00  0.00    +0.029 C 
ATOM     29  C   UNL     1      -1.664   3.742   4.938  0.00  0.00    -0.008 C 
ATOM     30  C   UNL     1      -0.924   3.235   6.178  0.00  0.00    +0.007 C 
ATOM     31  C   UNL     1      -0.903   1.705   6.169  0.00  0.00    -0.008 C 
ATOM     32  C   UNL     1      -0.187   1.212   4.911  0.00  0.00    +0.029 C 
ATOM     33  C   UNL     1      -2.339   1.175   6.180  0.00  0.00    +0.007 C 
ATOM     34  C   UNL     1      -3.079   1.682   4.941  0.00  0.00    -0.008 C 
ATOM     35  C   UNL     1      -3.100   3.212   4.949  0.00  0.00    +0.007 C 
ATOM     36  C   UNL     1      -2.363   1.189   3.682  0.00  0.00    +0.029 C 
ENDBRANCH  25  27
ENDBRANCH  22  23
ENDBRANCH  21  22
ENDBRANCH   4  21
TORSDOF 7
