REMARK  Name = ZINC14548331
REMARK  5 active torsions:
REMARK  status: ('A' for Active; 'I' for Inactive)
REMARK    1  A    between atoms: C_9  and  O_37
REMARK    2  A    between atoms: C_10  and  C_11
REMARK    3  A    between atoms: C_22  and  C_27
REMARK    4  A    between atoms: N_29  and  C_30
REMARK    5  A    between atoms: C_30  and  C_31
REMARK                            x       y       z     vdW  Elec       q    Type
REMARK                         _______ _______ _______ _____ _____    ______ ____
ROOT
ATOM      1  C   UNL     1      -0.076   4.249   0.027  0.00  0.00    +0.109 C 
ATOM      2  C   UNL     1      -0.385   4.723   1.436  0.00  0.00    +0.029 C 
ATOM      3  C   UNL     1      -0.427   3.658   2.540  0.00  0.00    +0.033 C 
ATOM      4  C   UNL     1      -0.004   4.470   3.766  0.00  0.00    -0.030 C 
ATOM      5  C   UNL     1       0.736   5.506   3.390  0.00  0.00    -0.023 C 
ATOM      6  C   UNL     1       0.889   5.488   1.904  0.00  0.00    +0.049 C 
ATOM      7  C   UNL     1       1.002   6.718   1.089  0.00  0.00    -0.019 A 
ATOM      8  C   UNL     1       1.495   7.894   1.599  0.00  0.00    +0.019 A 
ATOM      9  C   UNL     1       1.594   9.026   0.785  0.00  0.00    +0.037 A 
ATOM     10  C   UNL     1       1.188   8.956  -0.551  0.00  0.00    +0.015 A 
ATOM     11  C   UNL     1       0.689   7.779  -1.057  0.00  0.00    +0.024 A 
ATOM     12  C   UNL     1       0.583   6.649  -0.248  0.00  0.00    +0.031 A 
ATOM     13  N   UNL     1       0.055   5.477  -0.787  0.00  0.00    -0.336 N 
ATOM     14  H   UNL     1      -0.232   5.467  -1.713  0.00  0.00    +0.147 HD
ENDROOT
BRANCH   1  24
ATOM     15  C   UNL     1       1.245  -0.656   0.649  0.00  0.00    +0.001 A 
ATOM     16  C   UNL     1       0.041   0.045   0.668  0.00  0.00    +0.001 A 
ATOM     17  C   UNL     1       0.010   1.390   0.462  0.00  0.00    +0.009 A 
ATOM     18  C   UNL     1       1.209   2.085   0.226  0.00  0.00    -0.009 A 
ATOM     19  C   UNL     1       2.433   1.372   0.207  0.00  0.00    -0.017 A 
ATOM     20  C   UNL     1       2.425  -0.017   0.424  0.00  0.00    +0.008 A 
ATOM     21  C   UNL     1       3.633   2.065  -0.028  0.00  0.00    +0.012 A 
ATOM     22  C   UNL     1       3.606   3.409  -0.234  0.00  0.00    +0.046 A 
ATOM     23  C   UNL     1       2.400   4.115  -0.216  0.00  0.00    +0.122 A 
ATOM     24  C   UNL     1       1.215   3.473   0.010  0.00  0.00    +0.022 A 
BRANCH  23  25
ATOM     25  O   UNL     1       2.405   5.458  -0.425  0.00  0.00    -0.506 OA
ATOM     26  H   UNL     1       2.315   5.712  -1.353  0.00  0.00    +0.292 HD
ENDBRANCH  23  25
ENDBRANCH   1  24
BRANCH   9  27
ATOM     27  C   UNL     1       2.123  10.289   1.333  0.00  0.00    +0.244 C 
ATOM     28  O   UNL     1       2.476  10.347   2.496  0.00  0.00    -0.270 OA
ATOM     29  N   UNL     1       2.217  11.379   0.546  0.00  0.00    -0.309 N 
ATOM     30  H   UNL     1       1.936  11.333  -0.381  0.00  0.00    +0.149 HD
BRANCH  29  31
ATOM     31  C   UNL     1       2.743  12.633   1.091  0.00  0.00    +0.136 C 
BRANCH  31  32
ATOM     32  C   UNL     1       2.742  13.704  -0.003  0.00  0.00    +0.135 C 
ATOM     33  C   UNL     1       3.373  15.012   0.525  0.00  0.00    +0.035 C 
ATOM     34  C   UNL     1       2.529  16.127  -0.132  0.00  0.00    +0.031 C 
ATOM     35  C   UNL     1       1.488  15.361  -0.978  0.00  0.00    +0.160 C 
ATOM     36  O   UNL     1       1.388  14.061  -0.356  0.00  0.00    -0.375 OA
ENDBRANCH  31  32
ENDBRANCH  29  31
ENDBRANCH   9  27
TORSDOF 5
