REMARK  Name = ZINC09674012
REMARK  9 active torsions:
REMARK  status: ('A' for Active; 'I' for Inactive)
REMARK    1  A    between atoms: C_1  and  C_2
REMARK    2  A    between atoms: C_2  and  C_3
REMARK    3  A    between atoms: C_9  and  C_10
REMARK    4  A    between atoms: C_9  and  N_72
REMARK    5  A    between atoms: C_10  and  C_11
REMARK    6  A    between atoms: C_11  and  N_12
REMARK    7  A    between atoms: C_13  and  C_15
REMARK    8  A    between atoms: N_17  and  C_30
REMARK    9  A    between atoms: N_28  and  C_29
REMARK                            x       y       z     vdW  Elec       q    Type
REMARK                         _______ _______ _______ _____ _____    ______ ____
ROOT
ATOM      1  C   UNL     1      -5.725   1.085   5.213  0.00  0.00    +0.063 A 
ATOM      2  C   UNL     1      -7.001   0.819   5.628  0.00  0.00    +0.103 A 
ATOM      3  N   UNL     1      -7.349   0.951   6.929  0.00  0.00    -0.310 N 
ATOM      4  C   UNL     1      -6.476   1.345   7.872  0.00  0.00    +0.276 A 
ATOM      5  O   UNL     1      -6.844   1.447   9.030  0.00  0.00    -0.265 OA
ATOM      6  C   UNL     1      -5.135   1.643   7.537  0.00  0.00    +0.116 A 
ATOM      7  C   UNL     1      -4.737   1.513   6.210  0.00  0.00    +0.026 A 
ATOM      8  C   UNL     1      -3.318   1.872   6.156  0.00  0.00    +0.009 A 
ATOM      9  C   UNL     1      -2.377   1.940   5.127  0.00  0.00    +0.010 A 
ATOM     10  C   UNL     1      -1.093   2.320   5.401  0.00  0.00    +0.001 A 
ATOM     11  C   UNL     1      -0.716   2.641   6.698  0.00  0.00    +0.002 A 
ATOM     12  C   UNL     1      -1.627   2.581   7.728  0.00  0.00    +0.026 A 
ATOM     13  C   UNL     1      -2.941   2.196   7.472  0.00  0.00    +0.050 A 
ATOM     14  N   UNL     1      -4.048   2.058   8.282  0.00  0.00    -0.339 N 
ATOM     15  C   UNL     1      -4.065   2.303   9.726  0.00  0.00    +0.149 C 
ENDROOT
BRANCH   3  16
ATOM     16  C   UNL     1      -8.727   0.653   7.325  0.00  0.00    +0.090 C 
ATOM     17  C   UNL     1      -9.093  -0.790   6.923  0.00  0.00    +0.025 C 
ATOM     18  C   UNL     1     -10.574  -0.698   6.479  0.00  0.00    +0.002 C 
ATOM     19  C   UNL     1     -10.626   0.665   5.744  0.00  0.00    +0.002 C 
ATOM     20  C   UNL     1      -9.702   1.579   6.576  0.00  0.00    +0.025 C 
ENDBRANCH   3  16
BRANCH   1  22
ATOM     21  N   UNL     1      -6.226   0.415   2.918  0.00  0.00    -0.311 N 
ATOM     22  C   UNL     1      -5.349   0.940   3.797  0.00  0.00    +0.246 C 
ATOM     23  O   UNL     1      -4.248   1.293   3.421  0.00  0.00    -0.270 OA
ATOM     24  H   UNL     1      -7.128   0.199   3.202  0.00  0.00    +0.149 HD
BRANCH  21  25
ATOM     25  C   UNL     1      -5.817   0.172   1.532  0.00  0.00    +0.102 C 
BRANCH  25  26
ATOM     26  C   UNL     1      -6.990  -0.423   0.751  0.00  0.00    +0.000 C 
BRANCH  26  27
ATOM     27  C   UNL     1      -6.563  -0.677  -0.696  0.00  0.00    -0.077 C 
BRANCH  27  33
ATOM     28  C   UNL     1      -7.348  -1.410  -2.865  0.00  0.00    -0.069 C 
ATOM     29  C   UNL     1      -8.486  -2.138  -3.585  0.00  0.00    -0.015 C 
ATOM     30  C   UNL     1      -9.776  -1.327  -3.441  0.00  0.00    -0.003 C 
ATOM     31  C   UNL     1     -10.083  -1.130  -1.954  0.00  0.00    -0.019 C 
ATOM     32  C   UNL     1      -8.899  -0.431  -1.281  0.00  0.00    -0.078 C 
ATOM     33  N   UNL     1      -7.694  -1.275  -1.435  0.00  0.00    +0.382 N 
ATOM     34  H   UNL     1      -7.889  -2.206  -1.049  0.00  0.00    -0.081 HD
BRANCH  28  36
ATOM     35  C   UNL     1      -5.652  -2.316  -4.461  0.00  0.00    +0.002 C 
ATOM     36  C   UNL     1      -6.061  -2.228  -2.989  0.00  0.00    -0.019 C 
ENDBRANCH  28  36
ENDBRANCH  27  33
ENDBRANCH  26  27
ENDBRANCH  25  26
ENDBRANCH  21  25
ENDBRANCH   1  22
TORSDOF 7
