REMARK  Name = ZINC09847540
REMARK  10 active torsions:
REMARK  status: ('A' for Active; 'I' for Inactive)
REMARK    1  A    between atoms: C_1  and  C_2
REMARK    2  A    between atoms: C_2  and  C_3
REMARK    3  A    between atoms: C_2  and  C_4
REMARK    4  A    between atoms: C_4  and  N_5
REMARK    5  A    between atoms: C_6  and  C_23
REMARK    6  A    between atoms: C_9  and  S_10
REMARK    7  A    between atoms: S_10  and  C_11
REMARK    8  A    between atoms: C_11  and  C_12
REMARK    9  A    between atoms: N_14  and  C_15
REMARK   10  A    between atoms: C_16  and  C_20
REMARK                            x       y       z     vdW  Elec       q    Type
REMARK                         _______ _______ _______ _____ _____    ______ ____
ROOT
ATOM      1  N   UNL     1       0.093   0.657   1.995  0.00  0.00    -0.302 N 
ATOM      2  C   UNL     1       0.963   1.165   2.932  0.00  0.00    +0.166 A 
ATOM      3  N   UNL     1       1.110   0.246   3.859  0.00  0.00    -0.128 NA
ATOM      4  N   UNL     1       0.402  -0.786   3.569  0.00  0.00    -0.122 NA
ATOM      5  C   UNL     1      -0.244  -0.589   2.442  0.00  0.00    +0.192 A 
ENDROOT
BRANCH   2   6
ATOM      6  C   UNL     1       1.610   2.494   2.902  0.00  0.00    +0.038 A 
ATOM      7  C   UNL     1       1.244   3.429   1.933  0.00  0.00    +0.014 A 
ATOM      8  C   UNL     1       1.847   4.669   1.912  0.00  0.00    +0.021 A 
ATOM      9  C   UNL     1       2.823   4.984   2.844  0.00  0.00    +0.042 A 
ATOM     10  C   UNL     1       3.195   4.059   3.804  0.00  0.00    +0.040 A 
ATOM     11  C   UNL     1       2.594   2.816   3.839  0.00  0.00    +0.053 A 
ATOM     12 CL   UNL     1       3.062   1.657   5.043  0.00  0.00    -0.083 Cl
ATOM     13 CL   UNL     1       3.582   6.545   2.807  0.00  0.00    -0.083 Cl
ENDBRANCH   2   6
BRANCH   1  14
ATOM     14  C   UNL     1      -0.377   1.317   0.774  0.00  0.00    +0.129 C 
BRANCH  14  16
ATOM     15  C   UNL     1      -2.740   1.395   1.582  0.00  0.00    +0.009 C 
ATOM     16  C   UNL     1      -1.552   2.237   1.113  0.00  0.00    +0.003 C 
ATOM     17  C   UNL     1      -1.951   3.033  -0.132  0.00  0.00    +0.009 C 
ENDBRANCH  14  16
ENDBRANCH   1  14
BRANCH   5  18
ATOM     18  S   UNL     1      -1.341  -1.721   1.654  0.00  0.00    -0.077 S 
BRANCH  18  19
ATOM     19  C   UNL     1      -1.266  -3.098   2.826  0.00  0.00    +0.173 C 
BRANCH  19  20
ATOM     20  C   UNL     1      -2.154  -4.217   2.344  0.00  0.00    +0.228 C 
ATOM     21  O   UNL     1      -2.775  -4.095   1.309  0.00  0.00    -0.275 OA
ATOM     22  N   UNL     1      -2.257  -5.352   3.062  0.00  0.00    -0.279 N 
ATOM     23  H   UNL     1      -1.760  -5.450   3.889  0.00  0.00    +0.155 HD
BRANCH  22  24
ATOM     24  C   UNL     1      -3.073  -6.382   2.618  0.00  0.00    +0.084 A 
ATOM     25  C   UNL     1      -3.303  -7.618   3.210  0.00  0.00    +0.065 A 
ATOM     26  C   UNL     1      -4.213  -8.506   2.526  0.00  0.00    +0.022 A 
ATOM     27  C   UNL     1      -4.750  -8.067   1.374  0.00  0.00    +0.048 A 
ATOM     28  S   UNL     1      -4.047  -6.441   1.187  0.00  0.00    -0.081 S 
BRANCH  25  29
ATOM     29  C   UNL     1      -2.656  -8.000   4.469  0.00  0.00    +0.244 C 
ATOM     30  O   UNL     1      -1.896  -7.226   5.022  0.00  0.00    -0.270 OA
ATOM     31  N   UNL     1      -2.903  -9.207   5.014  0.00  0.00    -0.325 N 
ATOM     32  H   UNL     1      -3.509  -9.824   4.574  0.00  0.00    +0.145 HD
ATOM     33  H   UNL     1      -2.475  -9.460   5.847  0.00  0.00    +0.145 HD
ENDBRANCH  25  29
ENDBRANCH  22  24
ENDBRANCH  19  20
ENDBRANCH  18  19
ENDBRANCH   5  18
TORSDOF 8
