REMARK  Name = ZINC02152670
REMARK  7 active torsions:
REMARK  status: ('A' for Active; 'I' for Inactive)
REMARK    1  A    between atoms: C_1  and  C_2
REMARK    2  A    between atoms: C_2  and  C_3
REMARK    3  A    between atoms: C_3  and  C_5
REMARK    4  A    between atoms: C_3  and  N_6
REMARK    5  A    between atoms: C_7  and  C_9
REMARK    6  A    between atoms: C_12  and  N_15
REMARK    7  A    between atoms: C_18  and  C_34
REMARK                            x       y       z     vdW  Elec       q    Type
REMARK                         _______ _______ _______ _____ _____    ______ ____
ROOT
ATOM      1  N   UNL     1      -1.251   9.367   2.283  0.00  0.00    -0.192 N 
ATOM      2  C   UNL     1      -0.227  10.093   1.782  0.00  0.00    +0.257 C 
ATOM      3  O   UNL     1       0.728   9.682   1.158  0.00  0.00    -0.272 OA
ATOM      4  C   UNL     1      -0.524  11.524   2.159  0.00  0.00    +0.153 C 
ATOM      5  C   UNL     1      -0.606  12.419   0.945  0.00  0.00    +0.053 A 
ATOM      6  C   UNL     1      -1.685  13.186   0.669  0.00  0.00    -0.015 A 
ATOM      7  C   UNL     1      -1.377  13.905  -0.555  0.00  0.00    +0.003 A 
ATOM      8  C   UNL     1      -2.098  14.837  -1.308  0.00  0.00    +0.010 A 
ATOM      9  C   UNL     1      -1.490  15.324  -2.439  0.00  0.00    +0.001 A 
ATOM     10  C   UNL     1      -0.224  14.917  -2.827  0.00  0.00    +0.002 A 
ATOM     11  C   UNL     1       0.511  13.996  -2.100  0.00  0.00    +0.026 A 
ATOM     12  C   UNL     1      -0.081  13.486  -0.946  0.00  0.00    +0.047 A 
ATOM     13  N   UNL     1       0.352  12.585  -0.017  0.00  0.00    -0.356 N 
ATOM     14  H   UNL     1       1.209  12.131  -0.037  0.00  0.00    +0.166 HD
ATOM     15  C   UNL     1      -2.960  13.257   1.469  0.00  0.00    +0.056 C 
ATOM     16  C   UNL     1      -2.756  12.626   2.855  0.00  0.00    +0.115 C 
ATOM     17  N   UNL     1      -1.908  11.444   2.685  0.00  0.00    -0.265 N 
ATOM     18  C   UNL     1      -2.179  10.150   2.856  0.00  0.00    +0.317 C 
ATOM     19  O   UNL     1      -3.148   9.730   3.457  0.00  0.00    -0.252 OA
ATOM     20  C   UNL     1       0.459  12.064   3.200  0.00  0.00    +0.048 C 
ENDROOT
BRANCH   1  24
ATOM     21  C   UNL     1      -1.489   5.210   2.088  0.00  0.00    +0.037 A 
ATOM     22  C   UNL     1      -0.454   5.883   1.435  0.00  0.00    +0.015 A 
ATOM     23  C   UNL     1      -0.382   7.257   1.496  0.00  0.00    +0.025 A 
ATOM     24  C   UNL     1      -1.330   7.973   2.218  0.00  0.00    +0.046 A 
ATOM     25  C   UNL     1      -2.358   7.306   2.875  0.00  0.00    +0.025 A 
ATOM     26  C   UNL     1      -2.441   5.933   2.812  0.00  0.00    +0.015 A 
BRANCH  21  28
ATOM     27  N   UNL     1      -0.655   3.042   1.320  0.00  0.00    -0.309 N 
ATOM     28  C   UNL     1      -1.574   3.737   2.019  0.00  0.00    +0.244 C 
ATOM     29  O   UNL     1      -2.473   3.152   2.592  0.00  0.00    -0.270 OA
ATOM     30  H   UNL     1       0.061   3.508   0.863  0.00  0.00    +0.149 HD
BRANCH  27  31
ATOM     31  C   UNL     1      -0.740   1.581   1.251  0.00  0.00    +0.070 C 
ATOM     32  C   UNL     1      -0.054   0.972   2.476  0.00  0.00    +0.028 C 
BRANCH  31  34
ATOM     33  C   UNL     1      -0.804   1.596  -1.246  0.00  0.00    +0.005 C 
ATOM     34  C   UNL     1      -0.043   1.089  -0.019  0.00  0.00    +0.018 C 
ENDBRANCH  31  34
ENDBRANCH  27  31
ENDBRANCH  21  28
ENDBRANCH   1  24
TORSDOF 4
