REMARK  Name = ZINC06044597
REMARK  5 active torsions:
REMARK  status: ('A' for Active; 'I' for Inactive)
REMARK    1  A    between atoms: C_1  and  C_2
REMARK    2  A    between atoms: C_3  and  C_16
REMARK    3  A    between atoms: C_4  and  C_10
REMARK    4  A    between atoms: N_18  and  C_19
REMARK    5  A    between atoms: C_24  and  C_25
REMARK                            x       y       z     vdW  Elec       q    Type
REMARK                         _______ _______ _______ _____ _____    ______ ____
ROOT
ATOM      1  C   UNL     1      -2.145   0.929   1.623  0.00  0.00    +0.061 C 
ATOM      2  C   UNL     1      -1.004   1.609   0.912  0.00  0.00    +0.017 C 
ATOM      3  C   UNL     1      -1.230   2.757   0.239  0.00  0.00    +0.056 C 
ATOM      4  C   UNL     1      -0.056   3.405  -0.466  0.00  0.00    +0.139 C 
ATOM      5  N   UNL     1       1.246   2.727  -0.354  0.00  0.00    -0.315 N 
ATOM      6  C   UNL     1       1.316   1.586   0.360  0.00  0.00    +0.135 C 
ATOM      7  S   UNL     1       2.824   0.787   0.500  0.00  0.00    -0.019 S 
ATOM      8  N   UNL     1       0.244   1.057   0.964  0.00  0.00    -0.300 N 
ATOM      9  H   UNL     1       2.035   3.093  -0.783  0.00  0.00    +0.149 HD
ATOM     10  H   UNL     1       0.360   0.234   1.464  0.00  0.00    +0.154 HD
ENDROOT
BRANCH   4  11
ATOM     11  C   UNL     1       0.098   4.801   0.078  0.00  0.00    -0.023 A 
ATOM     12  C   UNL     1       0.754   5.007   1.277  0.00  0.00    +0.006 A 
ATOM     13  C   UNL     1       0.900   6.289   1.774  0.00  0.00    +0.000 A 
ATOM     14  C   UNL     1       0.381   7.364   1.076  0.00  0.00    +0.000 A 
ATOM     15  C   UNL     1      -0.279   7.157  -0.121  0.00  0.00    +0.000 A 
ATOM     16  C   UNL     1      -0.421   5.876  -0.620  0.00  0.00    +0.006 A 
ENDBRANCH   4  11
BRANCH   3  17
ATOM     17  C   UNL     1      -2.523   3.333   0.189  0.00  0.00    +0.248 C 
ATOM     18  O   UNL     1      -3.171   3.288  -0.841  0.00  0.00    -0.270 OA
ATOM     19  N   UNL     1      -3.036   3.932   1.282  0.00  0.00    -0.281 N 
ATOM     20  H   UNL     1      -2.487   4.052   2.073  0.00  0.00    +0.155 HD
BRANCH  19  21
ATOM     21  C   UNL     1      -4.361   4.381   1.277  0.00  0.00    +0.045 A 
ATOM     22  C   UNL     1      -4.962   4.762   0.084  0.00  0.00    +0.024 A 
ATOM     23  C   UNL     1      -6.270   5.204   0.082  0.00  0.00    +0.002 A 
ATOM     24  C   UNL     1      -6.982   5.267   1.266  0.00  0.00    +0.001 A 
ATOM     25  C   UNL     1      -6.387   4.888   2.455  0.00  0.00    +0.014 A 
ATOM     26  C   UNL     1      -5.080   4.440   2.463  0.00  0.00    +0.076 A 
BRANCH  26  27
ATOM     27  C   UNL     1      -4.434   4.022   3.759  0.00  0.00    +0.419 C 
ATOM     28  F   UNL     1      -5.357   4.150   4.802  0.00  0.00    -0.166 F 
ATOM     29  F   UNL     1      -4.020   2.689   3.664  0.00  0.00    -0.166 F 
ATOM     30  F   UNL     1      -3.327   4.838   4.013  0.00  0.00    -0.166 F 
ENDBRANCH  26  27
ENDBRANCH  19  21
ENDBRANCH   3  17
TORSDOF 4
