REMARK  Name = ZINC39487747
REMARK  9 active torsions:
REMARK  status: ('A' for Active; 'I' for Inactive)
REMARK    1  A    between atoms: C_1  and  C_2
REMARK    2  A    between atoms: C_2  and  C_3
REMARK    3  A    between atoms: C_2  and  C_4
REMARK    4  A    between atoms: C_4  and  C_5
REMARK    5  A    between atoms: C_5  and  C_26
REMARK    6  A    between atoms: N_7  and  O_25
REMARK    7  A    between atoms: N_10  and  C_11
REMARK    8  A    between atoms: C_11  and  C_12
REMARK    9  A    between atoms: C_12  and  C_19
REMARK                            x       y       z     vdW  Elec       q    Type
REMARK                         _______ _______ _______ _____ _____    ______ ____
ROOT
ATOM      1  C   UNL     1      -5.239  -2.494   0.325  0.00  0.00    +0.117 C 
ENDROOT
BRANCH   1   7
ATOM      2  C   UNL     1      -3.820  -2.009   2.460  0.00  0.00    +0.054 C 
ATOM      3  C   UNL     1      -2.578  -1.123   2.671  0.00  0.00    +0.167 C 
ATOM      4  N   UNL     1      -2.319  -0.555   1.339  0.00  0.00    -0.165 N 
ATOM      5  C   UNL     1      -3.238  -1.015   0.479  0.00  0.00    +0.328 C 
ATOM      6  O   UNL     1      -3.260  -0.704  -0.696  0.00  0.00    -0.250 OA
ATOM      7  N   UNL     1      -4.130  -1.847   1.032  0.00  0.00    -0.276 N 
ATOM      8  C   UNL     1      -3.501  -3.471   2.778  0.00  0.00    +0.033 C 
BRANCH   4   9
ATOM      9  O   UNL     1      -1.267   0.335   1.016  0.00  0.00    -0.291 OA
ATOM     10  H   UNL     1      -1.251   0.606   0.088  0.00  0.00    +0.242 HD
ENDBRANCH   4   9
BRANCH   2  11
ATOM     11  C   UNL     1      -4.984  -1.516   3.321  0.00  0.00    +0.030 C 
BRANCH  11  13
ATOM     12  C   UNL     1      -4.550  -0.453   5.541  0.00  0.00    +0.007 C 
ATOM     13  C   UNL     1      -4.677  -1.784   4.796  0.00  0.00    -0.015 C 
ATOM     14  C   UNL     1      -5.810  -2.607   5.412  0.00  0.00    +0.007 C 
ENDBRANCH  11  13
ENDBRANCH   2  11
ENDBRANCH   1   7
BRANCH   1  15
ATOM     15  C   UNL     1      -6.295  -1.446  -0.035  0.00  0.00    -0.008 C 
ATOM     16  C   UNL     1      -5.638  -0.305  -0.816  0.00  0.00    +0.025 C 
ATOM     17  C   UNL     1      -5.063  -0.854  -2.124  0.00  0.00    +0.103 C 
ATOM     18  N   UNL     1      -6.140  -1.459  -2.918  0.00  0.00    -0.219 NA
ATOM     19  C   UNL     1      -6.754  -2.588  -2.207  0.00  0.00    +0.103 C 
ATOM     20  C   UNL     1      -7.380  -2.091  -0.902  0.00  0.00    +0.025 C 
ATOM     21 CL   UNL     1      -5.571  -1.941  -4.457  0.00  0.00    -0.021 Cl
BRANCH  15  22
ATOM     22  C   UNL     1      -6.924  -0.895   1.246  0.00  0.00    -0.003 C 
ATOM     23  C   UNL     1      -7.804  -1.970   1.886  0.00  0.00    +0.004 C 
ATOM     24  C   UNL     1      -8.434  -1.418   3.167  0.00  0.00    +0.000 C 
ATOM     25  C   UNL     1      -9.288  -0.194   2.829  0.00  0.00    +0.000 C 
ATOM     26  C   UNL     1      -8.408   0.881   2.189  0.00  0.00    +0.000 C 
ATOM     27  C   UNL     1      -7.778   0.329   0.908  0.00  0.00    +0.004 C 
ENDBRANCH  15  22
ENDBRANCH   1  15
TORSDOF 6
