REMARK  Name = ZINC02975432
REMARK  10 active torsions:
REMARK  status: ('A' for Active; 'I' for Inactive)
REMARK    1  A    between atoms: C_1  and  O_2
REMARK    2  A    between atoms: O_2  and  C_3
REMARK    3  A    between atoms: C_6  and  C_11
REMARK    4  A    between atoms: C_8  and  O_9
REMARK    5  A    between atoms: O_9  and  C_10
REMARK    6  A    between atoms: C_11  and  C_12
REMARK    7  A    between atoms: C_12  and  N_13
REMARK    8  A    between atoms: C_14  and  C_16
REMARK    9  A    between atoms: C_19  and  C_22
REMARK   10  A    between atoms: C_22  and  N_23
REMARK                            x       y       z     vdW  Elec       q    Type
REMARK                         _______ _______ _______ _____ _____    ______ ____
ROOT
ATOM      1  C   UNL     1      -4.990   2.589   4.095  0.00  0.00    +0.037 A 
ATOM      2  C   UNL     1      -4.249   3.569   3.433  0.00  0.00    +0.013 A 
ATOM      3  C   UNL     1      -3.853   3.364   2.127  0.00  0.00    +0.006 A 
ATOM      4  C   UNL     1      -4.188   2.191   1.475  0.00  0.00    -0.028 A 
ATOM      5  C   UNL     1      -4.927   1.218   2.125  0.00  0.00    +0.006 A 
ATOM      6  C   UNL     1      -5.325   1.408   3.432  0.00  0.00    +0.013 A 
ENDROOT
BRANCH   1   8
ATOM      7  N   UNL     1      -6.134   1.853   6.132  0.00  0.00    -0.311 N 
ATOM      8  C   UNL     1      -5.418   2.801   5.495  0.00  0.00    +0.244 C 
ATOM      9  O   UNL     1      -5.125   3.831   6.070  0.00  0.00    -0.270 OA
ATOM     10  H   UNL     1      -6.399   0.922   5.611  0.00  0.00    +0.149 HD
BRANCH   7  11
ATOM     11  C   UNL     1      -6.558   2.064   7.518  0.00  0.00    +0.109 C 
BRANCH  11  12
ATOM     12  C   UNL     1      -7.349   0.846   8.000  0.00  0.00    +0.054 C 
BRANCH  12  16
ATOM     13  C   UNL     1      -8.582   1.458  12.049  0.00  0.00    +0.161 A 
ATOM     14  C   UNL     1      -7.366   0.852  11.776  0.00  0.00    +0.049 A 
ATOM     15  C   UNL     1      -6.973   0.651  10.466  0.00  0.00    +0.007 A 
ATOM     16  C   UNL     1      -7.785   1.062   9.426  0.00  0.00    -0.042 A 
ATOM     17  C   UNL     1      -9.000   1.667   9.691  0.00  0.00    +0.053 A 
ATOM     18  C   UNL     1      -9.402   1.867  11.002  0.00  0.00    +0.162 A 
BRANCH  13  20
ATOM     19  C   UNL     1      -8.080   1.206  14.360  0.00  0.00    +0.277 C 
ATOM     20  O   UNL     1      -8.973   1.652  13.337  0.00  0.00    -0.491 OA
ENDBRANCH  13  20
BRANCH  18  21
ATOM     21  O   UNL     1     -10.597   2.462  11.265  0.00  0.00    -0.491 OA
ATOM     22  C   UNL     1     -11.386   2.856  10.141  0.00  0.00    +0.277 C 
ENDBRANCH  18  21
ENDBRANCH  12  16
ENDBRANCH  11  12
ENDBRANCH   7  11
ENDBRANCH   1   8
BRANCH   4  23
ATOM     23  C   UNL     1      -3.751   1.975   0.049  0.00  0.00    +0.162 C 
BRANCH  23  24
ATOM     24  N   UNL     1      -2.440   1.322   0.033  0.00  0.00    -0.284 N 
ATOM     25  C   UNL     1      -1.323   2.081   0.032  0.00  0.00    +0.263 A 
ATOM     26  O   UNL     1      -1.394   3.295   0.040  0.00  0.00    -0.267 OA
ATOM     27  C   UNL     1      -0.017   1.403   0.010  0.00  0.00    +0.067 A 
ATOM     28  C   UNL     1       1.180   2.119   0.002  0.00  0.00    +0.065 A 
ATOM     29  C   UNL     1       2.381   1.439  -0.013  0.00  0.00    +0.167 A 
ATOM     30  C   UNL     1       2.399   0.041  -0.021  0.00  0.00    +0.168 A 
ATOM     31  C   UNL     1       1.213  -0.675  -0.014  0.00  0.00    +0.076 A 
ATOM     32  C   UNL     1       0.002  -0.004   0.002  0.00  0.00    +0.057 A 
ATOM     33  N   UNL     1      -1.207  -0.688   0.011  0.00  0.00    -0.334 N 
ATOM     34  H   UNL     1      -1.216  -1.788   0.005  0.00  0.00    +0.168 HD
ATOM     35  C   UNL     1      -2.372  -0.018   0.026  0.00  0.00    +0.161 A 
ATOM     36  S   UNL     1      -3.832  -0.913   0.035  0.00  0.00    -0.013 S 
ATOM     37  O   UNL     1       3.698  -0.376  -0.036  0.00  0.00    -0.453 OA
ATOM     38  C   UNL     1       4.474   0.764   0.377  0.00  0.00    +0.466 C 
ATOM     39  O   UNL     1       3.671   1.891  -0.023  0.00  0.00    -0.453 OA
ENDBRANCH  23  24
ENDBRANCH   4  23
TORSDOF 8
