REMARK  Name = ZINC36539361
REMARK  16 active torsions:
REMARK  status: ('A' for Active; 'I' for Inactive)
REMARK    1  A    between atoms: C_1  and  C_2
REMARK    2  A    between atoms: C_2  and  C_3
REMARK    3  A    between atoms: C_2  and  C_4
REMARK    4  A    between atoms: C_2  and  C_5
REMARK    5  A    between atoms: C_5  and  C_6
REMARK    6  A    between atoms: C_6  and  C_7
REMARK    7  A    between atoms: C_6  and  C_8
REMARK    8  A    between atoms: C_6  and  N_9
REMARK    9  A    between atoms: C_10  and  C_12
REMARK   10  A    between atoms: C_12  and  C_14
REMARK   11  A    between atoms: C_12  and  N_27
REMARK   12  A    between atoms: C_14  and  C_15
REMARK   13  A    between atoms: C_14  and  C_21
REMARK   14  A    between atoms: N_27  and  C_28
REMARK   15  A    between atoms: C_29  and  C_31
REMARK   16  A    between atoms: C_34  and  N_37
REMARK                            x       y       z     vdW  Elec       q    Type
REMARK                         _______ _______ _______ _____ _____    ______ ____
ROOT
ATOM      1  C   UNL     1       3.477  -1.681  -4.594  0.00  0.00    +0.173 C 
ENDROOT
BRANCH   1   3
ATOM      2  N   UNL     1       2.650  -0.551  -2.555  0.00  0.00    -0.309 N 
ATOM      3  C   UNL     1       3.592  -0.635  -3.515  0.00  0.00    +0.235 C 
ATOM      4  O   UNL     1       4.531   0.132  -3.512  0.00  0.00    -0.274 OA
ATOM      5  H   UNL     1       1.944  -1.215  -2.508  0.00  0.00    +0.149 HD
BRANCH   2   6
ATOM      6  C   UNL     1       2.692   0.543  -1.582  0.00  0.00    +0.030 C 
ATOM      7  C   UNL     1       2.402   1.868  -2.291  0.00  0.00    +0.031 C 
ATOM      8  C   UNL     1       4.079   0.602  -0.939  0.00  0.00    +0.031 C 
BRANCH   6   9
ATOM      9  C   UNL     1       1.637   0.304  -0.499  0.00  0.00    +0.031 C 
BRANCH   9  11
ATOM     10  C   UNL     1       3.276  -0.548   1.184  0.00  0.00    +0.010 C 
ATOM     11  C   UNL     1       2.043  -0.902   0.350  0.00  0.00    -0.036 C 
ATOM     12  C   UNL     1       2.370  -2.084  -0.566  0.00  0.00    +0.010 C 
ATOM     13  C   UNL     1       0.890  -1.282   1.280  0.00  0.00    +0.010 C 
ENDBRANCH   9  11
ENDBRANCH   6   9
ENDBRANCH   2   6
ENDBRANCH   1   3
BRANCH   1  14
ATOM     14  N   UNL     1       4.776  -1.852  -5.249  0.00  0.00    -0.288 N 
ATOM     15  C   UNL     1       5.411  -0.717  -5.924  0.00  0.00    +0.133 C 
ATOM     16  C   UNL     1       5.388  -3.053  -5.231  0.00  0.00    +0.247 C 
ATOM     17  O   UNL     1       4.898  -3.975  -4.609  0.00  0.00    -0.270 OA
BRANCH  16  18
ATOM     18  C   UNL     1       6.654  -3.248  -5.969  0.00  0.00    +0.037 A 
ATOM     19  C   UNL     1       7.660  -2.284  -5.903  0.00  0.00    +0.015 A 
ATOM     20  C   UNL     1       8.839  -2.473  -6.593  0.00  0.00    +0.033 A 
ATOM     21  C   UNL     1       9.025  -3.615  -7.351  0.00  0.00    +0.126 A 
ATOM     22  C   UNL     1       8.031  -4.575  -7.421  0.00  0.00    +0.033 A 
ATOM     23  C   UNL     1       6.850  -4.402  -6.731  0.00  0.00    +0.015 A 
BRANCH  21  24
ATOM     24  N   UNL     1      10.293  -3.812  -8.090  0.00  0.00    +0.056 N 
ATOM     25  O   UNL     1      11.163  -2.974  -8.030  0.00  0.00    -0.126 OA
ATOM     26  O   UNL     1      10.458  -4.809  -8.753  0.00  0.00    -0.126 OA
ENDBRANCH  21  24
ENDBRANCH  16  18
ENDBRANCH   1  14
BRANCH   1  27
ATOM     27  C   UNL     1       2.439  -1.238  -5.626  0.00  0.00    +0.078 C 
BRANCH  27  28
ATOM     28  C   UNL     1       2.385  -2.243  -6.748  0.00  0.00    -0.038 A 
ATOM     29  C   UNL     1       2.437  -3.595  -6.468  0.00  0.00    +0.004 A 
ATOM     30  C   UNL     1       2.388  -4.517  -7.497  0.00  0.00    +0.000 A 
ATOM     31  C   UNL     1       2.287  -4.087  -8.806  0.00  0.00    +0.000 A 
ATOM     32  C   UNL     1       2.234  -2.734  -9.087  0.00  0.00    +0.000 A 
ATOM     33  C   UNL     1       2.279  -1.812  -8.057  0.00  0.00    +0.004 A 
ENDBRANCH  27  28
BRANCH  27  34
ATOM     34  C   UNL     1       1.085  -1.145  -4.970  0.00  0.00    -0.038 A 
ATOM     35  C   UNL     1       0.463  -2.288  -4.505  0.00  0.00    +0.004 A 
ATOM     36  C   UNL     1      -0.778  -2.203  -3.903  0.00  0.00    +0.000 A 
ATOM     37  C   UNL     1      -1.397  -0.975  -3.766  0.00  0.00    +0.000 A 
ATOM     38  C   UNL     1      -0.775   0.169  -4.231  0.00  0.00    +0.000 A 
ATOM     39  C   UNL     1       0.469   0.084  -4.829  0.00  0.00    +0.004 A 
ENDBRANCH  27  34
ENDBRANCH   1  27
TORSDOF 10
