REMARK  Name = ZINC39684099
REMARK  6 active torsions:
REMARK  status: ('A' for Active; 'I' for Inactive)
REMARK    1  A    between atoms: C_1  and  C_2
REMARK    2  A    between atoms: C_7  and  C_11
REMARK    3  A    between atoms: C_11  and  C_12
REMARK    4  A    between atoms: C_12  and  N_13
REMARK    5  A    between atoms: C_14  and  C_16
REMARK    6  A    between atoms: C_27  and  C_29
REMARK                            x       y       z     vdW  Elec       q    Type
REMARK                         _______ _______ _______ _____ _____    ______ ____
ROOT
ATOM      1  C   UNL     1      -8.826   1.365  -5.630  0.00  0.00    +0.100 C 
ATOM      2  C   UNL     1     -10.088   2.028  -5.032  0.00  0.00    +0.121 C 
ATOM      3  N   UNL     1     -11.196   1.580  -5.908  0.00  0.00    -0.296 N 
ATOM      4  C   UNL     1     -10.880   0.163  -6.207  0.00  0.00    +0.115 C 
ATOM      5  C   UNL     1      -9.350   0.141  -6.399  0.00  0.00    -0.004 C 
ATOM      6  C   UNL     1      -8.764  -1.141  -5.815  0.00  0.00    -0.010 C 
ATOM      7  C   UNL     1      -9.254  -2.339  -6.633  0.00  0.00    -0.082 C 
ATOM      8  N   UNL     1      -8.839  -2.181  -8.033  0.00  0.00    +0.379 N 
ATOM      9  C   UNL     1      -9.482  -0.996  -8.614  0.00  0.00    -0.082 C 
ATOM     10  C   UNL     1      -9.002   0.259  -7.880  0.00  0.00    -0.010 C 
ATOM     11  C   UNL     1     -12.253   2.299  -6.335  0.00  0.00    +0.247 C 
ATOM     12  O   UNL     1     -12.309   3.492  -6.109  0.00  0.00    -0.270 OA
ATOM     13  H   UNL     1      -7.837  -2.073  -8.075  0.00  0.00    -0.086 HD
ATOM     14  H   UNL     1      -9.109  -3.000  -8.557  0.00  0.00    -0.086 HD
ENDROOT
BRANCH  11  15
ATOM     15  C   UNL     1     -13.345   1.636  -7.080  0.00  0.00    +0.040 A 
ATOM     16  C   UNL     1     -13.524   0.255  -6.980  0.00  0.00    +0.033 A 
ATOM     17  C   UNL     1     -14.546  -0.358  -7.677  0.00  0.00    +0.043 A 
ATOM     18  C   UNL     1     -15.392   0.394  -8.474  0.00  0.00    +0.040 A 
ATOM     19  C   UNL     1     -15.220   1.764  -8.578  0.00  0.00    +0.043 A 
ATOM     20  C   UNL     1     -14.206   2.389  -7.880  0.00  0.00    +0.033 A 
ATOM     21 CL   UNL     1     -16.285   2.698  -9.580  0.00  0.00    -0.083 Cl
ATOM     22 CL   UNL     1     -14.769  -2.075  -7.555  0.00  0.00    -0.083 Cl
ENDBRANCH  11  15
BRANCH   1  24
ATOM     23  N   UNL     1      -6.561   0.905  -4.750  0.00  0.00    -0.315 N 
ATOM     24  C   UNL     1      -7.890   0.933  -4.530  0.00  0.00    +0.218 C 
ATOM     25  O   UNL     1      -8.334   0.610  -3.449  0.00  0.00    -0.275 OA
ATOM     26  H   UNL     1      -6.206   1.163  -5.615  0.00  0.00    +0.149 HD
BRANCH  23  27
ATOM     27  C   UNL     1      -5.651   0.484  -3.681  0.00  0.00    +0.109 C 
BRANCH  27  28
ATOM     28  C   UNL     1      -4.208   0.542  -4.188  0.00  0.00    +0.056 C 
BRANCH  28  35
ATOM     29  C   UNL     1      -0.520  -2.259   0.040  0.00  0.00    +0.046 C 
ATOM     30  C   UNL     1      -1.472  -2.337  -1.125  0.00  0.00    -0.027 A 
ATOM     31  C   UNL     1      -1.816  -3.561  -1.656  0.00  0.00    +0.005 A 
ATOM     32  C   UNL     1      -2.692  -3.647  -2.729  0.00  0.00    +0.001 A 
ATOM     33  C   UNL     1      -3.229  -2.517  -3.278  0.00  0.00    +0.010 A 
ATOM     34  C   UNL     1      -2.895  -1.266  -2.756  0.00  0.00    +0.003 A 
ATOM     35  C   UNL     1      -3.272   0.110  -3.088  0.00  0.00    -0.021 A 
ATOM     36  C   UNL     1      -2.626   0.913  -2.228  0.00  0.00    +0.087 A 
ATOM     37  N   UNL     1      -1.866   0.163  -1.372  0.00  0.00    -0.360 N 
ATOM     38  C   UNL     1      -2.012  -1.174  -1.665  0.00  0.00    +0.050 A 
ATOM     39  H   UNL     1      -1.309   0.521  -0.663  0.00  0.00    +0.165 HD
ENDBRANCH  28  35
ENDBRANCH  27  28
ENDBRANCH  23  27
ENDBRANCH   1  24
TORSDOF 5
