REMARK  Name = ZINC15729964
REMARK  6 active torsions:
REMARK  status: ('A' for Active; 'I' for Inactive)
REMARK    1  A    between atoms: C_1  and  C_2
REMARK    2  A    between atoms: C_2  and  C_3
REMARK    3  A    between atoms: C_8  and  N_9
REMARK    4  A    between atoms: N_12  and  C_13
REMARK    5  A    between atoms: C_15  and  C_26
REMARK    6  A    between atoms: C_23  and  C_25
REMARK                            x       y       z     vdW  Elec       q    Type
REMARK                         _______ _______ _______ _____ _____    ______ ____
ROOT
ATOM      1  C   UNL     1      -5.623   3.828   0.059  0.00  0.00    +0.036 A 
ATOM      2  C   UNL     1      -5.776   2.581   0.662  0.00  0.00    +0.028 A 
ATOM      3  C   UNL     1      -4.773   1.664   0.664  0.00  0.00    -0.022 A 
ATOM      4  C   UNL     1      -3.530   1.944   0.050  0.00  0.00    +0.083 A 
ATOM      5  C   UNL     1      -3.403   3.216  -0.554  0.00  0.00    +0.043 A 
ATOM      6  C   UNL     1      -4.417   4.140  -0.554  0.00  0.00    +0.040 A 
ATOM      7  S   UNL     1      -1.745   3.168  -1.191  0.00  0.00    -0.052 S 
ATOM      8  C   UNL     1      -1.338   1.518  -0.635  0.00  0.00    +0.165 A 
ATOM      9  N   UNL     1      -2.445   1.143  -0.039  0.00  0.00    -0.224 NA
ATOM     10  N   UNL     1      -0.156   0.814  -0.797  0.00  0.00    -0.265 N 
ATOM     11  C   UNL     1       0.878   1.373  -1.456  0.00  0.00    +0.216 C 
ATOM     12  O   UNL     1       0.775   2.496  -1.903  0.00  0.00    -0.276 OA
ATOM     13  C   UNL     1       2.161   0.604  -1.638  0.00  0.00    +0.109 C 
ATOM     14  C   UNL     1      -4.988   0.329   1.331  0.00  0.00    +0.046 C 
ATOM     15  H   UNL     1      -0.074  -0.084  -0.439  0.00  0.00    +0.157 HD
ENDROOT
BRANCH   1  19
ATOM     16  N   UNL     1      -7.418   6.958   0.276  0.00  0.00    -0.269 N 
ATOM     17  C   UNL     1      -6.407   6.073   0.171  0.00  0.00    +0.308 C 
ATOM     18  O   UNL     1      -5.256   6.463   0.164  0.00  0.00    -0.252 OA
ATOM     19  N   UNL     1      -6.673   4.755   0.072  0.00  0.00    -0.269 N 
ATOM     20  H   UNL     1      -8.333   6.644   0.348  0.00  0.00    +0.156 HD
ATOM     21  H   UNL     1      -7.592   4.449   0.010  0.00  0.00    +0.156 HD
BRANCH  16  27
ATOM     22  C   UNL     1      -8.040   9.219  -0.304  0.00  0.00    -0.026 A 
ATOM     23  C   UNL     1      -7.770  10.574  -0.297  0.00  0.00    +0.005 A 
ATOM     24  C   UNL     1      -6.613  11.046   0.295  0.00  0.00    +0.000 A 
ATOM     25  C   UNL     1      -5.723  10.165   0.881  0.00  0.00    +0.002 A 
ATOM     26  C   UNL     1      -5.989   8.810   0.881  0.00  0.00    +0.023 A 
ATOM     27  C   UNL     1      -7.148   8.332   0.283  0.00  0.00    +0.038 A 
BRANCH  22  29
ATOM     28  C   UNL     1     -10.389   8.545   0.115  0.00  0.00    +0.009 C 
ATOM     29  C   UNL     1      -9.301   8.705  -0.949  0.00  0.00    +0.033 C 
ENDBRANCH  22  29
ENDBRANCH  16  27
ENDBRANCH   1  19
TORSDOF 3
