REMARK  Name = ZINC38815257
REMARK  7 active torsions:
REMARK  status: ('A' for Active; 'I' for Inactive)
REMARK    1  A    between atoms: C_1  and  O_2
REMARK    2  A    between atoms: O_2  and  C_3
REMARK    3  A    between atoms: C_7  and  C_10
REMARK    4  A    between atoms: C_8  and  O_9
REMARK    5  A    between atoms: N_11  and  N_12
REMARK    6  A    between atoms: C_13  and  C_15
REMARK    7  A    between atoms: C_18  and  C_21
REMARK                            x       y       z     vdW  Elec       q    Type
REMARK                         _______ _______ _______ _____ _____    ______ ____
ROOT
ATOM      1  C   UNL     1      -0.472  -8.470  -0.007  0.00  0.00    +0.240 C 
ATOM      2  C   UNL     1      -0.693  -8.987  -1.417  0.00  0.00    +0.041 C 
ATOM      3  C   UNL     1       0.391  -9.753  -1.654  0.00  0.00    +0.092 C 
ATOM      4  N   UNL     1       1.216  -9.753  -0.573  0.00  0.00    -0.153 NA
ATOM      5  N   UNL     1       0.814  -9.073   0.379  0.00  0.00    -0.170 NA
ENDROOT
BRANCH   3   6
ATOM      6  C   UNL     1       0.648 -10.490  -2.913  0.00  0.00    +0.010 A 
ATOM      7  C   UNL     1      -0.309 -10.534  -3.917  0.00  0.00    +0.011 A 
ATOM      8  C   UNL     1      -0.095 -11.219  -5.111  0.00  0.00    +0.005 A 
ATOM      9  C   UNL     1       1.078 -11.877  -5.332  0.00  0.00    -0.039 A 
ATOM     10  C   UNL     1       2.050 -11.845  -4.337  0.00  0.00    -0.011 A 
ATOM     11  C   UNL     1       1.875 -11.161  -3.122  0.00  0.00    -0.008 A 
ATOM     12  C   UNL     1       2.925 -11.190  -2.193  0.00  0.00    +0.009 A 
ATOM     13  C   UNL     1       4.066 -11.873  -2.510  0.00  0.00    +0.001 A 
ATOM     14  C   UNL     1       4.221 -12.541  -3.726  0.00  0.00    +0.004 A 
ATOM     15  C   UNL     1       3.216 -12.541  -4.644  0.00  0.00    -0.039 A 
ATOM     16  C   UNL     1       3.039 -13.132  -6.021  0.00  0.00    +0.040 C 
ATOM     17  C   UNL     1       1.630 -12.695  -6.475  0.00  0.00    +0.040 C 
ENDBRANCH   3   6
BRANCH   1  19
ATOM     18  N   UNL     1      -1.500  -6.220   0.001  0.00  0.00    -0.205 N 
ATOM     19  C   UNL     1      -0.377  -6.966  -0.001  0.00  0.00    +0.263 C 
ATOM     20  O   UNL     1       0.710  -6.427   0.003  0.00  0.00    -0.271 OA
ATOM     21  H   UNL     1      -2.369  -6.651  -0.002  0.00  0.00    +0.177 HD
BRANCH  18  23
ATOM     22  C   UNL     1      -2.492  -4.103   0.008  0.00  0.00    +0.142 C 
ATOM     23  N   UNL     1      -1.411  -4.822   0.007  0.00  0.00    -0.188 NA
BRANCH  22  28
ATOM     24  C   UNL     1      -1.071  -0.619   0.025  0.00  0.00    +0.162 A 
ATOM     25  C   UNL     1      -2.232   0.139   0.026  0.00  0.00    +0.049 A 
ATOM     26  C   UNL     1      -3.470  -0.479   0.022  0.00  0.00    +0.004 A 
ATOM     27  C   UNL     1      -3.561  -1.856   0.016  0.00  0.00    +0.013 A 
ATOM     28  C   UNL     1      -2.400  -2.632   0.014  0.00  0.00    +0.040 A 
ATOM     29  C   UNL     1      -1.147  -2.006   0.013  0.00  0.00    +0.167 A 
BRANCH  24  31
ATOM     30  C   UNL     1       0.145   1.425   0.043  0.00  0.00    +0.277 C 
ATOM     31  O   UNL     1       0.142  -0.004   0.031  0.00  0.00    -0.491 OA
ENDBRANCH  24  31
BRANCH  29  32
ATOM     32  O   UNL     1      -0.011  -2.752   0.007  0.00  0.00    -0.503 OA
ATOM     33  H   UNL     1       0.318  -2.976   0.888  0.00  0.00    +0.292 HD
ENDBRANCH  29  32
ENDBRANCH  22  28
ENDBRANCH  18  23
ENDBRANCH   1  19
TORSDOF 6
