REMARK  Name = ZINC65356727
REMARK  21 active torsions:
REMARK  status: ('A' for Active; 'I' for Inactive)
REMARK    1  A    between atoms: C_1  and  C_2
REMARK    2  A    between atoms: C_2  and  C_3
REMARK    3  A    between atoms: C_3  and  C_4
REMARK    4  A    between atoms: C_4  and  C_5
REMARK    5  A    between atoms: C_5  and  C_6
REMARK    6  A    between atoms: C_7  and  C_8
REMARK    7  A    between atoms: C_8  and  C_9
REMARK    8  A    between atoms: C_10  and  C_11
REMARK    9  A    between atoms: C_11  and  C_12
REMARK   10  A    between atoms: C_13  and  C_14
REMARK   11  A    between atoms: C_14  and  C_15
REMARK   12  A    between atoms: C_16  and  C_17
REMARK   13  A    between atoms: C_17  and  C_18
REMARK   14  A    between atoms: C_18  and  C_19
REMARK   15  A    between atoms: C_19  and  C_20
REMARK   16  A    between atoms: C_20  and  N_21
REMARK   17  A    between atoms: N_21  and  C_22
REMARK   18  A    between atoms: C_22  and  C_23
REMARK   19  A    between atoms: C_23  and  C_24
REMARK   20  A    between atoms: C_31  and  O_34
REMARK   21  A    between atoms: O_34  and  C_35
REMARK                            x       y       z     vdW  Elec       q    Type
REMARK                         _______ _______ _______ _____ _____    ______ ____
ROOT
ATOM      1  C   UNL     1      -5.637 -10.643  -7.771  0.00  0.00    -0.019 C 
ENDROOT
BRANCH   1   2
ATOM      2  C   UNL     1      -6.167  -9.271  -7.348  0.00  0.00    +0.002 C 
BRANCH   2   3
ATOM      3  C   UNL     1      -5.609  -8.198  -8.285  0.00  0.00    +0.027 C 
BRANCH   3   5
ATOM      4  C   UNL     1      -5.296  -5.858  -7.662  0.00  0.00    -0.027 C 
ATOM      5  C   UNL     1      -6.130  -6.847  -7.868  0.00  0.00    -0.031 C 
BRANCH   4   6
ATOM      6  C   UNL     1      -3.836  -6.021  -7.997  0.00  0.00    +0.053 C 
BRANCH   6   8
ATOM      7  C   UNL     1      -2.360  -4.168  -8.589  0.00  0.00    -0.027 C 
ATOM      8  C   UNL     1      -3.401  -4.899  -8.904  0.00  0.00    -0.027 C 
BRANCH   7   9
ATOM      9  C   UNL     1      -1.495  -4.556  -7.418  0.00  0.00    +0.053 C 
BRANCH   9  11
ATOM     10  C   UNL     1       0.866  -3.965  -7.224  0.00  0.00    -0.027 C 
ATOM     11  C   UNL     1      -0.057  -4.640  -7.862  0.00  0.00    -0.027 C 
BRANCH  10  12
ATOM     12  C   UNL     1       0.522  -3.236  -5.951  0.00  0.00    +0.053 C 
BRANCH  12  14
ATOM     13  C   UNL     1       2.147  -2.719  -4.203  0.00  0.00    -0.031 C 
ATOM     14  C   UNL     1       1.488  -3.637  -4.865  0.00  0.00    -0.027 C 
BRANCH  13  15
ATOM     15  C   UNL     1       1.823  -1.262  -4.410  0.00  0.00    +0.027 C 
BRANCH  15  16
ATOM     16  C   UNL     1       1.563  -0.600  -3.055  0.00  0.00    +0.004 C 
BRANCH  16  17
ATOM     17  C   UNL     1       1.234   0.879  -3.264  0.00  0.00    +0.000 C 
BRANCH  17  19
ATOM     18  C   UNL     1       0.645   3.020  -2.118  0.00  0.00    +0.004 C 
ATOM     19  C   UNL     1       0.975   1.541  -1.909  0.00  0.00    -0.003 C 
ENDBRANCH  17  19
ENDBRANCH  16  17
ENDBRANCH  15  16
ENDBRANCH  13  15
ENDBRANCH  12  14
ENDBRANCH  10  12
ENDBRANCH   9  11
ENDBRANCH   7   9
ENDBRANCH   6   8
ENDBRANCH   4   6
ENDBRANCH   3   5
ENDBRANCH   2   3
ENDBRANCH   1   2
BRANCH   1  20
ATOM     20  C   UNL     1      -6.196 -11.716  -6.835  0.00  0.00    -0.083 C 
BRANCH  20  21
ATOM     21  N   UNL     1      -5.687 -13.033  -7.241  0.00  0.00    +0.379 N 
ATOM     22  H   UNL     1      -5.978 -13.229  -8.187  0.00  0.00    -0.086 HD
ATOM     23  H   UNL     1      -4.679 -13.035  -7.192  0.00  0.00    -0.086 HD
BRANCH  21  24
ATOM     24  C   UNL     1      -6.223 -14.064  -6.342  0.00  0.00    -0.078 C 
BRANCH  24  25
ATOM     25  C   UNL     1      -5.693 -15.435  -6.765  0.00  0.00    +0.018 C 
BRANCH  25  26
ATOM     26  C   UNL     1      -6.243 -16.493  -5.842  0.00  0.00    -0.024 A 
ATOM     27  C   UNL     1      -5.643 -16.988  -4.748  0.00  0.00    +0.087 A 
ATOM     28  N   UNL     1      -6.443 -17.931  -4.164  0.00  0.00    -0.360 N 
ATOM     29  H   UNL     1      -6.223 -18.428  -3.360  0.00  0.00    +0.165 HD
ATOM     30  C   UNL     1      -7.609 -18.069  -4.887  0.00  0.00    +0.047 A 
ATOM     31  C   UNL     1      -7.536 -17.170  -5.966  0.00  0.00    +0.006 A 
ATOM     32  C   UNL     1      -8.592 -17.085  -6.876  0.00  0.00    +0.056 A 
ATOM     33  C   UNL     1      -9.704 -17.885  -6.707  0.00  0.00    +0.121 A 
ATOM     34  C   UNL     1      -9.775 -18.772  -5.636  0.00  0.00    +0.047 A 
ATOM     35  C   UNL     1      -8.737 -18.869  -4.737  0.00  0.00    +0.030 A 
BRANCH  33  36
ATOM     36  O   UNL     1     -10.735 -17.806  -7.591  0.00  0.00    -0.495 OA
ATOM     37  C   UNL     1     -11.856 -18.662  -7.358  0.00  0.00    +0.277 C 
ENDBRANCH  33  36
ENDBRANCH  25  26
ENDBRANCH  24  25
ENDBRANCH  21  24
ENDBRANCH  20  21
ENDBRANCH   1  20
TORSDOF 19
