REMARK  Name = ZINC08742101
REMARK  5 active torsions:
REMARK  status: ('A' for Active; 'I' for Inactive)
REMARK    1  A    between atoms: C_1  and  C_2
REMARK    2  A    between atoms: C_2  and  S_3
REMARK    3  A    between atoms: S_3  and  C_4
REMARK    4  A    between atoms: C_17  and  C_20
REMARK    5  A    between atoms: C_25  and  O_26
REMARK                            x       y       z     vdW  Elec       q    Type
REMARK                         _______ _______ _______ _____ _____    ______ ____
ROOT
ATOM      1  C   UNL     1       1.032  -4.945  -0.067  0.00  0.00    +0.212 A 
ATOM      2  N   UNL     1       0.250  -4.308   0.800  0.00  0.00    -0.184 NA
ATOM      3  C   UNL     1       0.332  -2.992   0.898  0.00  0.00    +0.248 A 
ATOM      4  C   UNL     1       1.248  -2.304   0.070  0.00  0.00    +0.156 A 
ATOM      5  N   UNL     1       1.999  -2.999  -0.770  0.00  0.00    -0.141 NA
ATOM      6  N   UNL     1       1.890  -4.281  -0.832  0.00  0.00    -0.122 NA
ATOM      7  C   UNL     1       1.347  -0.833   0.157  0.00  0.00    +0.028 A 
ATOM      8  C   UNL     1       2.576  -0.191   0.244  0.00  0.00    +0.012 A 
ATOM      9  C   UNL     1       2.628   1.188   0.299  0.00  0.00    +0.001 A 
ATOM     10  C   UNL     1       1.463   1.935   0.268  0.00  0.00    +0.002 A 
ATOM     11  C   UNL     1       0.233   1.309   0.187  0.00  0.00    +0.024 A 
ATOM     12  C   UNL     1       0.164  -0.070   0.136  0.00  0.00    +0.039 A 
ATOM     13  N   UNL     1      -1.064  -0.738   0.083  0.00  0.00    -0.305 N 
ATOM     14  C   UNL     1      -1.494  -1.515   1.241  0.00  0.00    +0.297 C 
ATOM     15  O   UNL     1      -0.433  -2.300   1.775  0.00  0.00    -0.449 OA
ATOM     16  H   UNL     1      -1.619  -0.686  -0.711  0.00  0.00    +0.150 HD
ENDROOT
BRANCH  14  17
ATOM     17  C   UNL     1      -1.992  -0.573   2.306  0.00  0.00    +0.053 A 
ATOM     18  C   UNL     1      -1.154  -0.188   3.335  0.00  0.00    +0.027 A 
ATOM     19  C   UNL     1      -1.609   0.681   4.311  0.00  0.00    +0.014 A 
ATOM     20  C   UNL     1      -2.907   1.158   4.264  0.00  0.00    +0.018 A 
ATOM     21  C   UNL     1      -3.749   0.771   3.241  0.00  0.00    +0.047 A 
ATOM     22  C   UNL     1      -3.293  -0.096   2.258  0.00  0.00    +0.125 A 
ATOM     23  I   UNL     1      -0.333   1.268   5.865  0.00  0.00    -0.044 I 
BRANCH  22  24
ATOM     24  O   UNL     1      -4.121  -0.478   1.250  0.00  0.00    -0.506 OA
ATOM     25  H   UNL     1      -4.631  -1.277   1.441  0.00  0.00    +0.292 HD
ENDBRANCH  22  24
ENDBRANCH  14  17
BRANCH   1  26
ATOM     26  S   UNL     1       0.926  -6.698  -0.203  0.00  0.00    -0.085 S 
BRANCH  26  28
ATOM     27  C   UNL     1       2.259  -8.489  -1.779  0.00  0.00    +0.016 C 
ATOM     28  C   UNL     1       2.171  -6.990  -1.485  0.00  0.00    +0.074 C 
ENDBRANCH  26  28
ENDBRANCH   1  26
TORSDOF 4
