REMARK  Name = ZINC63804292
REMARK  14 active torsions:
REMARK  status: ('A' for Active; 'I' for Inactive)
REMARK    1  A    between atoms: C_1  and  C_2
REMARK    2  A    between atoms: C_4  and  C_37
REMARK    3  A    between atoms: C_9  and  N_23
REMARK    4  A    between atoms: N_10  and  C_11
REMARK    5  A    between atoms: C_11  and  C_13
REMARK    6  A    between atoms: C_15  and  O_21
REMARK    7  A    between atoms: C_17  and  O_19
REMARK    8  A    between atoms: O_19  and  C_20
REMARK    9  A    between atoms: O_21  and  C_22
REMARK   10  A    between atoms: N_23  and  C_24
REMARK   11  A    between atoms: C_24  and  C_25
REMARK   12  A    between atoms: C_25  and  C_26
REMARK   13  A    between atoms: C_29  and  O_35
REMARK   14  A    between atoms: O_35  and  C_36
REMARK                            x       y       z     vdW  Elec       q    Type
REMARK                         _______ _______ _______ _____ _____    ______ ____
ROOT
ATOM      1  C   UNL     1      -0.379  -6.660   5.809  0.00  0.00    +0.066 C 
ATOM      2  C   UNL     1      -0.376  -6.132   4.398  0.00  0.00    +0.044 A 
ATOM      3  C   UNL     1      -0.356  -7.006   3.322  0.00  0.00    +0.046 A 
ATOM      4  C   UNL     1      -0.354  -6.479   2.040  0.00  0.00    +0.044 A 
ATOM      5  N   UNL     1      -0.371  -5.166   1.883  0.00  0.00    -0.217 NA
ATOM      6  C   UNL     1      -0.390  -4.358   2.932  0.00  0.00    +0.231 A 
ATOM      7  N   UNL     1      -0.397  -4.829   4.170  0.00  0.00    -0.217 NA
ATOM      8  N   UNL     1      -0.406  -2.985   2.730  0.00  0.00    -0.295 N 
ATOM      9  C   UNL     1      -0.310  -2.135   3.797  0.00  0.00    +0.218 C 
ATOM     10  N   UNL     1      -0.084  -2.618   5.009  0.00  0.00    -0.141 NA
ATOM     11  C   UNL     1      -0.333  -7.391   0.841  0.00  0.00    +0.066 C 
ATOM     12  H   UNL     1      -0.487  -2.628   1.831  0.00  0.00    +0.172 HD
ENDROOT
BRANCH  10  13
ATOM     13  C   UNL     1       0.101  -1.782   6.039  0.00  0.00    +0.270 C 
ATOM     14  O   UNL     1      -0.032  -0.581   5.881  0.00  0.00    -0.268 OA
BRANCH  13  15
ATOM     15  C   UNL     1       0.468  -2.317   7.371  0.00  0.00    +0.046 A 
ATOM     16  C   UNL     1       0.743  -3.675   7.527  0.00  0.00    +0.059 A 
ATOM     17  C   UNL     1       1.085  -4.171   8.774  0.00  0.00    +0.124 A 
ATOM     18  C   UNL     1       1.154  -3.320   9.866  0.00  0.00    +0.091 A 
ATOM     19  C   UNL     1       0.881  -1.968   9.715  0.00  0.00    +0.124 A 
ATOM     20  C   UNL     1       0.544  -1.463   8.470  0.00  0.00    +0.059 A 
BRANCH  19  21
ATOM     21  O   UNL     1       0.950  -1.137  10.789  0.00  0.00    -0.495 OA
ATOM     22  C   UNL     1       1.310  -1.724  12.041  0.00  0.00    +0.277 C 
ENDBRANCH  19  21
BRANCH  17  23
ATOM     23  O   UNL     1       1.353  -5.495   8.927  0.00  0.00    -0.495 OA
ATOM     24  C   UNL     1       1.699  -5.939  10.240  0.00  0.00    +0.277 C 
ENDBRANCH  17  23
ENDBRANCH  13  15
ENDBRANCH  10  13
BRANCH   9  25
ATOM     25  N   UNL     1      -0.446  -0.791   3.613  0.00  0.00    -0.252 NA
BRANCH  25  26
ATOM     26  C   UNL     1      -0.805  -0.265   2.293  0.00  0.00    +0.149 C 
BRANCH  26  27
ATOM     27  C   UNL     1      -0.772   1.264   2.328  0.00  0.00    +0.056 C 
BRANCH  27  28
ATOM     28  C   UNL     1      -1.259   1.807   1.009  0.00  0.00    -0.040 C 
ATOM     29  C   UNL     1      -2.514   2.209   0.709  0.00  0.00    +0.002 A 
ATOM     30  C   UNL     1      -3.756   2.261   1.488  0.00  0.00    +0.055 A 
ATOM     31  C   UNL     1      -4.889   2.724   0.908  0.00  0.00    +0.121 A 
ATOM     32  C   UNL     1      -4.924   3.161  -0.428  0.00  0.00    +0.047 A 
ATOM     33  C   UNL     1      -3.834   3.151  -1.224  0.00  0.00    +0.029 A 
ATOM     34  C   UNL     1      -2.552   2.671  -0.698  0.00  0.00    +0.043 A 
ATOM     35  N   UNL     1      -1.368   2.558  -1.246  0.00  0.00    -0.380 N 
ATOM     36  C   UNL     1      -0.440   2.017  -0.245  0.00  0.00    +0.144 C 
ATOM     37  H   UNL     1      -1.141   2.795  -2.158  0.00  0.00    +0.160 HD
BRANCH  31  38
ATOM     38  O   UNL     1      -6.032   2.765   1.642  0.00  0.00    -0.495 OA
ATOM     39  C   UNL     1      -7.204   3.260   0.990  0.00  0.00    +0.277 C 
ENDBRANCH  31  38
ENDBRANCH  27  28
ENDBRANCH  26  27
ENDBRANCH  25  26
ENDBRANCH   9  25
TORSDOF 9
