REMARK  Name = ZINC37427475
REMARK  15 active torsions:
REMARK  status: ('A' for Active; 'I' for Inactive)
REMARK    1  A    between atoms: C_1  and  C_2
REMARK    2  A    between atoms: C_2  and  C_3
REMARK    3  A    between atoms: C_3  and  N_4
REMARK    4  A    between atoms: C_5  and  C_7
REMARK    5  A    between atoms: C_7  and  N_8
REMARK    6  A    between atoms: C_11  and  C_22
REMARK    7  A    between atoms: N_13  and  C_14
REMARK    8  A    between atoms: C_18  and  C_21
REMARK    9  A    between atoms: C_19  and  C_20
REMARK   10  A    between atoms: C_22  and  C_23
REMARK   11  A    between atoms: C_22  and  C_24
REMARK   12  A    between atoms: C_22  and  C_25
REMARK   13  A    between atoms: C_26  and  C_32
REMARK   14  A    between atoms: C_37  and  O_38
REMARK   15  A    between atoms: O_38  and  C_39
REMARK                            x       y       z     vdW  Elec       q    Type
REMARK                         _______ _______ _______ _____ _____    ______ ____
ROOT
ATOM      1  N   UNL     1      -1.098  -1.050  -5.467  0.00  0.00    -0.246 N 
ATOM      2  C   UNL     1      -0.562  -2.318  -5.738  0.00  0.00    +0.136 A 
ATOM      3  C   UNL     1       0.194  -2.599  -6.825  0.00  0.00    +0.034 A 
ATOM      4  C   UNL     1       0.553  -3.946  -6.760  0.00  0.00    +0.075 A 
ATOM      5  N   UNL     1       0.029  -4.459  -5.673  0.00  0.00    -0.169 NA
ATOM      6  N   UNL     1      -0.685  -3.450  -5.007  0.00  0.00    -0.217 N 
ATOM      7  C   UNL     1       0.560  -1.608  -7.899  0.00  0.00    +0.115 C 
ATOM      8  S   UNL     1       1.817  -0.460  -7.231  0.00  0.00    -0.138 S 
ATOM      9  C   UNL     1       1.197  -0.166  -5.541  0.00  0.00    +0.166 C 
ATOM     10  C   UNL     1      -0.292   0.014  -5.551  0.00  0.00    +0.231 C 
ATOM     11  O   UNL     1      -0.768   1.127  -5.631  0.00  0.00    -0.274 OA
ENDROOT
BRANCH   6  12
ATOM     12  C   UNL     1      -1.395  -3.590  -3.807  0.00  0.00    +0.071 A 
ATOM     13  C   UNL     1      -1.095  -2.777  -2.721  0.00  0.00    +0.028 A 
ATOM     14  C   UNL     1      -1.796  -2.917  -1.540  0.00  0.00    +0.002 A 
ATOM     15  C   UNL     1      -2.797  -3.866  -1.437  0.00  0.00    +0.004 A 
ATOM     16  C   UNL     1      -3.099  -4.677  -2.515  0.00  0.00    -0.046 A 
ATOM     17  C   UNL     1      -2.405  -4.537  -3.702  0.00  0.00    -0.022 A 
ATOM     18  C   UNL     1      -2.739  -5.417  -4.879  0.00  0.00    +0.046 C 
ATOM     19  C   UNL     1      -4.190  -5.710  -2.398  0.00  0.00    +0.044 C 
ENDBRANCH   6  12
BRANCH   7  20
ATOM     20  C   UNL     1       1.119  -2.338  -9.093  0.00  0.00    +0.012 A 
ATOM     21  C   UNL     1       2.460  -2.668  -9.135  0.00  0.00    +0.008 A 
ATOM     22  C   UNL     1       2.974  -3.338 -10.230  0.00  0.00    +0.001 A 
ATOM     23  C   UNL     1       2.148  -3.679 -11.285  0.00  0.00    +0.004 A 
ATOM     24  C   UNL     1       0.807  -3.352 -11.247  0.00  0.00    +0.046 A 
ATOM     25  C   UNL     1       0.287  -2.685 -10.147  0.00  0.00    +0.125 A 
BRANCH  25  26
ATOM     26  O   UNL     1      -1.033  -2.366 -10.106  0.00  0.00    -0.495 OA
ATOM     27  C   UNL     1      -1.847  -2.831 -11.184  0.00  0.00    +0.277 C 
ENDBRANCH  25  26
ENDBRANCH   7  20
BRANCH   4  28
ATOM     28  C   UNL     1       1.398  -4.685  -7.766  0.00  0.00    +0.007 C 
ATOM     29  C   UNL     1       2.857  -4.244  -7.628  0.00  0.00    +0.017 C 
ATOM     30  C   UNL     1       1.294  -6.190  -7.512  0.00  0.00    +0.017 C 
ATOM     31  C   UNL     1       0.901  -4.370  -9.178  0.00  0.00    +0.017 C 
ENDBRANCH   4  28
BRANCH   1  32
ATOM     32  C   UNL     1      -2.509  -0.895  -5.106  0.00  0.00    +0.210 C 
BRANCH  32  34
ATOM     33  N   UNL     1      -4.642  -0.384  -6.248  0.00  0.00    -0.314 N 
ATOM     34  C   UNL     1      -3.311  -0.571  -6.340  0.00  0.00    +0.231 C 
ATOM     35  O   UNL     1      -2.758  -0.479  -7.415  0.00  0.00    -0.274 OA
ATOM     36  H   UNL     1      -5.085  -0.457  -5.388  0.00  0.00    +0.149 HD
BRANCH  33  37
ATOM     37  C   UNL     1      -5.422  -0.069  -7.448  0.00  0.00    +0.104 C 
BRANCH  37  39
ATOM     38  C   UNL     1      -7.710   0.422  -8.324  0.00  0.00    +0.005 C 
ATOM     39  C   UNL     1      -6.896   0.093  -7.071  0.00  0.00    +0.015 C 
ENDBRANCH  37  39
ENDBRANCH  33  37
ENDBRANCH  32  34
ENDBRANCH   1  32
TORSDOF 8
