REMARK  Name = ZINC37063397
REMARK  8 active torsions:
REMARK  status: ('A' for Active; 'I' for Inactive)
REMARK    1  A    between atoms: C_1  and  C_2
REMARK    2  A    between atoms: C_5  and  N_22
REMARK    3  A    between atoms: C_6  and  S_9
REMARK    4  A    between atoms: C_7  and  C_8
REMARK    5  A    between atoms: S_9  and  N_12
REMARK    6  A    between atoms: C_17  and  C_19
REMARK    7  A    between atoms: C_19  and  C_20
REMARK    8  A    between atoms: C_20  and  O_21
REMARK                            x       y       z     vdW  Elec       q    Type
REMARK                         _______ _______ _______ _____ _____    ______ ____
ROOT
ATOM      1  S   UNL     1       0.452  -3.233   3.865  0.00  0.00    +0.063 S 
ATOM      2  O   UNL     1       0.246  -4.370   3.038  0.00  0.00    -0.153 OA
ATOM      3  O   UNL     1       0.145  -1.913   3.435  0.00  0.00    -0.153 OA
ENDROOT
BRANCH   1   9
ATOM      4  C   UNL     1      -2.927  -1.655   7.525  0.00  0.00    +0.044 C 
ATOM      5  C   UNL     1      -2.022  -2.735   6.991  0.00  0.00    -0.046 A 
ATOM      6  C   UNL     1      -1.917  -3.940   7.662  0.00  0.00    +0.005 A 
ATOM      7  C   UNL     1      -1.089  -4.933   7.176  0.00  0.00    +0.025 A 
ATOM      8  C   UNL     1      -0.361  -4.720   6.012  0.00  0.00    +0.052 A 
ATOM      9  C   UNL     1      -0.469  -3.508   5.341  0.00  0.00    +0.129 A 
ATOM     10  C   UNL     1      -1.304  -2.522   5.830  0.00  0.00    -0.019 A 
ATOM     11  C   UNL     1      -1.427  -1.210   5.099  0.00  0.00    +0.046 C 
BRANCH   8  12
ATOM     12  N   UNL     1       0.478  -5.721   5.518  0.00  0.00    -0.356 N 
ATOM     13  H   UNL     1       0.728  -6.467   6.084  0.00  0.00    +0.142 HD
ATOM     14  H   UNL     1       0.810  -5.670   4.608  0.00  0.00    +0.142 HD
ENDBRANCH   8  12
ENDBRANCH   1   9
BRANCH   1  15
ATOM     15  N   UNL     1       2.055  -3.234   4.280  0.00  0.00    -0.173 NA
ATOM     16  C   UNL     1       2.914  -4.377   3.944  0.00  0.00    +0.110 C 
ATOM     17  C   UNL     1       3.608  -4.865   5.219  0.00  0.00    +0.017 C 
ATOM     18  C   UNL     1       4.346  -3.695   5.873  0.00  0.00    +0.003 C 
ATOM     19  C   UNL     1       3.341  -2.606   6.256  0.00  0.00    +0.021 C 
ATOM     20  C   UNL     1       2.646  -2.090   4.987  0.00  0.00    +0.082 C 
BRANCH  20  21
ATOM     21  C   UNL     1       1.545  -1.099   5.370  0.00  0.00    +0.048 C 
BRANCH  21  22
ATOM     22  C   UNL     1       2.141   0.021   6.225  0.00  0.00    +0.157 C 
BRANCH  22  23
ATOM     23  O   UNL     1       1.132   0.991   6.511  0.00  0.00    -0.395 OA
ATOM     24  H   UNL     1       1.457   1.768   6.986  0.00  0.00    +0.209 HD
ENDBRANCH  22  23
ENDBRANCH  21  22
ENDBRANCH  20  21
ENDBRANCH   1  15
TORSDOF 6
