REMARK  Name = ZINC39655896
REMARK  8 active torsions:
REMARK  status: ('A' for Active; 'I' for Inactive)
REMARK    1  A    between atoms: C_1  and  C_2
REMARK    2  A    between atoms: C_8  and  C_11
REMARK    3  A    between atoms: C_11  and  C_12
REMARK    4  A    between atoms: C_12  and  N_13
REMARK    5  A    between atoms: C_14  and  C_16
REMARK    6  A    between atoms: C_27  and  C_29
REMARK    7  A    between atoms: C_32  and  O_35
REMARK    8  A    between atoms: O_35  and  C_36
REMARK                            x       y       z     vdW  Elec       q    Type
REMARK                         _______ _______ _______ _____ _____    ______ ____
ROOT
ATOM      1  C   UNL     1       5.239   0.111  -7.690  0.00  0.00    +0.100 C 
ATOM      2  C   UNL     1       5.995   0.457  -6.388  0.00  0.00    +0.121 C 
ATOM      3  N   UNL     1       6.365  -0.857  -5.811  0.00  0.00    -0.296 N 
ATOM      4  C   UNL     1       6.751  -1.679  -6.982  0.00  0.00    +0.115 C 
ATOM      5  C   UNL     1       5.740  -1.290  -8.079  0.00  0.00    -0.004 C 
ATOM      6  C   UNL     1       6.428  -1.246  -9.440  0.00  0.00    -0.010 C 
ATOM      7  C   UNL     1       6.866  -2.660  -9.831  0.00  0.00    -0.082 C 
ATOM      8  N   UNL     1       5.693  -3.541  -9.882  0.00  0.00    +0.379 N 
ATOM      9  C   UNL     1       5.092  -3.651  -8.547  0.00  0.00    -0.082 C 
ATOM     10  C   UNL     1       4.579  -2.279  -8.101  0.00  0.00    -0.010 C 
ATOM     11  C   UNL     1       6.354  -1.222  -4.513  0.00  0.00    +0.247 C 
ATOM     12  O   UNL     1       5.891  -0.473  -3.675  0.00  0.00    -0.270 OA
ATOM     13  H   UNL     1       5.015  -3.160 -10.524  0.00  0.00    -0.086 HD
ATOM     14  H   UNL     1       5.975  -4.457 -10.199  0.00  0.00    -0.086 HD
ENDROOT
BRANCH  11  15
ATOM     15  C   UNL     1       6.904  -2.531  -4.110  0.00  0.00    +0.037 A 
ATOM     16  C   UNL     1       7.809  -3.196  -4.940  0.00  0.00    +0.016 A 
ATOM     17  C   UNL     1       8.320  -4.417  -4.560  0.00  0.00    +0.047 A 
ATOM     18  C   UNL     1       7.936  -4.988  -3.352  0.00  0.00    +0.130 A 
ATOM     19  C   UNL     1       7.036  -4.329  -2.523  0.00  0.00    +0.047 A 
ATOM     20  C   UNL     1       6.524  -3.105  -2.894  0.00  0.00    +0.016 A 
BRANCH  18  21
ATOM     21  O   UNL     1       8.441  -6.191  -2.981  0.00  0.00    -0.406 OA
BRANCH  21  22
ATOM     22  C   UNL     1       8.004  -6.720  -1.728  0.00  0.00    +0.575 C 
ATOM     23  F   UNL     1       6.615  -6.886  -1.750  0.00  0.00    -0.133 F 
ATOM     24  F   UNL     1       8.618  -7.957  -1.504  0.00  0.00    -0.133 F 
ATOM     25  F   UNL     1       8.351  -5.835  -0.702  0.00  0.00    -0.133 F 
ENDBRANCH  21  22
ENDBRANCH  18  21
ENDBRANCH  11  15
BRANCH   1  27
ATOM     26  N   UNL     1       2.896   0.284  -8.464  0.00  0.00    -0.315 N 
ATOM     27  C   UNL     1       3.752   0.087  -7.443  0.00  0.00    +0.218 C 
ATOM     28  O   UNL     1       3.327  -0.111  -6.324  0.00  0.00    -0.275 OA
ATOM     29  H   UNL     1       3.236   0.442  -9.359  0.00  0.00    +0.149 HD
BRANCH  26  30
ATOM     30  C   UNL     1       1.451   0.260  -8.224  0.00  0.00    +0.109 C 
BRANCH  30  31
ATOM     31  C   UNL     1       0.710   0.509  -9.539  0.00  0.00    +0.056 C 
BRANCH  31  39
ATOM     32  C   UNL     1      -2.072   5.191  -7.763  0.00  0.00    +0.044 C 
ATOM     33  C   UNL     1      -2.358   3.753  -8.113  0.00  0.00    -0.050 A 
ATOM     34  C   UNL     1      -3.656   3.269  -8.025  0.00  0.00    +0.005 A 
ATOM     35  C   UNL     1      -3.939   1.958  -8.340  0.00  0.00    +0.026 A 
ATOM     36  C   UNL     1      -2.917   1.109  -8.751  0.00  0.00    +0.047 A 
ATOM     37  N   UNL     1      -2.876  -0.215  -9.125  0.00  0.00    -0.360 N 
ATOM     38  C   UNL     1      -1.593  -0.570  -9.443  0.00  0.00    +0.087 A 
ATOM     39  C   UNL     1      -0.776   0.484  -9.292  0.00  0.00    -0.021 A 
ATOM     40  C   UNL     1      -1.603   1.606  -8.839  0.00  0.00    +0.003 A 
ATOM     41  C   UNL     1      -1.339   2.939  -8.520  0.00  0.00    +0.013 A 
ATOM     42  H   UNL     1      -3.643  -0.809  -9.158  0.00  0.00    +0.165 HD
ENDBRANCH  31  39
ENDBRANCH  30  31
ENDBRANCH  26  30
ENDBRANCH   1  27
TORSDOF 7
