REMARK  Name = ZINC09947380
REMARK  6 active torsions:
REMARK  status: ('A' for Active; 'I' for Inactive)
REMARK    1  A    between atoms: C_4  and  C_7
REMARK    2  A    between atoms: C_7  and  N_8
REMARK    3  A    between atoms: C_21  and  S_22
REMARK    4  A    between atoms: S_22  and  C_23
REMARK    5  A    between atoms: C_23  and  C_24
REMARK    6  A    between atoms: N_26  and  C_27
REMARK                            x       y       z     vdW  Elec       q    Type
REMARK                         _______ _______ _______ _____ _____    ______ ____
ROOT
ATOM      1  N   UNL     1       0.022  -0.500   1.381  0.00  0.00    -0.272 N 
ATOM      2  C   UNL     1      -1.143  -0.740   2.016  0.00  0.00    +0.263 A 
ATOM      3  O   UNL     1      -2.205  -0.548   1.455  0.00  0.00    -0.267 OA
ATOM      4  C   UNL     1      -1.107  -1.239   3.403  0.00  0.00    +0.064 A 
ATOM      5  C   UNL     1      -2.280  -1.505   4.107  0.00  0.00    +0.015 A 
ATOM      6  C   UNL     1      -2.205  -1.971   5.403  0.00  0.00    +0.001 A 
ATOM      7  C   UNL     1      -0.973  -2.176   6.004  0.00  0.00    +0.002 A 
ATOM      8  C   UNL     1       0.196  -1.916   5.317  0.00  0.00    +0.027 A 
ATOM      9  C   UNL     1       0.140  -1.447   4.013  0.00  0.00    +0.064 A 
ATOM     10  N   UNL     1       1.304  -1.177   3.297  0.00  0.00    -0.256 N 
ATOM     11  C   UNL     1       1.238  -0.720   2.009  0.00  0.00    +0.240 A 
ATOM     12  N   UNL     1       2.469  -0.548   1.581  0.00  0.00    -0.109 NA
ATOM     13  N   UNL     1       3.344  -0.911   2.612  0.00  0.00    -0.120 NA
ATOM     14  C   UNL     1       2.624  -1.288   3.640  0.00  0.00    +0.198 A 
ENDROOT
BRANCH   1  15
ATOM     15  C   UNL     1       0.002  -0.004   0.002  0.00  0.00    +0.163 C 
BRANCH  15  19
ATOM     16  C   UNL     1      -0.056   4.267   0.025  0.00  0.00    +0.000 A 
ATOM     17  C   UNL     1       1.151   3.592   0.010  0.00  0.00    +0.000 A 
ATOM     18  C   UNL     1       1.169   2.210   0.003  0.00  0.00    +0.005 A 
ATOM     19  C   UNL     1      -0.018   1.503   0.010  0.00  0.00    -0.028 A 
ATOM     20  C   UNL     1      -1.225   2.178   0.020  0.00  0.00    +0.005 A 
ATOM     21  C   UNL     1      -1.244   3.560   0.032  0.00  0.00    +0.000 A 
ENDBRANCH  15  19
ENDBRANCH   1  15
BRANCH  14  22
ATOM     22  S   UNL     1       3.248  -1.840   5.193  0.00  0.00    -0.076 S 
BRANCH  22  23
ATOM     23  C   UNL     1       5.049  -1.753   4.999  0.00  0.00    +0.173 C 
BRANCH  23  24
ATOM     24  C   UNL     1       5.714  -2.205   6.274  0.00  0.00    +0.224 C 
ATOM     25  O   UNL     1       5.040  -2.551   7.220  0.00  0.00    -0.275 OA
ATOM     26  N   UNL     1       7.059  -2.224   6.362  0.00  0.00    -0.312 N 
ATOM     27  H   UNL     1       7.599  -1.947   5.605  0.00  0.00    +0.149 HD
BRANCH  26  28
ATOM     28  C   UNL     1       7.706  -2.663   7.601  0.00  0.00    +0.073 C 
ATOM     29  C   UNL     1       7.877  -1.467   8.560  0.00  0.00    +0.022 C 
ATOM     30  C   UNL     1       9.245  -1.719   9.241  0.00  0.00    +0.002 C 
ATOM     31  C   UNL     1      10.100  -2.297   8.086  0.00  0.00    +0.002 C 
ATOM     32  C   UNL     1       9.120  -3.191   7.299  0.00  0.00    +0.022 C 
ENDBRANCH  26  28
ENDBRANCH  23  24
ENDBRANCH  22  23
ENDBRANCH  14  22
TORSDOF 6
