REMARK  Name = ZINC11996718
REMARK  6 active torsions:
REMARK  status: ('A' for Active; 'I' for Inactive)
REMARK    1  A    between atoms: C_1  and  C_2
REMARK    2  A    between atoms: C_3  and  C_16
REMARK    3  A    between atoms: C_16  and  C_18
REMARK    4  A    between atoms: C_16  and  N_19
REMARK    5  A    between atoms: N_22  and  C_23
REMARK    6  A    between atoms: C_23  and  C_24
REMARK                            x       y       z     vdW  Elec       q    Type
REMARK                         _______ _______ _______ _____ _____    ______ ____
ROOT
ATOM      1  C   UNL     1      -6.161   4.055   1.575  0.00  0.00    +0.066 C 
ATOM      2  C   UNL     1      -5.136   3.753   0.512  0.00  0.00    +0.048 A 
ATOM      3  C   UNL     1      -4.824   4.700  -0.451  0.00  0.00    +0.012 A 
ATOM      4  C   UNL     1      -3.877   4.381  -1.411  0.00  0.00    +0.121 A 
ATOM      5  N   UNL     1      -3.302   3.190  -1.379  0.00  0.00    -0.222 NA
ATOM      6  C   UNL     1      -3.623   2.308  -0.445  0.00  0.00    +0.218 A 
ATOM      7  N   UNL     1      -4.528   2.579   0.484  0.00  0.00    -0.219 NA
ATOM      8  N   UNL     1      -3.002   1.071  -0.442  0.00  0.00    -0.300 N 
ATOM      9  C   UNL     1      -1.998   0.741  -1.463  0.00  0.00    +0.108 C 
ATOM     10  C   UNL     1      -0.757   1.596  -1.238  0.00  0.00    +0.019 C 
ATOM     11  C   UNL     1      -0.013   1.086   0.008  0.00  0.00    +0.002 C 
ATOM     12  C   UNL     1      -0.727   1.578   1.262  0.00  0.00    +0.000 C 
ATOM     13  C   UNL     1      -1.336   0.398   2.041  0.00  0.00    +0.002 C 
ATOM     14  C   UNL     1      -2.032  -0.557   1.070  0.00  0.00    +0.019 C 
ATOM     15  C   UNL     1      -3.334   0.084   0.572  0.00  0.00    +0.108 C 
ENDROOT
BRANCH   3  16
ATOM     16  C   UNL     1      -5.500   6.047  -0.454  0.00  0.00    +0.105 C 
ATOM     17  C   UNL     1      -4.760   6.991   0.495  0.00  0.00    +0.033 C 
BRANCH  16  18
ATOM     18  N   UNL     1      -5.478   6.601  -1.810  0.00  0.00    -0.293 N 
ATOM     19  C   UNL     1      -6.410   7.500  -2.185  0.00  0.00    +0.300 C 
ATOM     20  O   UNL     1      -7.268   7.851  -1.399  0.00  0.00    -0.253 OA
ATOM     21  N   UNL     1      -6.389   8.010  -3.433  0.00  0.00    -0.296 N 
ATOM     22  H   UNL     1      -4.793   6.321  -2.437  0.00  0.00    +0.151 HD
ATOM     23  H   UNL     1      -5.704   7.730  -4.060  0.00  0.00    +0.151 HD
BRANCH  21  24
ATOM     24  C   UNL     1      -7.401   8.987  -3.841  0.00  0.00    +0.132 C 
BRANCH  24  25
ATOM     25  C   UNL     1      -7.157   9.396  -5.271  0.00  0.00    -0.016 C 
ATOM     26  C   UNL     1      -8.114   9.281  -6.158  0.00  0.00    +0.005 C 
ENDBRANCH  24  25
ENDBRANCH  21  24
ENDBRANCH  16  18
ENDBRANCH   3  16
TORSDOF 4
