REMARK  Name = ZINC36609695
REMARK  14 active torsions:
REMARK  status: ('A' for Active; 'I' for Inactive)
REMARK    1  A    between atoms: C_1  and  C_2
REMARK    2  A    between atoms: C_2  and  C_3
REMARK    3  A    between atoms: C_3  and  C_4
REMARK    4  A    between atoms: C_4  and  C_5
REMARK    5  A    between atoms: C_5  and  C_6
REMARK    6  A    between atoms: C_6  and  C_8
REMARK    7  A    between atoms: C_6  and  N_22
REMARK    8  A    between atoms: N_10  and  C_11
REMARK    9  A    between atoms: C_11  and  S_12
REMARK   10  A    between atoms: S_12  and  C_15
REMARK   11  A    between atoms: C_18  and  C_21
REMARK   12  A    between atoms: N_22  and  C_23
REMARK   13  A    between atoms: C_29  and  C_31
REMARK   14  A    between atoms: C_32  and  C_33
REMARK                            x       y       z     vdW  Elec       q    Type
REMARK                         _______ _______ _______ _____ _____    ______ ____
ROOT
ATOM      1  C   UNL     1      -3.007  -4.415   0.045  0.00  0.00    +0.168 C 
ENDROOT
BRANCH   1   2
ATOM      2  C   UNL     1      -4.245  -5.256   0.221  0.00  0.00    +0.235 C 
ATOM      3  O   UNL     1      -4.373  -5.949   1.208  0.00  0.00    -0.274 OA
ATOM      4  N   UNL     1      -5.211  -5.238  -0.720  0.00  0.00    -0.295 N 
ATOM      5  H   UNL     1      -5.109  -4.684  -1.509  0.00  0.00    +0.150 HD
BRANCH   4   6
ATOM      6  C   UNL     1      -6.414  -6.056  -0.549  0.00  0.00    +0.278 C 
BRANCH   6   7
ATOM      7  S   UNL     1      -7.727  -5.051   0.199  0.00  0.00    +0.013 S 
ATOM      8  O   UNL     1      -8.921  -5.813   0.312  0.00  0.00    -0.168 OA
ATOM      9  O   UNL     1      -7.217  -4.332   1.313  0.00  0.00    -0.168 OA
BRANCH   7  10
ATOM     10  C   UNL     1      -8.093  -3.817  -1.004  0.00  0.00    +0.090 A 
ATOM     11  C   UNL     1      -7.407  -2.617  -0.994  0.00  0.00    +0.027 A 
ATOM     12  C   UNL     1      -7.695  -1.649  -1.938  0.00  0.00    +0.005 A 
ATOM     13  C   UNL     1      -8.668  -1.881  -2.892  0.00  0.00    -0.050 A 
ATOM     14  C   UNL     1      -9.354  -3.081  -2.902  0.00  0.00    +0.005 A 
ATOM     15  C   UNL     1      -9.063  -4.051  -1.961  0.00  0.00    +0.027 A 
ATOM     16  C   UNL     1      -8.983  -0.825  -3.920  0.00  0.00    +0.044 C 
ENDBRANCH   7  10
ENDBRANCH   6   7
ENDBRANCH   4   6
ENDBRANCH   1   2
BRANCH   1  17
ATOM     17  N   UNL     1      -2.119  -4.608   1.194  0.00  0.00    -0.249 N 
ATOM     18  C   UNL     1      -0.842  -4.993   1.001  0.00  0.00    +0.296 C 
ATOM     19  O   UNL     1      -0.453  -5.272  -0.118  0.00  0.00    -0.260 OA
BRANCH  17  20
ATOM     20  C   UNL     1      -2.595  -4.394   2.490  0.00  0.00    +0.038 A 
ATOM     21  C   UNL     1      -2.880  -3.104   2.923  0.00  0.00    +0.023 A 
ATOM     22  C   UNL     1      -3.351  -2.896   4.204  0.00  0.00    +0.002 A 
ATOM     23  C   UNL     1      -3.540  -3.969   5.056  0.00  0.00    +0.000 A 
ATOM     24  C   UNL     1      -3.258  -5.253   4.629  0.00  0.00    +0.002 A 
ATOM     25  C   UNL     1      -2.792  -5.469   3.347  0.00  0.00    +0.023 A 
ENDBRANCH  17  20
BRANCH  18  26
ATOM     26  C   UNL     1       0.058  -5.074   2.112  0.00  0.00    -0.002 C 
ATOM     27  C   UNL     1       0.795  -5.140   3.023  0.00  0.00    -0.057 C 
BRANCH  27  28
ATOM     28  C   UNL     1       1.695  -5.221   4.135  0.00  0.00    +0.025 A 
ATOM     29  C   UNL     1       1.250  -4.906   5.423  0.00  0.00    +0.017 A 
ATOM     30  C   UNL     1       2.122  -4.987   6.488  0.00  0.00    +0.001 A 
ATOM     31  C   UNL     1       3.434  -5.377   6.284  0.00  0.00    +0.000 A 
ATOM     32  C   UNL     1       3.882  -5.690   5.013  0.00  0.00    +0.001 A 
ATOM     33  C   UNL     1       3.021  -5.620   3.938  0.00  0.00    +0.017 A 
ENDBRANCH  27  28
ENDBRANCH  18  26
ENDBRANCH   1  17
BRANCH   1  34
ATOM     34  C   UNL     1      -3.402  -2.940  -0.051  0.00  0.00    +0.032 C 
BRANCH  34  35
ATOM     35  C   UNL     1      -2.157  -2.095  -0.329  0.00  0.00    +0.002 C 
BRANCH  35  36
ATOM     36  C   UNL     1      -2.552  -0.621  -0.425  0.00  0.00    -0.000 C 
BRANCH  36  38
ATOM     37  C   UNL     1      -1.701   1.699  -0.799  0.00  0.00    +0.004 C 
ATOM     38  C   UNL     1      -1.306   0.224  -0.703  0.00  0.00    -0.003 C 
ENDBRANCH  36  38
ENDBRANCH  35  36
ENDBRANCH  34  35
ENDBRANCH   1  34
TORSDOF 12
