REMARK  Name = ZINC21714294
REMARK  9 active torsions:
REMARK  status: ('A' for Active; 'I' for Inactive)
REMARK    1  A    between atoms: C_1  and  C_2
REMARK    2  A    between atoms: C_2  and  C_3
REMARK    3  A    between atoms: C_3  and  C_5
REMARK    4  A    between atoms: C_3  and  N_6
REMARK    5  A    between atoms: C_7  and  C_9
REMARK    6  A    between atoms: C_17  and  C_20
REMARK    7  A    between atoms: C_23  and  C_26
REMARK    8  A    between atoms: C_26  and  C_27
REMARK    9  A    between atoms: C_26  and  C_28
REMARK                            x       y       z     vdW  Elec       q    Type
REMARK                         _______ _______ _______ _____ _____    ______ ____
ROOT
ATOM      1  C   UNL     1      -5.914   6.984   8.283  0.00  0.00    +0.078 C 
ATOM      2  C   UNL     1      -5.018   6.028   9.075  0.00  0.00    +0.032 C 
ATOM      3  C   UNL     1      -4.683   4.814   8.206  0.00  0.00    +0.110 C 
ATOM      4  N   UNL     1      -3.998   5.258   6.985  0.00  0.00    -0.283 N 
ATOM      5  C   UNL     1      -4.856   6.140   6.185  0.00  0.00    +0.110 C 
ATOM      6  C   UNL     1      -5.197   7.394   6.994  0.00  0.00    +0.032 C 
ATOM      7  C   UNL     1      -3.568   4.184   6.244  0.00  0.00    +0.317 A 
ATOM      8  N   UNL     1      -2.914   4.231   5.098  0.00  0.00    -0.174 NA
ATOM      9  C   UNL     1      -2.709   2.943   4.747  0.00  0.00    +0.204 A 
ATOM     10  N   UNL     1      -3.231   2.196   5.685  0.00  0.00    -0.054 NA
ATOM     11  O   UNL     1      -3.726   2.888   6.548  0.00  0.00    -0.316 OA
ENDROOT
BRANCH   9  12
ATOM     12  C   UNL     1      -2.014   2.465   3.526  0.00  0.00    +0.023 A 
ATOM     13  C   UNL     1      -1.869   1.099   3.294  0.00  0.00    +0.012 A 
ATOM     14  C   UNL     1      -1.222   0.659   2.157  0.00  0.00    +0.004 A 
ATOM     15  C   UNL     1      -0.718   1.572   1.248  0.00  0.00    -0.045 A 
ATOM     16  C   UNL     1      -0.854   2.929   1.476  0.00  0.00    +0.004 A 
ATOM     17  C   UNL     1      -1.504   3.380   2.607  0.00  0.00    +0.012 A 
BRANCH  15  18
ATOM     18  C   UNL     1      -0.013   1.086   0.008  0.00  0.00    +0.013 C 
ATOM     19  C   UNL     1       1.423   1.615  -0.003  0.00  0.00    +0.012 C 
ATOM     20  C   UNL     1      -0.753   1.593  -1.232  0.00  0.00    +0.012 C 
ENDBRANCH  15  18
ENDBRANCH   9  12
BRANCH   1  22
ATOM     21  N   UNL     1      -6.972   9.196   8.615  0.00  0.00    -0.313 N 
ATOM     22  C   UNL     1      -6.198   8.210   9.112  0.00  0.00    +0.216 C 
ATOM     23  O   UNL     1      -5.731   8.310  10.227  0.00  0.00    -0.276 OA
ATOM     24  H   UNL     1      -7.396   9.105   7.604  0.00  0.00    +0.149 HD
BRANCH  21  25
ATOM     25  C   UNL     1      -7.248  10.387   9.421  0.00  0.00    +0.070 C 
ATOM     26  C   UNL     1      -6.109  11.395   9.249  0.00  0.00    +0.028 C 
BRANCH  25  28
ATOM     27  C   UNL     1      -9.719  10.061   9.248  0.00  0.00    +0.005 C 
ATOM     28  C   UNL     1      -8.563  11.021   8.961  0.00  0.00    +0.018 C 
ENDBRANCH  25  28
ENDBRANCH  21  25
ENDBRANCH   1  22
TORSDOF 5
