REMARK  Name = ZINC05453464
REMARK  8 active torsions:
REMARK  status: ('A' for Active; 'I' for Inactive)
REMARK    1  A    between atoms: C_1  and  C_2
REMARK    2  A    between atoms: C_2  and  C_3
REMARK    3  A    between atoms: C_3  and  C_5
REMARK    4  A    between atoms: C_3  and  C_6
REMARK    5  A    between atoms: C_11  and  N_12
REMARK    6  A    between atoms: C_13  and  C_15
REMARK    7  A    between atoms: C_15  and  S_16
REMARK    8  A    between atoms: S_16  and  C_17
REMARK                            x       y       z     vdW  Elec       q    Type
REMARK                         _______ _______ _______ _____ _____    ______ ____
ROOT
ATOM      1  N   UNL     1      -2.878  -1.881  -2.035  0.00  0.00    -0.285 N 
ATOM      2  C   UNL     1      -3.148  -2.357  -3.266  0.00  0.00    +0.227 C 
ATOM      3  O   UNL     1      -2.827  -3.489  -3.563  0.00  0.00    -0.275 OA
ATOM      4  H   UNL     1      -3.186  -0.997  -1.779  0.00  0.00    +0.155 HD
ENDROOT
BRANCH   1  10
ATOM      5  C   UNL     1      -1.420  -2.051  -0.117  0.00  0.00    -0.023 A 
ATOM      6  C   UNL     1      -0.711  -2.824   0.782  0.00  0.00    +0.006 A 
ATOM      7  C   UNL     1      -0.728  -4.202   0.674  0.00  0.00    +0.000 A 
ATOM      8  C   UNL     1      -1.454  -4.812  -0.333  0.00  0.00    +0.002 A 
ATOM      9  C   UNL     1      -2.165  -4.045  -1.234  0.00  0.00    +0.023 A 
ATOM     10  C   UNL     1      -2.155  -2.660  -1.126  0.00  0.00    +0.037 A 
BRANCH   5  11
ATOM     11  C   UNL     1      -1.402  -0.549   0.001  0.00  0.00    +0.017 C 
ATOM     12  C   UNL     1      -2.070  -0.132   1.312  0.00  0.00    +0.012 C 
BRANCH  11  14
ATOM     13  C   UNL     1       0.062   1.476  -0.020  0.00  0.00    +0.004 C 
ATOM     14  C   UNL     1       0.046  -0.054  -0.014  0.00  0.00    +0.004 C 
ENDBRANCH  11  14
ENDBRANCH   5  11
ENDBRANCH   1  10
BRANCH   2  15
ATOM     15  C   UNL     1      -3.850  -1.485  -4.275  0.00  0.00    +0.173 C 
BRANCH  15  16
ATOM     16  S   UNL     1      -4.067  -2.405  -5.823  0.00  0.00    -0.077 S 
BRANCH  16  17
ATOM     17  C   UNL     1      -4.890  -1.264  -6.885  0.00  0.00    +0.191 A 
ATOM     18  N   UNL     1      -5.269  -1.522  -8.171  0.00  0.00    -0.219 NA
ATOM     19  C   UNL     1      -5.879  -0.377  -8.654  0.00  0.00    +0.112 A 
ATOM     20  C   UNL     1      -6.459  -0.028  -9.865  0.00  0.00    +0.053 A 
ATOM     21  C   UNL     1      -6.987   1.248  -9.995  0.00  0.00    +0.061 A 
ATOM     22  C   UNL     1      -6.921   2.125  -8.925  0.00  0.00    +0.133 A 
ATOM     23  N   UNL     1      -6.366   1.773  -7.784  0.00  0.00    -0.233 NA
ATOM     24  C   UNL     1      -5.844   0.561  -7.607  0.00  0.00    +0.181 A 
ATOM     25  N   UNL     1      -5.234  -0.042  -6.556  0.00  0.00    -0.201 NA
ATOM     26 CL   UNL     1      -7.725   1.742 -11.487  0.00  0.00    -0.082 Cl
ENDBRANCH  16  17
ENDBRANCH  15  16
ENDBRANCH   2  15
TORSDOF 6
