REMARK  Name = ZINC12471914
REMARK  8 active torsions:
REMARK  status: ('A' for Active; 'I' for Inactive)
REMARK    1  A    between atoms: C_1  and  C_2
REMARK    2  A    between atoms: C_2  and  C_4
REMARK    3  A    between atoms: C_7  and  N_10
REMARK    4  A    between atoms: N_10  and  C_11
REMARK    5  A    between atoms: C_11  and  C_13
REMARK    6  A    between atoms: C_11  and  C_19
REMARK    7  A    between atoms: N_21  and  C_22
REMARK    8  A    between atoms: C_27  and  C_29
REMARK                            x       y       z     vdW  Elec       q    Type
REMARK                         _______ _______ _______ _____ _____    ______ ____
ROOT
ATOM      1  N   UNL     1      -4.433  -2.895   0.088  0.00  0.00    -0.250 N 
ATOM      2  C   UNL     1      -3.514  -2.371  -0.747  0.00  0.00    +0.272 C 
ATOM      3  O   UNL     1      -2.983  -1.310  -0.477  0.00  0.00    -0.268 OA
ENDROOT
BRANCH   1   7
ATOM      4  C   UNL     1      -5.646  -0.767   3.444  0.00  0.00    +0.017 A 
ATOM      5  C   UNL     1      -6.098  -0.391   2.172  0.00  0.00    +0.013 A 
ATOM      6  C   UNL     1      -5.696  -1.093   1.072  0.00  0.00    +0.024 A 
ATOM      7  C   UNL     1      -4.839  -2.182   1.213  0.00  0.00    +0.038 A 
ATOM      8  C   UNL     1      -4.388  -2.559   2.475  0.00  0.00    +0.024 A 
ATOM      9  C   UNL     1      -4.779  -1.859   3.580  0.00  0.00    +0.013 A 
BRANCH   4  11
ATOM     10  C   UNL     1      -7.008   1.159   4.481  0.00  0.00    +0.091 C 
ATOM     11  C   UNL     1      -6.075  -0.015   4.630  0.00  0.00    +0.160 C 
ATOM     12  O   UNL     1      -5.679  -0.339   5.730  0.00  0.00    -0.292 OA
ENDBRANCH   4  11
ENDBRANCH   1   7
BRANCH   2  13
ATOM     13  C   UNL     1      -3.152  -3.083  -1.986  0.00  0.00    +0.157 A 
ATOM     14  C   UNL     1      -2.297  -2.551  -2.936  0.00  0.00    +0.101 A 
ATOM     15  S   UNL     1      -2.260  -3.771  -4.089  0.00  0.00    +0.029 S 
ATOM     16  N   UNL     1      -3.252  -4.839  -3.389  0.00  0.00    -0.110 NA
ATOM     17  N   UNL     1      -3.614  -4.290  -2.284  0.00  0.00    -0.136 NA
ENDBRANCH   2  13
BRANCH   1  18
ATOM     18  C   UNL     1      -5.004  -4.216  -0.187  0.00  0.00    +0.197 C 
BRANCH  18  19
ATOM     19  C   UNL     1      -5.850  -4.651   0.981  0.00  0.00    -0.018 A 
ATOM     20  C   UNL     1      -6.932  -3.886   1.374  0.00  0.00    +0.006 A 
ATOM     21  C   UNL     1      -7.708  -4.285   2.446  0.00  0.00    +0.000 A 
ATOM     22  C   UNL     1      -7.402  -5.450   3.125  0.00  0.00    +0.000 A 
ATOM     23  C   UNL     1      -6.320  -6.216   2.732  0.00  0.00    +0.000 A 
ATOM     24  C   UNL     1      -5.547  -5.819   1.657  0.00  0.00    +0.006 A 
ENDBRANCH  18  19
BRANCH  18  25
ATOM     25  C   UNL     1      -5.858  -4.145  -1.427  0.00  0.00    +0.239 C 
ATOM     26  O   UNL     1      -5.978  -3.095  -2.022  0.00  0.00    -0.273 OA
ATOM     27  N   UNL     1      -6.488  -5.248  -1.875  0.00  0.00    -0.311 N 
ATOM     28  H   UNL     1      -6.393  -6.088  -1.399  0.00  0.00    +0.149 HD
BRANCH  27  29
ATOM     29  C   UNL     1      -7.319  -5.179  -3.080  0.00  0.00    +0.073 C 
ATOM     30  C   UNL     1      -8.759  -4.773  -2.707  0.00  0.00    +0.022 C 
ATOM     31  C   UNL     1      -9.649  -5.600  -3.667  0.00  0.00    +0.002 C 
ATOM     32  C   UNL     1      -8.903  -6.956  -3.740  0.00  0.00    +0.002 C 
ATOM     33  C   UNL     1      -7.410  -6.568  -3.737  0.00  0.00    +0.022 C 
ENDBRANCH  27  29
ENDBRANCH  18  25
ENDBRANCH   1  18
TORSDOF 7
