REMARK  Name = ZINC05190722
REMARK  3 active torsions:
REMARK  status: ('A' for Active; 'I' for Inactive)
REMARK    1  A    between atoms: C_1  and  C_2
REMARK    2  A    between atoms: C_2  and  C_29
REMARK    3  A    between atoms: C_6  and  C_16
REMARK                            x       y       z     vdW  Elec       q    Type
REMARK                         _______ _______ _______ _____ _____    ______ ____
ROOT
ATOM      1  C   UNL     1       4.972   2.046   3.380  0.00  0.00    +0.011 C 
ATOM      2  C   UNL     1       5.756   3.023   2.502  0.00  0.00    -0.023 C 
ATOM      3  C   UNL     1       5.455   2.752   1.029  0.00  0.00    +0.058 C 
ATOM      4  C   UNL     1       3.969   2.923   0.764  0.00  0.00    +0.017 C 
ATOM      5  C   UNL     1       3.252   3.825   1.457  0.00  0.00    +0.036 C 
ATOM      6  C   UNL     1       1.778   4.104   1.287  0.00  0.00    +0.136 C 
ATOM      7  N   UNL     1       1.183   3.505   0.111  0.00  0.00    -0.331 N 
ATOM      8  C   UNL     1       1.102   2.120  -0.027  0.00  0.00    +0.049 A 
ATOM      9  C   UNL     1      -0.116   1.460  -0.016  0.00  0.00    +0.025 A 
ATOM     10  C   UNL     1      -0.140   0.077  -0.049  0.00  0.00    +0.002 A 
ATOM     11  C   UNL     1       1.040  -0.642  -0.097  0.00  0.00    +0.002 A 
ATOM     12  C   UNL     1       2.258   0.015  -0.135  0.00  0.00    +0.025 A 
ATOM     13  C   UNL     1       2.284   1.399  -0.113  0.00  0.00    +0.052 A 
ATOM     14  N   UNL     1       3.466   2.122  -0.209  0.00  0.00    -0.316 N 
ATOM     15  C   UNL     1       3.872   4.609   2.458  0.00  0.00    +0.163 C 
ATOM     16  O   UNL     1       3.206   5.433   3.054  0.00  0.00    -0.292 OA
ATOM     17  C   UNL     1       5.322   4.461   2.809  0.00  0.00    +0.086 C 
ATOM     18  C   UNL     1       7.256   2.867   2.762  0.00  0.00    +0.011 C 
ATOM     19  H   UNL     1       0.834   4.076  -0.591  0.00  0.00    +0.147 HD
ATOM     20  H   UNL     1       3.970   2.049  -1.035  0.00  0.00    +0.152 HD
ENDROOT
BRANCH   6  21
ATOM     21  C   UNL     1       1.052   3.588   2.502  0.00  0.00    -0.022 A 
ATOM     22  C   UNL     1       1.076   2.224   2.788  0.00  0.00    +0.006 A 
ATOM     23  C   UNL     1       0.430   1.724   3.877  0.00  0.00    +0.009 A 
ATOM     24  C   UNL     1      -0.272   2.595   4.728  0.00  0.00    -0.018 A 
ATOM     25  C   UNL     1      -0.951   2.116   5.862  0.00  0.00    +0.008 A 
ATOM     26  C   UNL     1      -1.621   2.989   6.664  0.00  0.00    +0.001 A 
ATOM     27  C   UNL     1      -1.645   4.352   6.378  0.00  0.00    +0.001 A 
ATOM     28  C   UNL     1      -0.999   4.851   5.289  0.00  0.00    +0.008 A 
ATOM     29  C   UNL     1      -0.297   3.981   4.438  0.00  0.00    -0.018 A 
ATOM     30  C   UNL     1       0.386   4.460   3.306  0.00  0.00    +0.014 A 
ENDBRANCH   6  21
TORSDOF 1
