REMARK  Name = ZINC35955577
REMARK  8 active torsions:
REMARK  status: ('A' for Active; 'I' for Inactive)
REMARK    1  A    between atoms: C_1  and  C_2
REMARK    2  A    between atoms: C_7  and  C_8
REMARK    3  A    between atoms: N_10  and  C_11
REMARK    4  A    between atoms: C_17  and  N_19
REMARK    5  A    between atoms: C_20  and  C_22
REMARK    6  A    between atoms: N_25  and  S_28
REMARK    7  A    between atoms: S_28  and  C_31
REMARK    8  A    between atoms: C_34  and  N_37
REMARK                            x       y       z     vdW  Elec       q    Type
REMARK                         _______ _______ _______ _____ _____    ______ ____
ROOT
ATOM      1  N   UNL     1      -1.169  -1.336   5.873  0.00  0.00    -0.310 N 
ATOM      2  C   UNL     1      -1.887  -1.731   6.943  0.00  0.00    +0.216 C 
ATOM      3  O   UNL     1      -1.393  -1.699   8.050  0.00  0.00    -0.276 OA
ATOM      4  H   UNL     1      -1.565  -1.362   4.988  0.00  0.00    +0.149 HD
ENDROOT
BRANCH   1  10
ATOM      5  C   UNL     1       0.578   0.067   4.894  0.00  0.00    +0.093 C 
ATOM      6  C   UNL     1       2.016   0.556   5.076  0.00  0.00    +0.024 C 
ATOM      7  C   UNL     1       2.966  -0.644   5.086  0.00  0.00    +0.002 C 
ATOM      8  C   UNL     1       2.595  -1.578   6.239  0.00  0.00    +0.002 C 
ATOM      9  C   UNL     1       1.157  -2.067   6.057  0.00  0.00    +0.024 C 
ATOM     10  C   UNL     1       0.207  -0.868   6.048  0.00  0.00    +0.093 C 
BRANCH   5  13
ATOM     11  C   UNL     1       0.242   0.021   2.481  0.00  0.00    +0.245 C 
ATOM     12  O   UNL     1       0.135   1.232   2.503  0.00  0.00    -0.270 OA
ATOM     13  N   UNL     1       0.465  -0.656   3.625  0.00  0.00    -0.307 N 
ATOM     14  H   UNL     1       0.551  -1.622   3.607  0.00  0.00    +0.149 HD
BRANCH  11  21
ATOM     15  C   UNL     1      -0.511   1.452   0.082  0.00  0.00    +0.044 C 
ATOM     16  C   UNL     1      -0.234  -0.028   0.036  0.00  0.00    -0.038 A 
ATOM     17  C   UNL     1      -0.334  -0.714  -1.157  0.00  0.00    +0.004 A 
ATOM     18  C   UNL     1      -0.080  -2.073  -1.200  0.00  0.00    +0.000 A 
ATOM     19  C   UNL     1       0.275  -2.754  -0.049  0.00  0.00    +0.001 A 
ATOM     20  C   UNL     1       0.378  -2.080   1.150  0.00  0.00    +0.013 A 
ATOM     21  C   UNL     1       0.128  -0.708   1.200  0.00  0.00    +0.040 A 
ENDBRANCH  11  21
ENDBRANCH   5  13
ENDBRANCH   1  10
BRANCH   2  22
ATOM     22  C   UNL     1      -3.304  -2.213   6.764  0.00  0.00    +0.077 C 
ATOM     23  C   UNL     1      -4.147  -1.097   6.143  0.00  0.00    +0.030 C 
ATOM     24  C   UNL     1      -5.578  -1.602   5.930  0.00  0.00    +0.110 C 
ATOM     25  N   UNL     1      -6.095  -2.109   7.209  0.00  0.00    -0.177 NA
ATOM     26  C   UNL     1      -5.315  -3.120   7.935  0.00  0.00    +0.110 C 
ATOM     27  C   UNL     1      -3.888  -2.598   8.126  0.00  0.00    +0.030 C 
BRANCH  25  28
ATOM     28  S   UNL     1      -7.530  -1.552   7.819  0.00  0.00    +0.061 S 
ATOM     29  O   UNL     1      -7.484  -1.763   9.223  0.00  0.00    -0.153 OA
ATOM     30  O   UNL     1      -7.742  -0.268   7.248  0.00  0.00    -0.153 OA
BRANCH  28  31
ATOM     31  C   UNL     1      -8.803  -2.597   7.194  0.00  0.00    +0.106 A 
ATOM     32  C   UNL     1      -9.423  -2.292   5.997  0.00  0.00    +0.031 A 
ATOM     33  C   UNL     1     -10.422  -3.112   5.506  0.00  0.00    +0.034 A 
ATOM     34  C   UNL     1     -10.801  -4.238   6.213  0.00  0.00    +0.126 A 
ATOM     35  C   UNL     1     -10.181  -4.544   7.410  0.00  0.00    +0.034 A 
ATOM     36  C   UNL     1      -9.179  -3.726   7.898  0.00  0.00    +0.031 A 
BRANCH  34  37
ATOM     37  N   UNL     1     -11.871  -5.115   5.689  0.00  0.00    +0.056 N 
ATOM     38  O   UNL     1     -12.414  -4.847   4.642  0.00  0.00    -0.126 OA
ATOM     39  O   UNL     1     -12.203  -6.100   6.307  0.00  0.00    -0.126 OA
ENDBRANCH  34  37
ENDBRANCH  28  31
ENDBRANCH  25  28
ENDBRANCH   2  22
TORSDOF 7
