REMARK  Name = ZINC64953051
REMARK  12 active torsions:
REMARK  status: ('A' for Active; 'I' for Inactive)
REMARK    1  A    between atoms: C_1  and  C_2
REMARK    2  A    between atoms: C_2  and  C_3
REMARK    3  A    between atoms: C_3  and  N_4
REMARK    4  A    between atoms: C_8  and  C_26
REMARK    5  A    between atoms: C_13  and  C_14
REMARK    6  A    between atoms: C_13  and  C_15
REMARK    7  A    between atoms: N_17  and  C_18
REMARK    8  A    between atoms: C_18  and  C_19
REMARK    9  A    between atoms: C_22  and  C_25
REMARK   10  A    between atoms: N_28  and  C_29
REMARK   11  A    between atoms: C_33  and  C_36
REMARK   12  A    between atoms: C_34  and  C_35
REMARK                            x       y       z     vdW  Elec       q    Type
REMARK                         _______ _______ _______ _____ _____    ______ ____
ROOT
ATOM      1  N   UNL     1      -1.521  -2.423   0.406  0.00  0.00    -0.281 N 
ATOM      2  C   UNL     1      -1.554  -2.999  -0.820  0.00  0.00    +0.266 C 
ATOM      3  O   UNL     1      -1.456  -2.344  -1.840  0.00  0.00    -0.268 OA
ATOM      4  C   UNL     1      -1.716  -4.462  -0.849  0.00  0.00    +0.137 A 
ATOM      5  C   UNL     1      -1.622  -5.378  -1.864  0.00  0.00    +0.156 A 
ATOM      6  N   UNL     1      -1.849  -6.591  -1.318  0.00  0.00    -0.230 NA
ATOM      7  C   UNL     1      -2.079  -6.460  -0.035  0.00  0.00    +0.200 A 
ATOM      8  N   UNL     1      -2.019  -5.169   0.299  0.00  0.00    -0.323 N 
ATOM      9  C   UNL     1      -2.226  -4.498   1.583  0.00  0.00    +0.158 C 
ATOM     10  C   UNL     1      -1.387  -3.216   1.623  0.00  0.00    +0.128 C 
ATOM     11  C   UNL     1       0.085  -3.589   1.810  0.00  0.00    +0.043 C 
ENDROOT
BRANCH  10  12
ATOM     12  C   UNL     1      -1.829  -2.382   2.798  0.00  0.00    +0.238 C 
ATOM     13  O   UNL     1      -1.032  -2.080   3.660  0.00  0.00    -0.273 OA
ATOM     14  N   UNL     1      -3.109  -1.972   2.890  0.00  0.00    -0.309 N 
ATOM     15  H   UNL     1      -3.763  -2.273   2.240  0.00  0.00    +0.149 HD
BRANCH  14  16
ATOM     16  C   UNL     1      -3.514  -1.072   3.973  0.00  0.00    +0.139 C 
BRANCH  16  17
ATOM     17  C   UNL     1      -4.985  -0.768   3.850  0.00  0.00    -0.030 A 
ATOM     18  C   UNL     1      -5.407   0.313   3.098  0.00  0.00    +0.005 A 
ATOM     19  C   UNL     1      -6.756   0.592   2.986  0.00  0.00    +0.003 A 
ATOM     20  C   UNL     1      -7.683  -0.210   3.625  0.00  0.00    -0.050 A 
ATOM     21  C   UNL     1      -7.261  -1.291   4.376  0.00  0.00    +0.003 A 
ATOM     22  C   UNL     1      -5.912  -1.573   4.485  0.00  0.00    +0.005 A 
ATOM     23  C   UNL     1      -9.154   0.094   3.503  0.00  0.00    +0.044 C 
ENDBRANCH  16  17
ENDBRANCH  14  16
ENDBRANCH  10  12
BRANCH   5  24
ATOM     24  C   UNL     1      -1.329  -5.092  -3.284  0.00  0.00    +0.269 C 
ATOM     25  O   UNL     1      -1.143  -3.946  -3.647  0.00  0.00    -0.268 OA
ATOM     26  N   UNL     1      -1.268  -6.100  -4.176  0.00  0.00    -0.280 N 
ATOM     27  H   UNL     1      -1.332  -7.019  -3.874  0.00  0.00    +0.155 HD
BRANCH  26  28
ATOM     28  C   UNL     1      -1.112  -5.821  -5.537  0.00  0.00    +0.037 A 
ATOM     29  C   UNL     1      -1.522  -4.596  -6.048  0.00  0.00    +0.023 A 
ATOM     30  C   UNL     1      -1.366  -4.324  -7.393  0.00  0.00    +0.002 A 
ATOM     31  C   UNL     1      -0.803  -5.269  -8.231  0.00  0.00    +0.004 A 
ATOM     32  C   UNL     1      -0.395  -6.489  -7.726  0.00  0.00    -0.046 A 
ATOM     33  C   UNL     1      -0.542  -6.766  -6.380  0.00  0.00    -0.026 A 
ATOM     34  C   UNL     1      -0.090  -8.094  -5.830  0.00  0.00    +0.046 C 
ATOM     35  C   UNL     1       0.218  -7.516  -8.643  0.00  0.00    +0.044 C 
ENDBRANCH  26  28
ENDBRANCH   5  24
BRANCH   1  36
ATOM     36  C   UNL     1      -1.616  -0.965   0.512  0.00  0.00    +0.109 C 
BRANCH  36  38
ATOM     37  C   UNL     1      -0.308   1.156   0.694  0.00  0.00    +0.005 C 
ATOM     38  C   UNL     1      -0.209  -0.367   0.583  0.00  0.00    +0.016 C 
ENDBRANCH  36  38
ENDBRANCH   1  36
TORSDOF 7
