REMARK  Name = ZINC39371109
REMARK  2 active torsions:
REMARK  status: ('A' for Active; 'I' for Inactive)
REMARK    1  A    between atoms: C_1  and  C_2
REMARK    2  A    between atoms: C_4  and  C_14
REMARK                            x       y       z     vdW  Elec       q    Type
REMARK                         _______ _______ _______ _____ _____    ______ ____
ROOT
ATOM      1  C   UNL     1      -0.018   1.503   0.010  0.00  0.00    +0.067 C 
ATOM      2  C   UNL     1       0.002  -0.004   0.002  0.00  0.00    +0.064 C 
ATOM      3  C   UNL     1      -1.065  -0.770   0.003  0.00  0.00    +0.004 C 
ATOM      4  C   UNL     1      -2.528  -0.495   0.210  0.00  0.00    +0.059 C 
ATOM      5  C   UNL     1      -2.921  -1.241   1.496  0.00  0.00    +0.108 C 
ATOM      6  C   UNL     1      -2.203  -2.545   1.627  0.00  0.00    +0.216 C 
ATOM      7  O   UNL     1      -2.689  -3.345   2.397  0.00  0.00    -0.276 OA
ATOM      8  N   UNL     1      -1.092  -2.937   1.000  0.00  0.00    -0.289 N 
ATOM      9  C   UNL     1      -0.526  -2.190  -0.116  0.00  0.00    +0.243 C 
ATOM     10  N   UNL     1       0.919  -1.987  -0.035  0.00  0.00    -0.160 NA
ATOM     11  N   UNL     1       1.127  -0.766  -0.013  0.00  0.00    -0.157 NA
ATOM     12  H   UNL     1      -0.646  -3.745   1.297  0.00  0.00    +0.151 HD
ENDROOT
BRANCH   4  13
ATOM     13  C   UNL     1      -3.325  -1.014  -0.958  0.00  0.00    -0.039 A 
ATOM     14  C   UNL     1      -3.286  -2.373  -1.265  0.00  0.00    +0.005 A 
ATOM     15  C   UNL     1      -3.994  -2.875  -2.314  0.00  0.00    +0.009 A 
ATOM     16  C   UNL     1      -4.776  -2.013  -3.101  0.00  0.00    -0.018 A 
ATOM     17  C   UNL     1      -5.520  -2.494  -4.192  0.00  0.00    +0.008 A 
ATOM     18  C   UNL     1      -6.267  -1.629  -4.932  0.00  0.00    +0.001 A 
ATOM     19  C   UNL     1      -6.305  -0.271  -4.625  0.00  0.00    +0.001 A 
ATOM     20  C   UNL     1      -5.598   0.231  -3.576  0.00  0.00    +0.008 A 
ATOM     21  C   UNL     1      -4.815  -0.631  -2.789  0.00  0.00    -0.018 A 
ATOM     22  C   UNL     1      -4.075  -0.151  -1.695  0.00  0.00    +0.012 A 
ENDBRANCH   4  13
TORSDOF 1
