REMARK  Name = ZINC08940160
REMARK  7 active torsions:
REMARK  status: ('A' for Active; 'I' for Inactive)
REMARK    1  A    between atoms: C_1  and  C_2
REMARK    2  A    between atoms: C_7  and  C_16
REMARK    3  A    between atoms: N_11  and  S_12
REMARK    4  A    between atoms: S_12  and  C_15
REMARK    5  A    between atoms: N_18  and  C_19
REMARK    6  A    between atoms: C_23  and  S_25
REMARK    7  A    between atoms: S_25  and  N_28
REMARK                            x       y       z     vdW  Elec       q    Type
REMARK                         _______ _______ _______ _____ _____    ______ ____
ROOT
ATOM      1  C   UNL     1       2.442   3.926   0.165  0.00  0.00    +0.248 C 
ATOM      2  O   UNL     1       2.448   5.131   0.326  0.00  0.00    -0.270 OA
ATOM      3  N   UNL     1       3.603   3.265  -0.017  0.00  0.00    -0.281 N 
ATOM      4  H   UNL     1       3.606   2.296  -0.068  0.00  0.00    +0.155 HD
ENDROOT
BRANCH   1  10
ATOM      5  C   UNL     1      -4.282   2.146   1.711  0.00  0.00    +0.030 C 
ATOM      6  C   UNL     1      -3.504   2.377   0.414  0.00  0.00    +0.099 C 
ATOM      7  C   UNL     1      -2.654   3.653   0.536  0.00  0.00    +0.061 C 
ATOM      8  C   UNL     1      -1.230   3.175   0.358  0.00  0.00    -0.022 A 
ATOM      9  C   UNL     1      -0.041   3.869   0.356  0.00  0.00    +0.018 A 
ATOM     10  C   UNL     1       1.165   3.188   0.169  0.00  0.00    +0.037 A 
ATOM     11  C   UNL     1       1.153   1.802  -0.016  0.00  0.00    +0.015 A 
ATOM     12  C   UNL     1      -0.038   1.118  -0.013  0.00  0.00    +0.026 A 
ATOM     13  C   UNL     1      -1.248   1.799   0.169  0.00  0.00    +0.054 A 
ATOM     14  N   UNL     1      -2.542   1.294   0.198  0.00  0.00    -0.204 N 
BRANCH  14  15
ATOM     15  S   UNL     1      -2.941  -0.303   0.013  0.00  0.00    +0.043 S 
ATOM     16  O   UNL     1      -4.267  -0.289  -0.496  0.00  0.00    -0.155 OA
ATOM     17  O   UNL     1      -1.877  -0.856  -0.750  0.00  0.00    -0.155 OA
ATOM     18  C   UNL     1      -2.923  -0.985   1.694  0.00  0.00    +0.218 C 
ENDBRANCH  14  15
ENDBRANCH   1  10
BRANCH   3  19
ATOM     19  C   UNL     1       4.802   3.975  -0.131  0.00  0.00    +0.036 A 
ATOM     20  C   UNL     1       5.983   3.429   0.356  0.00  0.00    +0.023 A 
ATOM     21  C   UNL     1       7.165   4.133   0.241  0.00  0.00    +0.004 A 
ATOM     22  C   UNL     1       7.175   5.380  -0.356  0.00  0.00    +0.029 A 
ATOM     23  C   UNL     1       6.001   5.927  -0.841  0.00  0.00    +0.110 A 
ATOM     24  C   UNL     1       4.815   5.225  -0.736  0.00  0.00    +0.052 A 
BRANCH  23  25
ATOM     25  S   UNL     1       6.018   7.516  -1.601  0.00  0.00    +0.073 S 
ATOM     26  O   UNL     1       4.701   8.037  -1.482  0.00  0.00    -0.150 OA
ATOM     27  O   UNL     1       7.156   8.198  -1.092  0.00  0.00    -0.150 OA
BRANCH  25  28
ATOM     28  N   UNL     1       6.289   7.283  -3.218  0.00  0.00    -0.205 N 
ATOM     29  C   UNL     1       5.362   6.622  -3.980  0.00  0.00    +0.088 C 
ATOM     30  C   UNL     1       3.461   5.494  -4.578  0.00  0.00    +0.114 C 
ATOM     31  C   UNL     1       4.450   5.258  -5.744  0.00  0.00    +0.028 C 
ATOM     32  C   UNL     1       5.503   6.359  -5.463  0.00  0.00    +0.072 C 
ATOM     33  H   UNL     1       7.105   7.615  -3.625  0.00  0.00    +0.175 HD
ATOM     34  N   UNL     1       4.249   6.150  -3.513  0.00  0.00    -0.375 N 
ATOM     35  H   UNL     1       3.953   6.221  -2.532  0.00  0.00    +0.161 HD
ENDBRANCH  25  28
ENDBRANCH  23  25
ENDBRANCH   3  19
TORSDOF 5
