REMARK  Name = ZINC06282078
REMARK  9 active torsions:
REMARK  status: ('A' for Active; 'I' for Inactive)
REMARK    1  A    between atoms: C_1  and  C_2
REMARK    2  A    between atoms: C_7  and  C_14
REMARK    3  A    between atoms: C_14  and  C_16
REMARK    4  A    between atoms: C_14  and  N_72
REMARK    5  A    between atoms: N_20  and  C_21
REMARK    6  A    between atoms: C_27  and  C_28
REMARK    7  A    between atoms: C_27  and  N_72
REMARK    8  A    between atoms: C_34  and  C_35
REMARK    9  A    between atoms: C_34  and  N_72
REMARK                            x       y       z     vdW  Elec       q    Type
REMARK                         _______ _______ _______ _____ _____    ______ ____
ROOT
ATOM      1  C   UNL     1       3.956   2.019  -0.069  0.00  0.00    +0.040 C 
ENDROOT
BRANCH   1   8
ATOM      2  C   UNL     1       6.867   4.736   6.842  0.00  0.00    +0.044 C 
ATOM      3  C   UNL     1       6.415   4.019   5.596  0.00  0.00    -0.048 A 
ATOM      4  C   UNL     1       6.744   2.682   5.415  0.00  0.00    +0.004 A 
ATOM      5  C   UNL     1       6.344   2.014   4.293  0.00  0.00    +0.010 A 
ATOM      6  C   UNL     1       5.596   2.682   3.318  0.00  0.00    -0.001 A 
ATOM      7  C   UNL     1       5.151   1.996   2.103  0.00  0.00    +0.017 A 
ATOM      8  C   UNL     1       4.429   2.695   1.192  0.00  0.00    +0.011 A 
ATOM      9  C   UNL     1       4.124   4.054   1.419  0.00  0.00    +0.251 A 
ATOM     10  O   UNL     1       3.478   4.665   0.585  0.00  0.00    -0.268 OA
ATOM     11  N   UNL     1       4.523   4.691   2.534  0.00  0.00    -0.322 N 
ATOM     12  H   UNL     1       4.293   5.624   2.659  0.00  0.00    +0.169 HD
ATOM     13  C   UNL     1       5.260   4.037   3.498  0.00  0.00    +0.049 A 
ATOM     14  C   UNL     1       5.679   4.697   4.649  0.00  0.00    +0.029 A 
ENDBRANCH   1   8
BRANCH   1  15
ATOM     15  C   UNL     1       2.449   1.985  -0.085  0.00  0.00    +0.143 A 
ATOM     16  N   UNL     1       1.642   3.014   0.006  0.00  0.00    -0.115 NA
ATOM     17  N   UNL     1       0.431   2.576  -0.047  0.00  0.00    -0.023 NA
ATOM     18  N   UNL     1       0.445   1.294  -0.169  0.00  0.00    -0.044 NA
ATOM     19  N   UNL     1       1.671   0.892  -0.196  0.00  0.00    -0.227 N 
BRANCH  19  20
ATOM     20  C   UNL     1       2.129  -0.493  -0.324  0.00  0.00    +0.111 C 
ATOM     21  C   UNL     1       1.510  -1.122  -1.574  0.00  0.00    +0.027 C 
ATOM     22  C   UNL     1       1.988  -2.569  -1.708  0.00  0.00    +0.002 C 
ATOM     23  C   UNL     1       1.562  -3.364  -0.472  0.00  0.00    +0.000 C 
ATOM     24  C   UNL     1       2.182  -2.735   0.777  0.00  0.00    +0.002 C 
ATOM     25  C   UNL     1       1.703  -1.288   0.911  0.00  0.00    +0.027 C 
ENDBRANCH  19  20
ENDBRANCH   1  15
BRANCH   1  26
ATOM     26  N   UNL     1       4.440   2.794  -1.230  0.00  0.00    +0.395 N 
ATOM     27  H   UNL     1       4.377   3.795  -1.013  0.00  0.00    -0.079 HD
BRANCH  26  28
ATOM     28  C   UNL     1       5.850   2.452  -1.513  0.00  0.00    -0.041 C 
BRANCH  28  29
ATOM     29  C   UNL     1       6.728   3.160  -0.514  0.00  0.00    -0.064 A 
ATOM     30  C   UNL     1       6.801   4.540  -0.514  0.00  0.00    +0.002 A 
ATOM     31  C   UNL     1       7.603   5.190   0.405  0.00  0.00    +0.000 A 
ATOM     32  C   UNL     1       8.340   4.459   1.318  0.00  0.00    +0.000 A 
ATOM     33  C   UNL     1       8.272   3.078   1.314  0.00  0.00    +0.000 A 
ATOM     34  C   UNL     1       7.466   2.429   0.398  0.00  0.00    +0.002 A 
ENDBRANCH  28  29
ENDBRANCH  26  28
BRANCH  26  35
ATOM     35  C   UNL     1       3.603   2.506  -2.414  0.00  0.00    -0.040 C 
BRANCH  35  36
ATOM     36  C   UNL     1       2.507   3.537  -2.488  0.00  0.00    -0.046 A 
ATOM     37  C   UNL     1       1.175   3.150  -2.464  0.00  0.00    +0.005 A 
ATOM     38  C   UNL     1       0.201   4.134  -2.530  0.00  0.00    +0.020 A 
ATOM     39  C   UNL     1       0.586   5.458  -2.626  0.00  0.00    +0.111 A 
ATOM     40  N   UNL     1       1.862   5.789  -2.650  0.00  0.00    -0.263 NA
ATOM     41  C   UNL     1       2.816   4.881  -2.585  0.00  0.00    +0.112 A 
ENDBRANCH  35  36
ENDBRANCH  26  35
ENDBRANCH   1  26
TORSDOF 8
