REMARK  Name = ZINC44731736
REMARK  7 active torsions:
REMARK  status: ('A' for Active; 'I' for Inactive)
REMARK    1  A    between atoms: C_1  and  C_2
REMARK    2  A    between atoms: C_4  and  C_8
REMARK    3  A    between atoms: C_5  and  C_7
REMARK    4  A    between atoms: C_8  and  C_10
REMARK    5  A    between atoms: C_8  and  N_11
REMARK    6  A    between atoms: C_18  and  C_20
REMARK    7  A    between atoms: C_20  and  C_21
REMARK                            x       y       z     vdW  Elec       q    Type
REMARK                         _______ _______ _______ _____ _____    ______ ____
ROOT
ATOM      1  N   UNL     1      -2.947  -2.934  -0.471  0.00  0.00    -0.293 N 
ATOM      2  C   UNL     1      -3.588  -3.964  -1.059  0.00  0.00    +0.303 C 
ATOM      3  O   UNL     1      -3.091  -5.073  -1.053  0.00  0.00    -0.253 OA
ATOM      4  N   UNL     1      -4.780  -3.763  -1.655  0.00  0.00    -0.282 N 
ATOM      5  C   UNL     1      -5.540  -2.500  -1.652  0.00  0.00    +0.110 C 
ATOM      6  C   UNL     1      -6.441  -2.577  -2.910  0.00  0.00    +0.021 C 
ATOM      7  C   UNL     1      -6.821  -4.081  -2.930  0.00  0.00    +0.024 C 
ATOM      8  C   UNL     1      -5.535  -4.766  -2.420  0.00  0.00    +0.088 C 
ATOM      9  H   UNL     1      -3.344  -2.049  -0.477  0.00  0.00    +0.151 HD
ENDROOT
BRANCH   1  10
ATOM     10  C   UNL     1      -1.651  -3.152   0.176  0.00  0.00    +0.105 C 
ATOM     11  C   UNL     1      -1.872  -3.642   1.609  0.00  0.00    +0.033 C 
BRANCH  10  15
ATOM     12  C   UNL     1      -0.474   1.804   0.188  0.00  0.00    +0.086 C 
ATOM     13  C   UNL     1      -0.380   0.300   0.205  0.00  0.00    +0.103 A 
ATOM     14  C   UNL     1      -1.419  -0.553   0.164  0.00  0.00    +0.050 A 
ATOM     15  C   UNL     1      -0.878  -1.859   0.200  0.00  0.00    +0.013 A 
ATOM     16  C   UNL     1       0.459  -1.725   0.262  0.00  0.00    +0.107 A 
ATOM     17  O   UNL     1       0.755  -0.415   0.259  0.00  0.00    -0.465 OA
ATOM     18  C   UNL     1       1.456  -2.854   0.319  0.00  0.00    +0.086 C 
ENDBRANCH  10  15
ENDBRANCH   1  10
BRANCH   8  19
ATOM     19  C   UNL     1      -5.902  -5.944  -1.514  0.00  0.00    +0.147 C 
BRANCH  19  20
ATOM     20  C   UNL     1      -6.551  -7.027  -2.337  0.00  0.00    +0.358 C 
ATOM     21  O   UNL     1      -6.617  -6.915  -3.549  0.00  0.00    -0.246 OA
ATOM     22  O   UNL     1      -7.011  -8.015  -1.790  0.00  0.00    -0.246 OA
ENDBRANCH  19  20
ENDBRANCH   8  19
TORSDOF 4
