REMARK  Name = ZINC08720705
REMARK  15 active torsions:
REMARK  status: ('A' for Active; 'I' for Inactive)
REMARK    1  A    between atoms: C_1  and  C_2
REMARK    2  A    between atoms: C_6  and  C_9
REMARK    3  A    between atoms: C_10  and  C_11
REMARK    4  A    between atoms: C_10  and  C_12
REMARK    5  A    between atoms: C_10  and  C_13
REMARK    6  A    between atoms: C_10  and  N_64
REMARK    7  A    between atoms: C_13  and  N_14
REMARK    8  A    between atoms: N_14  and  C_15
REMARK    9  A    between atoms: C_18  and  S_24
REMARK   10  A    between atoms: C_20  and  N_21
REMARK   11  A    between atoms: S_24  and  N_27
REMARK   12  A    between atoms: N_27  and  C_28
REMARK   13  A    between atoms: C_28  and  C_29
REMARK   14  A    between atoms: C_28  and  C_30
REMARK   15  A    between atoms: C_28  and  C_31
REMARK                            x       y       z     vdW  Elec       q    Type
REMARK                         _______ _______ _______ _____ _____    ______ ____
ROOT
ATOM      1  C   UNL     1       2.259   2.624  -0.105  0.00  0.00    +0.058 A 
ATOM      2  C   UNL     1       1.486   3.620   0.477  0.00  0.00    +0.027 A 
ATOM      3  C   UNL     1       0.108   3.553   0.406  0.00  0.00    +0.030 A 
ATOM      4  C   UNL     1      -0.501   2.499  -0.251  0.00  0.00    +0.108 A 
ATOM      5  C   UNL     1       0.266   1.504  -0.827  0.00  0.00    +0.063 A 
ATOM      6  C   UNL     1       1.644   1.564  -0.759  0.00  0.00    +0.149 A 
ENDROOT
BRANCH   6   7
ATOM      7  N   UNL     1       2.464   0.501  -1.381  0.00  0.00    +0.058 N 
ATOM      8  O   UNL     1       2.131   0.023  -2.451  0.00  0.00    -0.126 OA
ATOM      9  O   UNL     1       3.472   0.104  -0.824  0.00  0.00    -0.126 OA
ENDBRANCH   6   7
BRANCH   4  10
ATOM     10  S   UNL     1      -2.259   2.422  -0.346  0.00  0.00    +0.059 S 
ATOM     11  O   UNL     1      -2.720   3.762  -0.446  0.00  0.00    -0.153 OA
ATOM     12  O   UNL     1      -2.570   1.435  -1.321  0.00  0.00    -0.153 OA
BRANCH  10  13
ATOM     13  N   UNL     1      -2.803   1.841   1.106  0.00  0.00    -0.185 NA
ATOM     14  H   UNL     1      -3.329   2.409   1.690  0.00  0.00    +0.149 HD
BRANCH  13  15
ATOM     15  C   UNL     1      -2.490   0.468   1.509  0.00  0.00    +0.032 C 
ATOM     16  C   UNL     1      -0.978   0.244   1.428  0.00  0.00    +0.029 C 
ATOM     17  C   UNL     1      -2.963   0.237   2.946  0.00  0.00    +0.029 C 
ATOM     18  C   UNL     1      -3.201  -0.513   0.575  0.00  0.00    +0.029 C 
ENDBRANCH  13  15
ENDBRANCH  10  13
ENDBRANCH   4  10
BRANCH   1  19
ATOM     19  N   UNL     1       3.653   2.688  -0.034  0.00  0.00    -0.343 N 
ATOM     20  H   UNL     1       4.193   2.029  -0.498  0.00  0.00    +0.146 HD
BRANCH  19  21
ATOM     21  C   UNL     1       4.298   3.751   0.740  0.00  0.00    +0.089 C 
BRANCH  21  22
ATOM     22  C   UNL     1       5.815   3.664   0.560  0.00  0.00    -0.055 C 
ATOM     23  C   UNL     1       6.157   3.739  -0.929  0.00  0.00    -0.008 C 
ATOM     24  C   UNL     1       6.484   4.826   1.297  0.00  0.00    -0.008 C 
BRANCH  22  32
ATOM     25  C   UNL     1       9.717   0.751   1.280  0.00  0.00    +0.036 C 
ATOM     26  C   UNL     1       8.200   0.880   1.428  0.00  0.00    +0.099 C 
ATOM     27  C   UNL     1       7.748   2.242   0.894  0.00  0.00    -0.046 C 
ATOM     28  C   UNL     1       5.973   2.275   2.538  0.00  0.00    -0.046 C 
ATOM     29  C   UNL     1       6.443   0.912   3.055  0.00  0.00    +0.099 C 
ATOM     30  O   UNL     1       7.845   0.773   2.809  0.00  0.00    -0.378 OA
ATOM     31  C   UNL     1       5.683  -0.200   2.329  0.00  0.00    +0.036 C 
ATOM     32  N   UNL     1       6.290   2.370   1.098  0.00  0.00    +0.387 N 
ATOM     33  H   UNL     1       5.815   1.608   0.600  0.00  0.00    -0.081 HD
ENDBRANCH  22  32
ENDBRANCH  21  22
ENDBRANCH  19  21
ENDBRANCH   1  19
TORSDOF 8
