REMARK  Name = ZINC49504556
REMARK  9 active torsions:
REMARK  status: ('A' for Active; 'I' for Inactive)
REMARK    1  A    between atoms: C_1  and  N_2
REMARK    2  A    between atoms: N_2  and  C_3
REMARK    3  A    between atoms: N_2  and  C_4
REMARK    4  A    between atoms: C_7  and  C_10
REMARK    5  A    between atoms: C_10  and  C_12
REMARK    6  A    between atoms: C_10  and  N_33
REMARK    7  A    between atoms: C_12  and  N_13
REMARK    8  A    between atoms: C_14  and  C_16
REMARK    9  A    between atoms: N_18  and  C_19
REMARK                            x       y       z     vdW  Elec       q    Type
REMARK                         _______ _______ _______ _____ _____    ______ ____
ROOT
ATOM      1  N   UNL     1      -6.851  -3.795  -1.204  0.00  0.00    -0.309 N 
ATOM      2  C   UNL     1      -7.626  -4.103  -2.263  0.00  0.00    +0.299 C 
ATOM      3  O   UNL     1      -7.306  -3.738  -3.375  0.00  0.00    -0.265 OA
ATOM      4  H   UNL     1      -7.106  -4.087  -0.315  0.00  0.00    +0.149 HD
ENDROOT
BRANCH   2   5
ATOM      5  C   UNL     1      -8.879  -4.891  -2.067  0.00  0.00    +0.303 C 
ATOM      6  O   UNL     1      -9.199  -5.255  -0.954  0.00  0.00    -0.265 OA
ATOM      7  N   UNL     1      -9.654  -5.198  -3.126  0.00  0.00    -0.278 N 
ATOM      8  H   UNL     1      -9.437  -4.848  -4.004  0.00  0.00    +0.155 HD
BRANCH   7   9
ATOM      9  C   UNL     1     -10.772  -6.022  -2.958  0.00  0.00    +0.034 A 
ATOM     10  C   UNL     1     -11.527  -5.942  -1.796  0.00  0.00    +0.028 A 
ATOM     11  C   UNL     1     -12.638  -6.750  -1.630  0.00  0.00    -0.024 A 
ATOM     12  C   UNL     1     -13.002  -7.638  -2.632  0.00  0.00    +0.043 A 
ATOM     13  C   UNL     1     -12.235  -7.730  -3.788  0.00  0.00    -0.023 A 
ATOM     14  C   UNL     1     -11.132  -6.917  -3.957  0.00  0.00    +0.028 A 
ATOM     15  C   UNL     1     -12.590  -8.728  -4.860  0.00  0.00    +0.046 C 
ATOM     16  C   UNL     1     -14.105  -8.912  -4.920  0.00  0.00    +0.101 C 
ATOM     17  C   UNL     1     -14.650  -9.117  -3.533  0.00  0.00    +0.220 C 
ATOM     18  O   UNL     1     -15.568  -9.889  -3.357  0.00  0.00    -0.275 OA
ATOM     19  N   UNL     1     -14.131  -8.454  -2.486  0.00  0.00    -0.271 N 
ATOM     20  C   UNL     1     -14.754  -8.582  -1.161  0.00  0.00    +0.114 C 
ATOM     21  C   UNL     1     -14.843  -7.179  -0.547  0.00  0.00    +0.024 C 
ATOM     22  C   UNL     1     -13.427  -6.638  -0.352  0.00  0.00    +0.038 C 
ENDBRANCH   7   9
ENDBRANCH   2   5
BRANCH   1  23
ATOM     23  C   UNL     1      -5.621  -3.022  -1.396  0.00  0.00    +0.094 C 
BRANCH  23  24
ATOM     24  C   UNL     1      -4.868  -2.923  -0.068  0.00  0.00    -0.020 C 
BRANCH  24  28
ATOM     25  C   UNL     1      -3.587  -6.818   1.136  0.00  0.00    +0.029 A 
ATOM     26  C   UNL     1      -4.725  -6.255   1.699  0.00  0.00    +0.023 A 
ATOM     27  C   UNL     1      -5.136  -4.996   1.308  0.00  0.00    +0.004 A 
ATOM     28  C   UNL     1      -4.416  -4.296   0.357  0.00  0.00    -0.059 A 
ATOM     29  C   UNL     1      -3.283  -4.854  -0.206  0.00  0.00    +0.004 A 
ATOM     30  C   UNL     1      -2.863  -6.111   0.184  0.00  0.00    +0.023 A 
BRANCH  25  32
ATOM     31  C   UNL     1      -1.965  -8.682   0.939  0.00  0.00    +0.129 C 
ATOM     32  N   UNL     1      -3.168  -8.091   1.529  0.00  0.00    -0.336 N 
ATOM     33  C   UNL     1      -3.933  -8.836   2.532  0.00  0.00    +0.129 C 
ENDBRANCH  25  32
ENDBRANCH  24  28
BRANCH  24  34
ATOM     34  N   UNL     1      -3.697  -2.051  -0.233  0.00  0.00    +0.385 N 
ATOM     35  C   UNL     1      -4.131  -0.653  -0.483  0.00  0.00    -0.078 C 
ATOM     36  C   UNL     1      -2.891   0.181  -0.074  0.00  0.00    -0.020 C 
ATOM     37  C   UNL     1      -2.349  -0.585   1.154  0.00  0.00    -0.020 C 
ATOM     38  C   UNL     1      -2.910  -2.012   1.018  0.00  0.00    -0.078 C 
ATOM     39  H   UNL     1      -3.123  -2.380  -0.995  0.00  0.00    -0.081 HD
ENDBRANCH  24  34
ENDBRANCH  23  24
ENDBRANCH   1  23
TORSDOF 7
