REMARK  Name = ZINC38990306
REMARK  9 active torsions:
REMARK  status: ('A' for Active; 'I' for Inactive)
REMARK    1  A    between atoms: C_1  and  C_2
REMARK    2  A    between atoms: C_4  and  C_8
REMARK    3  A    between atoms: C_12  and  S_16
REMARK    4  A    between atoms: N_14  and  N_15
REMARK    5  A    between atoms: S_16  and  C_17
REMARK    6  A    between atoms: C_17  and  C_18
REMARK    7  A    between atoms: N_20  and  C_21
REMARK    8  A    between atoms: C_24  and  S_27
REMARK    9  A    between atoms: S_27  and  N_30
REMARK                            x       y       z     vdW  Elec       q    Type
REMARK                         _______ _______ _______ _____ _____    ______ ____
ROOT
ATOM      1  S   UNL     1      -1.097  -6.062  -3.229  0.00  0.00    -0.115 S 
ENDROOT
BRANCH   1   5
ATOM      2  C   UNL     1      -0.978  -2.952  -1.241  0.00  0.00    +0.185 C 
ATOM      3  N   UNL     1      -0.334  -2.359  -2.442  0.00  0.00    -0.234 NA
ATOM      4  N   UNL     1      -0.368  -3.462  -3.416  0.00  0.00    -0.228 NA
ATOM      5  C   UNL     1      -0.103  -4.676  -2.610  0.00  0.00    +0.214 C 
ATOM      6  N   UNL     1      -0.496  -4.353  -1.220  0.00  0.00    -0.197 NA
ATOM      7  H   UNL     1      -0.856  -1.564  -2.778  0.00  0.00    +0.143 HD
ATOM      8  H   UNL     1       0.338  -3.339  -4.127  0.00  0.00    +0.143 HD
BRANCH   2  12
ATOM      9  C   UNL     1      -0.023   1.479   0.068  0.00  0.00    +0.067 C 
ATOM     10  C   UNL     1      -0.001  -0.028   0.049  0.00  0.00    +0.058 C 
ATOM     11  C   UNL     1      -1.089  -0.801   0.044  0.00  0.00    +0.029 C 
ATOM     12  C   UNL     1      -0.533  -2.214   0.023  0.00  0.00    +0.186 C 
ATOM     13  N   UNL     1       0.923  -1.997   0.019  0.00  0.00    -0.177 NA
ATOM     14  N   UNL     1       1.122  -0.779   0.028  0.00  0.00    -0.159 NA
ENDBRANCH   2  12
BRANCH   6  15
ATOM     15  N   UNL     1       0.629  -4.503  -0.312  0.00  0.00    -0.264 NA
ATOM     16  H   UNL     1       0.957  -5.457  -0.298  0.00  0.00    +0.137 HD
ATOM     17  H   UNL     1       1.375  -3.868  -0.553  0.00  0.00    +0.137 HD
ENDBRANCH   6  15
ENDBRANCH   1   5
BRANCH   1  18
ATOM     18  C   UNL     1      -2.807  -5.473  -3.090  0.00  0.00    +0.168 C 
BRANCH  18  19
ATOM     19  C   UNL     1      -3.748  -6.544  -3.578  0.00  0.00    +0.227 C 
ATOM     20  O   UNL     1      -3.308  -7.600  -3.980  0.00  0.00    -0.275 OA
ATOM     21  N   UNL     1      -5.078  -6.327  -3.568  0.00  0.00    -0.285 N 
ATOM     22  H   UNL     1      -5.434  -5.510  -3.184  0.00  0.00    +0.155 HD
BRANCH  21  23
ATOM     23  C   UNL     1      -5.946  -7.282  -4.110  0.00  0.00    +0.034 A 
ATOM     24  C   UNL     1      -7.098  -6.878  -4.772  0.00  0.00    +0.025 A 
ATOM     25  C   UNL     1      -7.953  -7.822  -5.306  0.00  0.00    +0.030 A 
ATOM     26  C   UNL     1      -7.663  -9.168  -5.182  0.00  0.00    +0.105 A 
ATOM     27  C   UNL     1      -6.517  -9.574  -4.523  0.00  0.00    +0.030 A 
ATOM     28  C   UNL     1      -5.655  -8.634  -3.992  0.00  0.00    +0.025 A 
BRANCH  26  29
ATOM     29  S   UNL     1      -8.756 -10.370  -5.865  0.00  0.00    +0.056 S 
ATOM     30  O   UNL     1      -8.541 -11.573  -5.140  0.00  0.00    -0.153 OA
ATOM     31  O   UNL     1     -10.033  -9.753  -5.954  0.00  0.00    -0.153 OA
BRANCH  29  32
ATOM     32  N   UNL     1      -8.260 -10.657  -7.418  0.00  0.00    -0.204 NA
ATOM     33  H   UNL     1      -7.491 -10.187  -7.776  0.00  0.00    +0.144 HD
ATOM     34  H   UNL     1      -8.738 -11.296  -7.970  0.00  0.00    +0.144 HD
ENDBRANCH  29  32
ENDBRANCH  26  29
ENDBRANCH  21  23
ENDBRANCH  18  19
ENDBRANCH   1  18
TORSDOF 8
