REMARK  Name = ZINC04965421
REMARK  5 active torsions:
REMARK  status: ('A' for Active; 'I' for Inactive)
REMARK    1  A    between atoms: C_4  and  N_7
REMARK    2  A    between atoms: N_10  and  C_11
REMARK    3  A    between atoms: C_11  and  C_17
REMARK    4  A    between atoms: N_19  and  C_20
REMARK    5  A    between atoms: C_20  and  C_21
REMARK                            x       y       z     vdW  Elec       q    Type
REMARK                         _______ _______ _______ _____ _____    ______ ____
ROOT
ATOM      1  C   UNL     1       4.146   0.656   2.114  0.00  0.00    +0.112 C 
ATOM      2  C   UNL     1       3.749   1.664   3.195  0.00  0.00    +0.035 C 
ATOM      3  C   UNL     1       4.373   1.252   4.529  0.00  0.00    +0.003 C 
ATOM      4  C   UNL     1       5.897   1.223   4.393  0.00  0.00    +0.000 C 
ATOM      5  C   UNL     1       6.293   0.215   3.312  0.00  0.00    +0.003 C 
ATOM      6  C   UNL     1       5.669   0.627   1.977  0.00  0.00    +0.035 C 
ENDROOT
BRANCH   1  10
ATOM      7  N   UNL     1       1.894  -2.163   2.816  0.00  0.00    -0.269 N 
ATOM      8  C   UNL     1       2.340  -0.915   2.571  0.00  0.00    +0.305 C 
ATOM      9  O   UNL     1       1.547  -0.005   2.424  0.00  0.00    -0.252 OA
ATOM     10  N   UNL     1       3.664  -0.676   2.488  0.00  0.00    -0.285 N 
ATOM     11  H   UNL     1       2.526  -2.876   3.002  0.00  0.00    +0.156 HD
ATOM     12  H   UNL     1       4.297  -1.386   2.676  0.00  0.00    +0.151 HD
BRANCH   7  16
ATOM     13  C   UNL     1      -2.195  -2.962   2.777  0.00  0.00    +0.000 A 
ATOM     14  C   UNL     1      -1.301  -3.917   2.330  0.00  0.00    +0.002 A 
ATOM     15  C   UNL     1       0.056  -3.656   2.341  0.00  0.00    +0.023 A 
ATOM     16  C   UNL     1       0.521  -2.431   2.803  0.00  0.00    +0.035 A 
ATOM     17  C   UNL     1      -0.379  -1.476   3.256  0.00  0.00    +0.023 A 
ATOM     18  C   UNL     1      -1.734  -1.742   3.237  0.00  0.00    +0.002 A 
ENDBRANCH   7  16
ENDBRANCH   1  10
BRANCH   1  19
ATOM     19  C   UNL     1       3.531   1.061   0.799  0.00  0.00    +0.237 C 
ATOM     20  O   UNL     1       3.226   2.219   0.604  0.00  0.00    -0.273 OA
ATOM     21  N   UNL     1       3.320   0.138  -0.160  0.00  0.00    -0.313 N 
ATOM     22  H   UNL     1       3.630  -0.773  -0.033  0.00  0.00    +0.149 HD
BRANCH  21  23
ATOM     23  C   UNL     1       2.623   0.509  -1.394  0.00  0.00    +0.107 C 
BRANCH  23  24
ATOM     24  C   UNL     1       2.517  -0.714  -2.307  0.00  0.00    +0.006 C 
ATOM     25  C   UNL     1       1.629  -1.770  -1.643  0.00  0.00    +0.005 C 
ATOM     26  C   UNL     1       1.522  -2.993  -2.556  0.00  0.00    +0.000 C 
ATOM     27  C   UNL     1       0.908  -2.578  -3.894  0.00  0.00    +0.000 C 
ATOM     28  C   UNL     1       1.795  -1.523  -4.558  0.00  0.00    +0.000 C 
ATOM     29  C   UNL     1       1.902  -0.300  -3.645  0.00  0.00    +0.005 C 
ENDBRANCH  23  24
ENDBRANCH  21  23
ENDBRANCH   1  19
TORSDOF 5
