REMARK  Name = ZINC24773991
REMARK  9 active torsions:
REMARK  status: ('A' for Active; 'I' for Inactive)
REMARK    1  A    between atoms: C_1  and  C_2
REMARK    2  A    between atoms: C_5  and  C_9
REMARK    3  A    between atoms: C_6  and  C_8
REMARK    4  A    between atoms: N_11  and  N_12
REMARK    5  A    between atoms: C_13  and  C_15
REMARK    6  A    between atoms: C_15  and  S_16
REMARK    7  A    between atoms: S_16  and  C_17
REMARK    8  A    between atoms: N_30  and  C_31
REMARK    9  A    between atoms: C_31  and  C_32
REMARK                            x       y       z     vdW  Elec       q    Type
REMARK                         _______ _______ _______ _____ _____    ______ ____
ROOT
ATOM      1  S   UNL     1       0.980   3.671   1.672  0.00  0.00    -0.076 S 
ENDROOT
BRANCH   1   2
ATOM      2  C   UNL     1       2.573   4.371   1.950  0.00  0.00    +0.198 A 
ATOM      3  N   UNL     1       3.710   3.719   1.960  0.00  0.00    -0.120 NA
ATOM      4  N   UNL     1       4.734   4.638   2.216  0.00  0.00    -0.109 NA
ATOM      5  C   UNL     1       4.192   5.827   2.355  0.00  0.00    +0.240 A 
ATOM      6  N   UNL     1       2.841   5.692   2.188  0.00  0.00    -0.256 N 
ATOM      7  C   UNL     1       2.002   6.801   2.275  0.00  0.00    +0.064 A 
ATOM      8  C   UNL     1       0.631   6.674   2.111  0.00  0.00    +0.027 A 
ATOM      9  C   UNL     1      -0.178   7.790   2.202  0.00  0.00    +0.002 A 
ATOM     10  C   UNL     1       0.368   9.038   2.457  0.00  0.00    +0.001 A 
ATOM     11  C   UNL     1       1.730   9.182   2.623  0.00  0.00    +0.015 A 
ATOM     12  C   UNL     1       2.557   8.064   2.534  0.00  0.00    +0.064 A 
ATOM     13  C   UNL     1       4.017   8.176   2.705  0.00  0.00    +0.263 A 
ATOM     14  O   UNL     1       4.532   9.254   2.930  0.00  0.00    -0.267 OA
ATOM     15  N   UNL     1       4.769   7.060   2.617  0.00  0.00    -0.273 N 
BRANCH  15  16
ATOM     16  C   UNL     1       6.222   7.156   2.783  0.00  0.00    +0.155 C 
BRANCH  16  17
ATOM     17  C   UNL     1       6.864   7.418   1.444  0.00  0.00    -0.013 C 
ATOM     18  C   UNL     1       7.652   8.452   1.288  0.00  0.00    +0.005 C 
ENDBRANCH  16  17
ENDBRANCH  15  16
ENDBRANCH   1   2
BRANCH   1  19
ATOM     19  C   UNL     1       1.315   1.906   1.418  0.00  0.00    +0.174 C 
BRANCH  19  21
ATOM     20  N   UNL     1       0.022  -0.150   0.949  0.00  0.00    -0.233 N 
ATOM     21  C   UNL     1       0.018   1.180   1.166  0.00  0.00    +0.239 C 
ATOM     22  O   UNL     1      -1.028   1.794   1.153  0.00  0.00    -0.273 OA
ATOM     23  H   UNL     1       0.971  -0.706   0.956  0.00  0.00    +0.173 HD
BRANCH  20  26
ATOM     24  C   UNL     1      -1.180  -2.155   0.498  0.00  0.00    +0.260 C 
ATOM     25  O   UNL     1      -0.131  -2.769   0.505  0.00  0.00    -0.269 OA
ATOM     26  N   UNL     1      -1.184  -0.825   0.715  0.00  0.00    -0.230 N 
ATOM     27  H   UNL     1      -2.133  -0.269   0.708  0.00  0.00    +0.173 HD
BRANCH  24  32
ATOM     28  C   UNL     1      -6.130  -4.926  -0.465  0.00  0.00    +0.044 C 
ATOM     29  C   UNL     1      -4.834  -4.201  -0.213  0.00  0.00    -0.050 A 
ATOM     30  C   UNL     1      -4.851  -2.862   0.138  0.00  0.00    +0.004 A 
ATOM     31  C   UNL     1      -3.668  -2.192   0.369  0.00  0.00    +0.013 A 
ATOM     32  C   UNL     1      -2.452  -2.867   0.251  0.00  0.00    +0.041 A 
ATOM     33  C   UNL     1      -2.442  -4.216  -0.108  0.00  0.00    -0.038 A 
ATOM     34  C   UNL     1      -3.632  -4.876  -0.333  0.00  0.00    +0.007 A 
ATOM     35  C   UNL     1      -1.133  -4.951  -0.245  0.00  0.00    +0.044 C 
ENDBRANCH  24  32
ENDBRANCH  20  26
ENDBRANCH  19  21
ENDBRANCH   1  19
TORSDOF 7
