REMARK  Name = ZINC00794358
REMARK  6 active torsions:
REMARK  status: ('A' for Active; 'I' for Inactive)
REMARK    1  A    between atoms: C_1  and  C_2
REMARK    2  A    between atoms: C_2  and  O_3
REMARK    3  A    between atoms: O_3  and  C_4
REMARK    4  A    between atoms: C_7  and  C_18
REMARK    5  A    between atoms: C_7  and  O_22
REMARK    6  A    between atoms: C_9  and  C_11
REMARK                            x       y       z     vdW  Elec       q    Type
REMARK                         _______ _______ _______ _____ _____    ______ ____
ROOT
ATOM      1  C   UNL     1       1.587   9.090   0.036  0.00  0.00    +0.425 C 
ATOM      2  O   UNL     1       1.222  10.249   0.045  0.00  0.00    -0.224 OA
ATOM      3  N   UNL     1       0.675   8.097   0.040  0.00  0.00    -0.117 N 
ATOM      4  C   UNL     1      -0.785   8.275   0.054  0.00  0.00    +0.260 C 
ATOM      5  C   UNL     1      -1.326   6.832   0.046  0.00  0.00    +0.124 C 
ATOM      6  C   UNL     1      -0.079   5.976   0.035  0.00  0.00    +0.072 C 
ATOM      7  N   UNL     1       0.963   6.733   0.029  0.00  0.00    -0.176 NA
ENDROOT
BRANCH   6   8
ATOM      8  C   UNL     1      -0.059   4.501   0.027  0.00  0.00    -0.002 A 
ATOM      9  C   UNL     1       1.158   3.817   0.011  0.00  0.00    +0.011 A 
ATOM     10  C   UNL     1       1.170   2.438   0.004  0.00  0.00    +0.020 A 
ATOM     11  C   UNL     1      -0.021   1.732   0.012  0.00  0.00    +0.041 A 
ATOM     12  C   UNL     1      -1.232   2.405   0.021  0.00  0.00    +0.020 A 
ATOM     13  C   UNL     1      -1.257   3.784   0.034  0.00  0.00    +0.011 A 
ATOM     14 CL   UNL     1       0.002  -0.004   0.002  0.00  0.00    -0.084 Cl
ENDBRANCH   6   8
BRANCH   4  15
ATOM     15  C   UNL     1      -1.225   9.012   1.321  0.00  0.00    +0.438 C 
ATOM     16  F   UNL     1      -0.640  10.283   1.348  0.00  0.00    -0.166 F 
ATOM     17  F   UNL     1      -2.618   9.140   1.327  0.00  0.00    -0.166 F 
ATOM     18  F   UNL     1      -0.818   8.289   2.447  0.00  0.00    -0.166 F 
ENDBRANCH   4  15
BRANCH   4  19
ATOM     19  O   UNL     1      -1.218   8.976  -1.113  0.00  0.00    -0.363 OA
ATOM     20  H   UNL     1      -0.851   9.867  -1.195  0.00  0.00    +0.212 HD
ENDBRANCH   4  19
BRANCH   1  21
ATOM     21  O   UNL     1       2.901   8.797   0.023  0.00  0.00    -0.449 OA
BRANCH  21  23
ATOM     22  C   UNL     1       5.263   9.392   0.004  0.00  0.00    +0.048 C 
ATOM     23  C   UNL     1       3.826   9.917   0.020  0.00  0.00    +0.230 C 
ENDBRANCH  21  23
ENDBRANCH   1  21
TORSDOF 5
