REMARK  Name = ZINC09403374
REMARK  12 active torsions:
REMARK  status: ('A' for Active; 'I' for Inactive)
REMARK    1  A    between atoms: C_1  and  C_2
REMARK    2  A    between atoms: C_7  and  C_12
REMARK    3  A    between atoms: C_12  and  C_14
REMARK    4  A    between atoms: N_18  and  C_29
REMARK    5  A    between atoms: C_19  and  C_21
REMARK    6  A    between atoms: C_24  and  O_27
REMARK    7  A    between atoms: O_27  and  C_28
REMARK    8  A    between atoms: C_29  and  C_30
REMARK    9  A    between atoms: C_30  and  C_31
REMARK   10  A    between atoms: C_31  and  N_32
REMARK   11  A    between atoms: N_32  and  C_33
REMARK   12  A    between atoms: N_32  and  C_34
REMARK                            x       y       z     vdW  Elec       q    Type
REMARK                         _______ _______ _______ _____ _____    ______ ____
ROOT
ATOM      1  C   UNL     1       1.370  -2.476  -1.369  0.00  0.00    +0.076 C 
ATOM      2  C   UNL     1       2.426  -3.287  -1.127  0.00  0.00    +0.249 C 
ATOM      3  C   UNL     1       2.985  -2.972   0.205  0.00  0.00    +0.288 C 
ATOM      4  O   UNL     1       3.940  -3.528   0.710  0.00  0.00    -0.266 OA
ATOM      5  N   UNL     1       2.280  -1.977   0.775  0.00  0.00    -0.284 N 
ATOM      6  C   UNL     1       1.217  -1.586  -0.158  0.00  0.00    +0.145 C 
ATOM      7  O   UNL     1       2.895  -4.237  -1.969  0.00  0.00    -0.282 OA
ENDROOT
BRANCH   6   8
ATOM      8  C   UNL     1       1.380  -0.141  -0.553  0.00  0.00    -0.022 A 
ATOM      9  C   UNL     1       0.273   0.685  -0.622  0.00  0.00    +0.009 A 
ATOM     10  C   UNL     1       0.419   2.010  -0.983  0.00  0.00    +0.046 A 
ATOM     11  C   UNL     1       1.679   2.512  -1.277  0.00  0.00    +0.120 A 
ATOM     12  C   UNL     1       2.788   1.682  -1.207  0.00  0.00    +0.046 A 
ATOM     13  C   UNL     1       2.636   0.357  -0.845  0.00  0.00    +0.009 A 
BRANCH  11  14
ATOM     14  O   UNL     1       1.825   3.816  -1.633  0.00  0.00    -0.495 OA
ATOM     15  C   UNL     1       3.151   4.264  -1.922  0.00  0.00    +0.277 C 
ENDBRANCH  11  14
ENDBRANCH   6   8
BRANCH   1  16
ATOM     16  C   UNL     1       0.536  -2.463  -2.575  0.00  0.00    +0.195 C 
ATOM     17  O   UNL     1       1.024  -2.162  -3.649  0.00  0.00    -0.287 OA
BRANCH  16  23
ATOM     18  C   UNL     1      -5.960  -1.718  -3.259  0.00  0.00    +0.052 C 
ATOM     19  C   UNL     1      -5.426  -3.105  -3.623  0.00  0.00    +0.175 C 
ATOM     20  C   UNL     1      -4.178  -2.991  -4.530  0.00  0.00    +0.083 C 
ATOM     21  C   UNL     1      -3.050  -3.025  -3.517  0.00  0.00    -0.002 A 
ATOM     22  C   UNL     1      -1.723  -2.688  -3.607  0.00  0.00    +0.019 A 
ATOM     23  C   UNL     1      -0.894  -2.816  -2.487  0.00  0.00    +0.023 A 
ATOM     24  C   UNL     1      -1.434  -3.276  -1.282  0.00  0.00    +0.015 A 
ATOM     25  C   UNL     1      -2.765  -3.607  -1.202  0.00  0.00    +0.046 A 
ATOM     26  C   UNL     1      -3.592  -3.489  -2.321  0.00  0.00    +0.124 A 
ATOM     27  O   UNL     1      -4.914  -3.775  -2.459  0.00  0.00    -0.488 OA
ENDBRANCH  16  23
ENDBRANCH   1  16
BRANCH   5  28
ATOM     28  C   UNL     1       2.531  -1.389   2.093  0.00  0.00    +0.107 C 
BRANCH  28  29
ATOM     29  C   UNL     1       1.735  -2.154   3.152  0.00  0.00    +0.000 C 
BRANCH  29  30
ATOM     30  C   UNL     1       1.996  -1.539   4.529  0.00  0.00    -0.078 C 
BRANCH  30  31
ATOM     31  N   UNL     1       1.232  -2.274   5.546  0.00  0.00    +0.376 N 
ATOM     32  C   UNL     1       1.722  -3.652   5.679  0.00  0.00    -0.097 C 
ATOM     33  C   UNL     1       1.268  -1.575   6.837  0.00  0.00    -0.097 C 
ATOM     34  H   UNL     1       0.184  -2.318   5.215  0.00  0.00    -0.083 HD
ENDBRANCH  30  31
ENDBRANCH  29  30
ENDBRANCH  28  29
ENDBRANCH   5  28
TORSDOF 8
