REMARK  Name = ZINC35829409
REMARK  15 active torsions:
REMARK  status: ('A' for Active; 'I' for Inactive)
REMARK    1  A    between atoms: C_1  and  C_2
REMARK    2  A    between atoms: C_2  and  C_3
REMARK    3  A    between atoms: C_3  and  N_4
REMARK    4  A    between atoms: N_4  and  C_5
REMARK    5  A    between atoms: C_5  and  C_6
REMARK    6  A    between atoms: N_10  and  C_11
REMARK    7  A    between atoms: C_11  and  C_12
REMARK    8  A    between atoms: C_15  and  C_17
REMARK    9  A    between atoms: N_19  and  C_20
REMARK   10  A    between atoms: C_20  and  C_21
REMARK   11  A    between atoms: C_21  and  C_22
REMARK   12  A    between atoms: C_22  and  N_23
REMARK   13  A    between atoms: C_28  and  C_30
REMARK   14  A    between atoms: C_31  and  C_33
REMARK   15  A    between atoms: C_38  and  C_39
REMARK                            x       y       z     vdW  Elec       q    Type
REMARK                         _______ _______ _______ _____ _____    ______ ____
ROOT
ATOM      1  C   UNL     1      -1.242  -1.167  -4.101  0.00  0.00    +0.195 C 
ENDROOT
BRANCH   1   6
ATOM      2  C   UNL     1      -0.242  -2.783  -5.750  0.00  0.00    +0.037 A 
ATOM      3  C   UNL     1       0.582  -3.849  -5.698  0.00  0.00    +0.024 A 
ATOM      4  C   UNL     1       0.919  -4.055  -4.345  0.00  0.00    +0.019 A 
ATOM      5  C   UNL     1       0.288  -3.107  -3.623  0.00  0.00    +0.086 A 
ATOM      6  N   UNL     1      -0.421  -2.319  -4.481  0.00  0.00    -0.342 N 
BRANCH   2   7
ATOM      7  C   UNL     1      -0.854  -2.200  -6.998  0.00  0.00    +0.161 C 
BRANCH   7   8
ATOM      8  N   UNL     1      -2.170  -2.802  -7.224  0.00  0.00    -0.292 N 
ATOM      9  C   UNL     1      -2.286  -3.896  -8.003  0.00  0.00    +0.247 C 
ATOM     10  O   UNL     1      -1.291  -4.434  -8.447  0.00  0.00    -0.270 OA
BRANCH   9  11
ATOM     11  C   UNL     1      -3.624  -4.441  -8.317  0.00  0.00    +0.040 A 
ATOM     12  C   UNL     1      -4.486  -4.820  -7.287  0.00  0.00    +0.013 A 
ATOM     13  C   UNL     1      -5.733  -5.327  -7.586  0.00  0.00    +0.001 A 
ATOM     14  C   UNL     1      -6.130  -5.462  -8.905  0.00  0.00    +0.000 A 
ATOM     15  C   UNL     1      -5.280  -5.088  -9.931  0.00  0.00    +0.004 A 
ATOM     16  C   UNL     1      -4.033  -4.574  -9.645  0.00  0.00    -0.038 A 
ATOM     17  C   UNL     1      -3.111  -4.162 -10.763  0.00  0.00    +0.044 C 
ENDBRANCH   9  11
BRANCH   8  18
ATOM     18  C   UNL     1      -3.360  -2.215  -6.603  0.00  0.00    +0.108 C 
BRANCH  18  20
ATOM     19  C   UNL     1      -5.191  -0.540  -6.893  0.00  0.00    +0.005 C 
ATOM     20  C   UNL     1      -4.021  -1.245  -7.583  0.00  0.00    +0.016 C 
ENDBRANCH  18  20
ENDBRANCH   8  18
ENDBRANCH   7   8
ENDBRANCH   2   7
ENDBRANCH   1   6
BRANCH   1  21
ATOM     21  C   UNL     1      -0.349  -0.034  -3.665  0.00  0.00    +0.126 A 
ATOM     22  C   UNL     1       0.078   0.978  -4.452  0.00  0.00    +0.047 A 
ATOM     23  C   UNL     1       0.883   1.808  -3.656  0.00  0.00    +0.055 A 
ATOM     24  C   UNL     1       0.907   1.253  -2.408  0.00  0.00    +0.189 A 
ATOM     25  O   UNL     1       0.148   0.138  -2.433  0.00  0.00    -0.453 OA
BRANCH  24  26
ATOM     26  C   UNL     1       1.626   1.780  -1.244  0.00  0.00    +0.279 C 
ATOM     27  O   UNL     1       2.201   2.850  -1.317  0.00  0.00    -0.267 OA
ATOM     28  N   UNL     1       1.651   1.079  -0.093  0.00  0.00    -0.309 N 
ATOM     29  H   UNL     1       1.255   0.195  -0.056  0.00  0.00    +0.149 HD
BRANCH  28  30
ATOM     30  C   UNL     1       2.276   1.653   1.101  0.00  0.00    +0.103 C 
BRANCH  30  31
ATOM     31  C   UNL     1       2.279   0.615   2.224  0.00  0.00    +0.000 C 
BRANCH  31  32
ATOM     32  C   UNL     1       2.932   1.215   3.471  0.00  0.00    -0.077 C 
BRANCH  32  33
ATOM     33  N   UNL     1       2.934   0.218   4.551  0.00  0.00    +0.381 N 
ATOM     34  C   UNL     1       1.550  -0.087   4.935  0.00  0.00    -0.078 C 
ATOM     35  C   UNL     1       1.544  -1.184   6.002  0.00  0.00    -0.019 C 
ATOM     36  C   UNL     1       2.321  -0.699   7.229  0.00  0.00    -0.003 C 
ATOM     37  C   UNL     1       3.740  -0.313   6.802  0.00  0.00    -0.016 C 
ATOM     38  C   UNL     1       3.666   0.751   5.706  0.00  0.00    -0.072 C 
ATOM     39  C   UNL     1       5.081   1.141   5.276  0.00  0.00    -0.013 C 
ATOM     40  H   UNL     1       3.385  -0.625   4.228  0.00  0.00    -0.081 HD
ENDBRANCH  32  33
ENDBRANCH  31  32
ENDBRANCH  30  31
ENDBRANCH  28  30
ENDBRANCH  24  26
ENDBRANCH   1  21
TORSDOF 12
