REMARK  Name = ZINC00112328
REMARK  3 active torsions:
REMARK  status: ('A' for Active; 'I' for Inactive)
REMARK    1  A    between atoms: C_6  and  N_7
REMARK    2  A    between atoms: C_13  and  C_15
REMARK    3  A    between atoms: C_15  and  C_16
REMARK                            x       y       z     vdW  Elec       q    Type
REMARK                         _______ _______ _______ _____ _____    ______ ____
ROOT
ATOM      1  C   UNL     1       1.169   2.089   0.002  0.00  0.00    +0.036 A 
ATOM      2  C   UNL     1      -0.017   1.385   0.010  0.00  0.00    +0.049 A 
ATOM      3  C   UNL     1       0.002  -0.004   0.002  0.00  0.00    +0.139 A 
ATOM      4  C   UNL     1       1.236  -0.675  -0.013  0.00  0.00    +0.066 A 
ATOM      5  C   UNL     1       2.427   0.047  -0.020  0.00  0.00    +0.048 A 
ATOM      6  C   UNL     1       2.387   1.425  -0.012  0.00  0.00    +0.127 A 
ATOM      7  C   UNL     1       1.229  -2.151  -0.021  0.00  0.00    +0.193 A 
ATOM      8  O   UNL     1       2.266  -2.791  -0.034  0.00  0.00    -0.287 OA
ATOM      9  C   UNL     1      -0.037  -2.794  -0.013  0.00  0.00    +0.099 A 
ATOM     10  C   UNL     1      -1.159  -2.051   0.002  0.00  0.00    +0.187 A 
ATOM     11  O   UNL     1      -1.144  -0.714   0.010  0.00  0.00    -0.453 OA
ENDROOT
BRANCH   6  12
ATOM     12  N   UNL     1       3.648   2.199  -0.020  0.00  0.00    +0.056 N 
ATOM     13  O   UNL     1       4.719   1.619  -0.033  0.00  0.00    -0.126 OA
ATOM     14  O   UNL     1       3.615   3.417  -0.012  0.00  0.00    -0.126 OA
ENDBRANCH   6  12
BRANCH  10  15
ATOM     15  C   UNL     1      -2.490  -2.757   0.012  0.00  0.00    +0.398 C 
ATOM     16  F   UNL     1      -2.361  -3.988   0.664  0.00  0.00    -0.187 F 
ATOM     17  F   UNL     1      -3.431  -1.970   0.684  0.00  0.00    -0.187 F 
BRANCH  15  18
ATOM     18  C   UNL     1      -2.955  -2.989  -1.427  0.00  0.00    +0.462 C 
ATOM     19  F   UNL     1      -2.014  -3.777  -2.100  0.00  0.00    -0.165 F 
ATOM     20  F   UNL     1      -4.191  -3.645  -1.419  0.00  0.00    -0.165 F 
ATOM     21  F   UNL     1      -3.085  -1.758  -2.080  0.00  0.00    -0.165 F 
ENDBRANCH  15  18
ENDBRANCH  10  15
TORSDOF 3
