REMARK  Name = ZINC64289882
REMARK  10 active torsions:
REMARK  status: ('A' for Active; 'I' for Inactive)
REMARK    1  A    between atoms: C_1  and  C_2
REMARK    2  A    between atoms: C_2  and  C_3
REMARK    3  A    between atoms: C_3  and  C_4
REMARK    4  A    between atoms: C_4  and  C_5
REMARK    5  A    between atoms: C_4  and  N_22
REMARK    6  A    between atoms: N_7  and  C_8
REMARK    7  A    between atoms: C_8  and  C_9
REMARK    8  A    between atoms: C_8  and  C_17
REMARK    9  A    between atoms: C_12  and  C_15
REMARK   10  A    between atoms: C_15  and  C_16
REMARK                            x       y       z     vdW  Elec       q    Type
REMARK                         _______ _______ _______ _____ _____    ______ ____
ROOT
ATOM      1  C   UNL     1       1.382  -2.542   2.512  0.00  0.00    +0.234 C 
ATOM      2  O   UNL     1       2.541  -2.900   2.525  0.00  0.00    -0.274 OA
ATOM      3  N   UNL     1       0.649  -2.591   3.642  0.00  0.00    -0.302 N 
ATOM      4  H   UNL     1      -0.278  -2.305   3.632  0.00  0.00    +0.150 HD
ENDROOT
BRANCH   1   5
ATOM      5  C   UNL     1       0.763  -2.041   1.233  0.00  0.00    +0.160 C 
BRANCH   5   6
ATOM      6  N   UNL     1       1.551  -2.512   0.092  0.00  0.00    -0.288 N 
ATOM      7  C   UNL     1       2.849  -2.168  -0.019  0.00  0.00    +0.298 C 
ATOM      8  O   UNL     1       3.367  -1.467   0.829  0.00  0.00    -0.253 OA
ATOM      9  N   UNL     1       3.574  -2.602  -1.069  0.00  0.00    -0.313 N 
ATOM     10  H   UNL     1       1.138  -3.072  -0.585  0.00  0.00    +0.151 HD
ATOM     11  H   UNL     1       3.161  -3.162  -1.745  0.00  0.00    +0.146 HD
ATOM     12  H   UNL     1       4.509  -2.354  -1.149  0.00  0.00    +0.146 HD
ENDBRANCH   5   6
BRANCH   5  13
ATOM     13  C   UNL     1       0.742  -0.511   1.242  0.00  0.00    +0.031 C 
BRANCH  13  15
ATOM     14  C   UNL     1      -0.019   1.526   0.010  0.00  0.00    +0.004 C 
ATOM     15  C   UNL     1       0.002  -0.004   0.002  0.00  0.00    -0.001 C 
ENDBRANCH  13  15
ENDBRANCH   5  13
ENDBRANCH   1   5
BRANCH   3  16
ATOM     16  C   UNL     1       1.251  -3.079   4.885  0.00  0.00    +0.140 C 
BRANCH  16  17
ATOM     17  C   UNL     1       0.514  -2.494   6.063  0.00  0.00    -0.022 A 
ATOM     18  C   UNL     1      -0.863  -2.383   6.030  0.00  0.00    +0.006 A 
ATOM     19  C   UNL     1      -1.539  -1.847   7.111  0.00  0.00    +0.004 A 
ATOM     20  C   UNL     1      -0.837  -1.422   8.223  0.00  0.00    -0.048 A 
ATOM     21  C   UNL     1       0.540  -1.534   8.256  0.00  0.00    +0.004 A 
ATOM     22  C   UNL     1       1.216  -2.074   7.178  0.00  0.00    +0.006 A 
BRANCH  20  23
ATOM     23  C   UNL     1      -1.574  -0.837   9.401  0.00  0.00    +0.032 C 
ATOM     24  C   UNL     1      -1.945  -1.954  10.377  0.00  0.00    +0.009 C 
ENDBRANCH  20  23
ENDBRANCH  16  17
BRANCH  16  25
ATOM     25  C   UNL     1       1.161  -4.582   4.932  0.00  0.00    +0.014 A 
ATOM     26  C   UNL     1       2.076  -5.479   5.372  0.00  0.00    +0.013 A 
ATOM     27  C   UNL     1       1.773  -6.827   5.321  0.00  0.00    +0.008 A 
ATOM     28  C   UNL     1       0.569  -7.211   4.832  0.00  0.00    +0.045 A 
ATOM     29  S   UNL     1      -0.184  -5.644   4.429  0.00  0.00    -0.099 S 
ENDBRANCH  16  25
ENDBRANCH   3  16
TORSDOF 8
