REMARK  Name = ZINC41123292
REMARK  5 active torsions:
REMARK  status: ('A' for Active; 'I' for Inactive)
REMARK    1  A    between atoms: C_1  and  C_2
REMARK    2  A    between atoms: C_4  and  C_7
REMARK    3  A    between atoms: C_14  and  C_16
REMARK    4  A    between atoms: C_16  and  C_17
REMARK    5  A    between atoms: C_17  and  C_18
REMARK                            x       y       z     vdW  Elec       q    Type
REMARK                         _______ _______ _______ _____ _____    ______ ____
ROOT
ATOM      1  C   UNL     1       0.034  -3.209  -1.693  0.00  0.00    +0.165 C 
ATOM      2  C   UNL     1      -1.307  -3.946  -1.621  0.00  0.00    +0.032 C 
ATOM      3  C   UNL     1      -1.237  -5.209  -2.483  0.00  0.00    +0.004 C 
ATOM      4  C   UNL     1      -0.146  -6.137  -1.944  0.00  0.00    +0.019 C 
ATOM      5  C   UNL     1       1.208  -5.424  -2.019  0.00  0.00    +0.108 C 
ATOM      6  N   UNL     1       1.108  -4.138  -1.316  0.00  0.00    -0.290 N 
ATOM      7  C   UNL     1       1.983  -3.817  -0.342  0.00  0.00    +0.216 C 
ATOM      8  O   UNL     1       1.837  -2.792   0.291  0.00  0.00    -0.276 OA
ENDROOT
BRANCH   1  12
ATOM      9  C   UNL     1       0.570   1.431   0.117  0.00  0.00    +0.091 C 
ATOM     10  C   UNL     1       0.246  -0.039   0.054  0.00  0.00    +0.169 A 
ATOM     11  N   UNL     1       0.389  -0.821  -1.022  0.00  0.00    -0.195 NA
ATOM     12  C   UNL     1       0.019  -2.040  -0.742  0.00  0.00    +0.248 A 
ATOM     13  O   UNL     1      -0.375  -2.075   0.537  0.00  0.00    -0.336 OA
ATOM     14  N   UNL     1      -0.213  -0.756   1.039  0.00  0.00    -0.062 NA
ENDBRANCH   1  12
BRANCH   7  15
ATOM     15  C   UNL     1       3.142  -4.731  -0.039  0.00  0.00    +0.096 C 
BRANCH  15  16
ATOM     16  C   UNL     1       3.974  -4.139   1.100  0.00  0.00    +0.013 C 
BRANCH  16  17
ATOM     17  C   UNL     1       5.151  -5.067   1.408  0.00  0.00    -0.011 C 
ATOM     18  C   UNL     1       4.623  -6.400   1.943  0.00  0.00    +0.003 C 
ATOM     19  C   UNL     1       5.800  -7.328   2.251  0.00  0.00    +0.000 C 
ATOM     20  C   UNL     1       6.701  -6.678   3.302  0.00  0.00    +0.000 C 
ATOM     21  C   UNL     1       7.229  -5.345   2.767  0.00  0.00    +0.000 C 
ATOM     22  C   UNL     1       6.053  -4.417   2.459  0.00  0.00    +0.003 C 
ENDBRANCH  16  17
ENDBRANCH  15  16
ENDBRANCH   7  15
TORSDOF 4
