REMARK  Name = ZINC12828857
REMARK  4 active torsions:
REMARK  status: ('A' for Active; 'I' for Inactive)
REMARK    1  A    between atoms: C_4  and  N_7
REMARK    2  A    between atoms: C_16  and  C_18
REMARK    3  A    between atoms: C_18  and  C_19
REMARK    4  A    between atoms: C_19  and  C_20
REMARK                            x       y       z     vdW  Elec       q    Type
REMARK                         _______ _______ _______ _____ _____    ______ ____
ROOT
ATOM      1  N   UNL     1      -0.675  -5.027  11.396  0.00  0.00    -0.214 N 
ATOM      2  C   UNL     1      -1.563  -4.920  10.370  0.00  0.00    +0.170 A 
ATOM      3  C   UNL     1      -2.748  -5.539  10.800  0.00  0.00    +0.103 A 
ATOM      4  C   UNL     1      -2.523  -6.010  12.107  0.00  0.00    +0.150 A 
ATOM      5  N   UNL     1      -1.301  -5.704  12.450  0.00  0.00    -0.172 NA
ATOM      6  C   UNL     1      -3.884  -5.567   9.879  0.00  0.00    +0.262 A 
ATOM      7  O   UNL     1      -4.939  -6.090  10.193  0.00  0.00    -0.267 OA
ATOM      8  N   UNL     1      -3.719  -4.992   8.665  0.00  0.00    -0.310 N 
ATOM      9  H   UNL     1      -4.547  -4.990   7.940  0.00  0.00    +0.170 HD
ATOM     10  C   UNL     1      -2.535  -4.416   8.336  0.00  0.00    +0.113 A 
ATOM     11  N   UNL     1      -1.513  -4.386   9.140  0.00  0.00    -0.214 NA
ENDROOT
BRANCH   1  15
ATOM     12  C   UNL     1       3.235  -3.586  11.401  0.00  0.00    +0.000 A 
ATOM     13  C   UNL     1       2.491  -3.565  12.566  0.00  0.00    +0.002 A 
ATOM     14  C   UNL     1       1.195  -4.042  12.568  0.00  0.00    +0.028 A 
ATOM     15  C   UNL     1       0.639  -4.543  11.398  0.00  0.00    +0.068 A 
ATOM     16  C   UNL     1       1.391  -4.567  10.231  0.00  0.00    +0.028 A 
ATOM     17  C   UNL     1       2.685  -4.083  10.234  0.00  0.00    +0.002 A 
ENDBRANCH   1  15
BRANCH  10  18
ATOM     18  C   UNL     1      -2.397  -3.786   6.974  0.00  0.00    +0.083 C 
BRANCH  18  19
ATOM     19  C   UNL     1      -0.990  -3.203   6.822  0.00  0.00    +0.104 C 
BRANCH  19  20
ATOM     20  C   UNL     1      -0.851  -2.574   5.460  0.00  0.00    +0.219 C 
ATOM     21  O   UNL     1      -1.785  -2.591   4.686  0.00  0.00    -0.275 OA
ATOM     22  N   UNL     1       0.311  -1.993   5.101  0.00  0.00    -0.265 N 
ATOM     23  C   UNL     1       0.439  -1.413   3.845  0.00  0.00    +0.165 A 
ATOM     24  N   UNL     1       1.480  -0.804   3.315  0.00  0.00    -0.229 NA
ATOM     25  C   UNL     1       1.450  -0.277   2.087  0.00  0.00    +0.054 A 
ATOM     26  C   UNL     1       0.299  -0.448   1.412  0.00  0.00    +0.014 A 
ATOM     27  S   UNL     1      -0.734  -1.304   2.565  0.00  0.00    -0.057 S 
ATOM     28  C   UNL     1       0.002  -0.004   0.002  0.00  0.00    +0.044 C 
ATOM     29  C   UNL     1      -0.019   1.536   0.011  0.00  0.00    +0.005 C 
ATOM     30  C   UNL     1       1.391   2.078  -0.000  0.00  0.00    +0.001 C 
ATOM     31  C   UNL     1       2.182   1.932   1.274  0.00  0.00    +0.006 C 
ATOM     32  C   UNL     1       2.638   0.487   1.500  0.00  0.00    +0.056 C 
ATOM     33  H   UNL     1       1.158  -1.979   5.803  0.00  0.00    +0.157 HD
ENDBRANCH  19  20
ENDBRANCH  18  19
ENDBRANCH  10  18
TORSDOF 4
