REMARK  Name = ZINC04422893
REMARK  10 active torsions:
REMARK  status: ('A' for Active; 'I' for Inactive)
REMARK    1  A    between atoms: C_1  and  C_2
REMARK    2  A    between atoms: C_2  and  N_3
REMARK    3  A    between atoms: C_11  and  C_13
REMARK    4  A    between atoms: C_18  and  S_20
REMARK    5  A    between atoms: S_20  and  C_21
REMARK    6  A    between atoms: C_21  and  C_22
REMARK    7  A    between atoms: N_24  and  C_25
REMARK    8  A    between atoms: C_25  and  C_26
REMARK    9  A    between atoms: C_26  and  C_27
REMARK   10  A    between atoms: C_26  and  C_28
REMARK                            x       y       z     vdW  Elec       q    Type
REMARK                         _______ _______ _______ _____ _____    ______ ____
ROOT
ATOM      1  N   UNL     1      -7.454  -9.695   2.898  0.00  0.00    -0.299 N 
ATOM      2  C   UNL     1      -7.609  -8.825   1.881  0.00  0.00    +0.303 C 
ATOM      3  O   UNL     1      -8.637  -8.183   1.782  0.00  0.00    -0.253 OA
ATOM      4  N   UNL     1      -6.625  -8.665   0.975  0.00  0.00    -0.280 N 
ATOM      5  C   UNL     1      -5.335  -9.353   1.131  0.00  0.00    +0.128 C 
ATOM      6  C   UNL     1      -4.212  -8.319   1.000  0.00  0.00    +0.125 C 
ATOM      7  N   UNL     1      -4.374  -7.583  -0.261  0.00  0.00    -0.312 N 
ATOM      8  C   UNL     1      -5.631  -6.824  -0.277  0.00  0.00    +0.128 C 
ATOM      9  C   UNL     1      -6.813  -7.797  -0.198  0.00  0.00    +0.092 C 
ATOM     10  C   UNL     1      -8.117  -7.011  -0.052  0.00  0.00    +0.030 C 
ATOM     11  C   UNL     1      -3.290  -6.752  -0.494  0.00  0.00    +0.127 A 
ATOM     12  C   UNL     1      -1.994  -7.272  -0.528  0.00  0.00    +0.083 A 
ATOM     13  C   UNL     1      -0.942  -6.406  -0.764  0.00  0.00    +0.135 A 
ATOM     14  N   UNL     1      -1.192  -5.117  -0.949  0.00  0.00    -0.210 NA
ATOM     15  C   UNL     1      -2.433  -4.652  -0.911  0.00  0.00    +0.192 A 
ATOM     16  N   UNL     1      -3.467  -5.449  -0.683  0.00  0.00    -0.207 NA
ATOM     17 CL   UNL     1       0.688  -7.000  -0.818  0.00  0.00    -0.062 Cl
ATOM     18  H   UNL     1      -6.607 -10.153   3.020  0.00  0.00    +0.150 HD
ENDROOT
BRANCH   1  20
ATOM     19  C   UNL     1      -8.126 -10.970   4.874  0.00  0.00    +0.024 C 
ATOM     20  C   UNL     1      -8.563  -9.950   3.821  0.00  0.00    +0.102 C 
ENDBRANCH   1  20
BRANCH  15  21
ATOM     21  S   UNL     1      -2.714  -2.931  -1.162  0.00  0.00    -0.077 S 
BRANCH  21  22
ATOM     22  C   UNL     1      -1.011  -2.367  -1.408  0.00  0.00    +0.173 C 
BRANCH  22  23
ATOM     23  C   UNL     1      -1.004  -0.880  -1.648  0.00  0.00    +0.223 C 
ATOM     24  O   UNL     1      -2.047  -0.261  -1.652  0.00  0.00    -0.275 OA
ATOM     25  N   UNL     1       0.162  -0.236  -1.857  0.00  0.00    -0.314 N 
ATOM     26  H   UNL     1       0.996  -0.731  -1.854  0.00  0.00    +0.149 HD
BRANCH  25  27
ATOM     27  C   UNL     1       0.169   1.210  -2.091  0.00  0.00    +0.107 C 
BRANCH  27  28
ATOM     28  C   UNL     1       1.608   1.686  -2.299  0.00  0.00    -0.000 C 
ATOM     29  C   UNL     1       2.170   1.067  -3.580  0.00  0.00    +0.009 C 
ATOM     30  C   UNL     1       1.628   3.211  -2.418  0.00  0.00    +0.009 C 
ENDBRANCH  27  28
ENDBRANCH  25  27
ENDBRANCH  22  23
ENDBRANCH  21  22
ENDBRANCH  15  21
TORSDOF 6
