REMARK  Name = ZINC03444331
REMARK  16 active torsions:
REMARK  status: ('A' for Active; 'I' for Inactive)
REMARK    1  A    between atoms: C_1  and  C_2
REMARK    2  A    between atoms: C_7  and  C_8
REMARK    3  A    between atoms: C_11  and  S_14
REMARK    4  A    between atoms: N_12  and  C_13
REMARK    5  A    between atoms: S_14  and  C_15
REMARK    6  A    between atoms: C_15  and  C_16
REMARK    7  A    between atoms: N_18  and  C_19
REMARK    8  A    between atoms: N_18  and  C_23
REMARK    9  A    between atoms: C_19  and  C_20
REMARK   10  A    between atoms: C_20  and  C_21
REMARK   11  A    between atoms: C_20  and  C_22
REMARK   12  A    between atoms: C_24  and  N_36
REMARK   13  A    between atoms: N_25  and  C_32
REMARK   14  A    between atoms: C_32  and  C_33
REMARK   15  A    between atoms: C_33  and  C_34
REMARK   16  A    between atoms: C_33  and  C_35
REMARK                            x       y       z     vdW  Elec       q    Type
REMARK                         _______ _______ _______ _____ _____    ______ ____
ROOT
ATOM      1  C   UNL     1       0.361   2.566   8.751  0.00  0.00    +0.230 C 
ATOM      2  O   UNL     1       0.393   1.534   9.388  0.00  0.00    -0.274 OA
ATOM      3  N   UNL     1       0.230   3.748   9.389  0.00  0.00    -0.263 N 
ENDROOT
BRANCH   3   4
ATOM      4  C   UNL     1       0.238   3.793  10.799  0.00  0.00    +0.140 A 
ATOM      5  C   UNL     1      -0.731   3.136  11.528  0.00  0.00    +0.127 A 
ATOM      6  N   UNL     1      -0.696   3.198  12.902  0.00  0.00    -0.280 N 
ATOM      7  C   UNL     1       0.272   3.892  13.528  0.00  0.00    +0.331 A 
ATOM      8  O   UNL     1       0.285   3.935  14.743  0.00  0.00    -0.246 OA
ATOM      9  N   UNL     1       1.225   4.539  12.834  0.00  0.00    -0.273 N 
ATOM     10  H   UNL     1       1.912   5.032  13.308  0.00  0.00    +0.173 HD
ATOM     11  C   UNL     1       1.239   4.505  11.487  0.00  0.00    +0.277 A 
ATOM     12  O   UNL     1       2.111   5.092  10.867  0.00  0.00    -0.266 OA
BRANCH   5  13
ATOM     13  N   UNL     1      -1.720   2.427  10.889  0.00  0.00    -0.343 N 
ATOM     14  H   UNL     1      -1.718   2.356   9.922  0.00  0.00    +0.144 HD
ATOM     15  H   UNL     1      -2.420   1.998  11.406  0.00  0.00    +0.144 HD
ENDBRANCH   5  13
BRANCH   6  16
ATOM     16  C   UNL     1      -1.720   2.505  13.688  0.00  0.00    +0.131 C 
BRANCH  16  17
ATOM     17  C   UNL     1      -1.250   1.081  13.995  0.00  0.00    +0.003 C 
ATOM     18  C   UNL     1      -0.014   1.135  14.896  0.00  0.00    +0.009 C 
ATOM     19  C   UNL     1      -2.368   0.318  14.708  0.00  0.00    +0.009 C 
ENDBRANCH  16  17
ENDBRANCH   6  16
ENDBRANCH   3   4
BRANCH   1  20
ATOM     20  C   UNL     1       0.468   2.529   7.248  0.00  0.00    +0.173 C 
BRANCH  20  21
ATOM     21  S   UNL     1       0.632   0.809   6.697  0.00  0.00    -0.077 S 
BRANCH  21  25
ATOM     22  C   UNL     1       0.926   0.470   2.815  0.00  0.00    +0.165 A 
ATOM     23  N   UNL     1       0.819   1.768   2.984  0.00  0.00    -0.128 NA
ATOM     24  N   UNL     1       0.713   2.040   4.236  0.00  0.00    -0.122 NA
ATOM     25  C   UNL     1       0.745   0.932   4.943  0.00  0.00    +0.192 A 
ATOM     26  N   UNL     1       0.875  -0.105   4.064  0.00  0.00    -0.305 N 
ATOM     27  C   UNL     1       0.949  -1.532   4.385  0.00  0.00    +0.153 C 
BRANCH  22  34
ATOM     28  C   UNL     1      -0.833   1.136   0.616  0.00  0.00    +0.044 C 
ATOM     29  C   UNL     1       0.224   0.073   0.458  0.00  0.00    -0.040 A 
ATOM     30  C   UNL     1       0.365  -0.589  -0.744  0.00  0.00    +0.004 A 
ATOM     31  C   UNL     1       1.334  -1.565  -0.891  0.00  0.00    +0.000 A 
ATOM     32  C   UNL     1       2.169  -1.883   0.166  0.00  0.00    +0.001 A 
ATOM     33  C   UNL     1       2.039  -1.229   1.373  0.00  0.00    +0.012 A 
ATOM     34  C   UNL     1       1.067  -0.239   1.526  0.00  0.00    +0.022 A 
ENDBRANCH  22  34
ENDBRANCH  21  25
ENDBRANCH  20  21
ENDBRANCH   1  20
BRANCH   3  35
ATOM     35  C   UNL     1       0.080   4.984   8.617  0.00  0.00    +0.117 C 
BRANCH  35  36
ATOM     36  C   UNL     1      -1.393   5.181   8.252  0.00  0.00    +0.001 C 
ATOM     37  C   UNL     1      -2.204   5.436   9.524  0.00  0.00    +0.009 C 
ATOM     38  C   UNL     1      -1.529   6.380   7.311  0.00  0.00    +0.009 C 
ENDBRANCH  35  36
ENDBRANCH   3  35
TORSDOF 10
