REMARK  Name = ZINC38806383
REMARK  10 active torsions:
REMARK  status: ('A' for Active; 'I' for Inactive)
REMARK    1  A    between atoms: C_1  and  C_2
REMARK    2  A    between atoms: C_2  and  O_3
REMARK    3  A    between atoms: O_3  and  C_4
REMARK    4  A    between atoms: C_4  and  C_6
REMARK    5  A    between atoms: C_10  and  N_11
REMARK    6  A    between atoms: C_12  and  C_14
REMARK    7  A    between atoms: C_24  and  C_30
REMARK    8  A    between atoms: C_24  and  C_31
REMARK    9  A    between atoms: C_26  and  C_28
REMARK   10  A    between atoms: C_26  and  C_29
REMARK                            x       y       z     vdW  Elec       q    Type
REMARK                         _______ _______ _______ _____ _____    ______ ____
ROOT
ATOM      1  C   UNL     1       1.496  -2.371   2.467  0.00  0.00    +0.091 A 
ATOM      2  C   UNL     1       0.805  -2.678   3.700  0.00  0.00    -0.024 A 
ATOM      3  C   UNL     1       1.593  -3.181   4.678  0.00  0.00    -0.016 A 
ATOM      4  S   UNL     1       3.205  -3.246   3.955  0.00  0.00    -0.079 S 
ATOM      5  C   UNL     1       2.862  -2.627   2.432  0.00  0.00    +0.086 A 
ATOM      6  C   UNL     1       1.160  -3.570   6.052  0.00  0.00    -0.041 C 
ATOM      7  N   UNL     1      -0.293  -3.526   6.208  0.00  0.00    +0.389 N 
ATOM      8  C   UNL     1      -1.082  -3.586   4.985  0.00  0.00    -0.069 C 
ATOM      9  C   UNL     1      -0.678  -2.498   3.984  0.00  0.00    +0.024 C 
ATOM     10  C   UNL     1      -0.966  -4.959   4.320  0.00  0.00    -0.010 C 
ATOM     11  C   UNL     1      -2.562  -3.364   5.353  0.00  0.00    -0.010 C 
ATOM     12  C   UNL     1       1.688  -4.973   6.379  0.00  0.00    -0.005 C 
ATOM     13  C   UNL     1       1.792  -2.583   7.054  0.00  0.00    -0.005 C 
ATOM     14  H   UNL     1      -0.578  -4.294   6.818  0.00  0.00    -0.084 HD
ATOM     15  H   UNL     1      -0.539  -2.671   6.711  0.00  0.00    -0.084 HD
ENDROOT
BRANCH   5  16
ATOM     16  N   UNL     1       3.738  -2.418   1.380  0.00  0.00    -0.275 N 
ATOM     17  C   UNL     1       5.043  -2.725   1.519  0.00  0.00    +0.249 C 
ATOM     18  O   UNL     1       5.451  -3.186   2.567  0.00  0.00    -0.270 OA
ATOM     19  H   UNL     1       3.413  -2.051   0.543  0.00  0.00    +0.156 HD
BRANCH  17  20
ATOM     20  C   UNL     1       5.979  -2.502   0.396  0.00  0.00    +0.039 A 
ATOM     21  C   UNL     1       5.502  -1.964  -0.813  0.00  0.00    +0.015 A 
ATOM     22  C   UNL     1       6.342  -1.750  -1.857  0.00  0.00    +0.030 A 
ATOM     23  C   UNL     1       7.707  -2.068  -1.742  0.00  0.00    +0.089 A 
ATOM     24  C   UNL     1       8.201  -2.611  -0.528  0.00  0.00    +0.090 A 
ATOM     25  C   UNL     1       7.318  -2.820   0.544  0.00  0.00    +0.043 A 
ATOM     26  N   UNL     1       9.500  -2.913  -0.418  0.00  0.00    -0.252 NA
ATOM     27  C   UNL     1      10.305  -2.702  -1.433  0.00  0.00    +0.131 A 
ATOM     28  C   UNL     1       9.820  -2.166  -2.629  0.00  0.00    +0.131 A 
ATOM     29  N   UNL     1       8.549  -1.863  -2.761  0.00  0.00    -0.252 NA
ENDBRANCH  17  20
ENDBRANCH   5  16
BRANCH   1  30
ATOM     30  C   UNL     1       0.801  -1.814   1.305  0.00  0.00    +0.342 C 
ATOM     31  O   UNL     1       0.321  -2.557   0.470  0.00  0.00    -0.245 OA
BRANCH  30  32
ATOM     32  O   UNL     1       0.693  -0.477   1.160  0.00  0.00    -0.461 OA
BRANCH  32  34
ATOM     33  C   UNL     1      -0.019   1.526   0.010  0.00  0.00    +0.048 C 
ATOM     34  C   UNL     1       0.002  -0.004   0.002  0.00  0.00    +0.229 C 
ENDBRANCH  32  34
ENDBRANCH  30  32
ENDBRANCH   1  30
TORSDOF 5
