REMARK  Name = ZINC37316625
REMARK  4 active torsions:
REMARK  status: ('A' for Active; 'I' for Inactive)
REMARK    1  A    between atoms: C_3  and  N_11
REMARK    2  A    between atoms: C_6  and  N_7
REMARK    3  A    between atoms: N_11  and  C_12
REMARK    4  A    between atoms: C_12  and  C_13
REMARK                            x       y       z     vdW  Elec       q    Type
REMARK                         _______ _______ _______ _____ _____    ______ ____
ROOT
ATOM      1  C   UNL     1      -0.017   1.378   0.010  0.00  0.00    +0.034 A 
ATOM      2  C   UNL     1       1.169   2.087   0.002  0.00  0.00    +0.026 A 
ATOM      3  C   UNL     1       2.381   1.410  -0.013  0.00  0.00    +0.042 A 
ATOM      4  C   UNL     1       2.397   0.020  -0.021  0.00  0.00    +0.041 A 
ATOM      5  C   UNL     1       1.207  -0.682  -0.013  0.00  0.00    +0.049 A 
ATOM      6  C   UNL     1       0.002  -0.004   0.002  0.00  0.00    +0.127 A 
ATOM      7 BR   UNL     1       4.044  -0.908  -0.042  0.00  0.00    -0.048 Br
ENDROOT
BRANCH   6   8
ATOM      8  N   UNL     1      -1.270  -0.760   0.010  0.00  0.00    +0.056 N 
ATOM      9  O   UNL     1      -2.325  -0.168   0.023  0.00  0.00    -0.126 OA
ATOM     10  O   UNL     1      -1.256  -1.969   0.003  0.00  0.00    -0.126 OA
ENDBRANCH   6   8
BRANCH   3  11
ATOM     11  N   UNL     1       3.582   2.124  -0.021  0.00  0.00    -0.336 N 
ATOM     12  H   UNL     1       4.428   1.649  -0.032  0.00  0.00    +0.147 HD
BRANCH  11  13
ATOM     13  C   UNL     1       3.564   3.589  -0.014  0.00  0.00    +0.176 C 
BRANCH  13  14
ATOM     14  C   UNL     1       4.978   4.109  -0.025  0.00  0.00    +0.123 A 
ATOM     15  C   UNL     1       5.704   4.391  -1.122  0.00  0.00    +0.047 A 
ATOM     16  C   UNL     1       6.964   4.848  -0.673  0.00  0.00    +0.056 A 
ATOM     17  C   UNL     1       6.933   4.818   0.672  0.00  0.00    +0.165 A 
ATOM     18  O   UNL     1       5.726   4.375   1.059  0.00  0.00    -0.453 OA
ATOM     19  I   UNL     1       8.499   5.376   1.947  0.00  0.00    -0.001 I 
ENDBRANCH  13  14
ENDBRANCH  11  13
ENDBRANCH   3  11
TORSDOF 4
