REMARK  Name = ZINC02970344
REMARK  5 active torsions:
REMARK  status: ('A' for Active; 'I' for Inactive)
REMARK    1  A    between atoms: C_1  and  C_2
REMARK    2  A    between atoms: C_2  and  C_3
REMARK    3  A    between atoms: C_3  and  C_5
REMARK    4  A    between atoms: C_3  and  N_6
REMARK    5  A    between atoms: C_7  and  C_9
REMARK                            x       y       z     vdW  Elec       q    Type
REMARK                         _______ _______ _______ _____ _____    ______ ____
ROOT
ATOM      1  C   UNL     1       3.808  -1.881  -0.043  0.00  0.00    +0.039 A 
ATOM      2  C   UNL     1       2.649  -2.662  -0.036  0.00  0.00    +0.014 A 
ATOM      3  C   UNL     1       1.417  -2.071  -0.022  0.00  0.00    +0.014 A 
ATOM      4  C   UNL     1       1.314  -0.682  -0.014  0.00  0.00    +0.041 A 
ATOM      5  C   UNL     1       2.472   0.114  -0.021  0.00  0.00    +0.053 A 
ATOM      6  C   UNL     1       3.718  -0.489  -0.035  0.00  0.00    +0.039 A 
ATOM      7  N   UNL     1       2.339   1.498  -0.012  0.00  0.00    -0.334 N 
ATOM      8  H   UNL     1       3.134   2.054  -0.017  0.00  0.00    +0.168 HD
ATOM      9  C   UNL     1       1.128   2.077   0.002  0.00  0.00    +0.164 A 
ATOM     10  S   UNL     1       1.038   3.787   0.012  0.00  0.00    -0.012 S 
ATOM     11  N   UNL     1      -0.017   1.374   0.010  0.00  0.00    -0.272 N 
ATOM     12  C   UNL     1       0.002  -0.004   0.002  0.00  0.00    +0.150 A 
ATOM     13  N   UNL     1      -1.226  -0.461   0.011  0.00  0.00    -0.227 NA
ATOM     14  C   UNL     1      -2.101   0.573   0.026  0.00  0.00    +0.090 A 
ATOM     15  C   UNL     1      -1.347   1.760   0.030  0.00  0.00    +0.076 A 
ATOM     16  C   UNL     1      -1.989   2.989   0.046  0.00  0.00    +0.028 A 
ATOM     17  C   UNL     1      -3.367   3.043   0.066  0.00  0.00    +0.002 A 
ATOM     18  C   UNL     1      -4.117   1.876   0.069  0.00  0.00    +0.002 A 
ATOM     19  C   UNL     1      -3.498   0.647   0.040  0.00  0.00    +0.030 A 
ENDROOT
BRANCH   1  21
ATOM     20  N   UNL     1       5.226  -3.877  -0.066  0.00  0.00    -0.309 N 
ATOM     21  C   UNL     1       5.136  -2.532  -0.058  0.00  0.00    +0.244 C 
ATOM     22  O   UNL     1       6.145  -1.855  -0.064  0.00  0.00    -0.270 OA
ATOM     23  H   UNL     1       4.420  -4.417  -0.061  0.00  0.00    +0.149 HD
BRANCH  20  24
ATOM     24  C   UNL     1       6.541  -4.523  -0.081  0.00  0.00    +0.070 C 
ATOM     25  C   UNL     1       7.041  -4.627  -1.523  0.00  0.00    +0.028 C 
BRANCH  24  27
ATOM     26  C   UNL     1       6.048  -5.814   2.001  0.00  0.00    +0.005 C 
ATOM     27  C   UNL     1       6.428  -5.924   0.523  0.00  0.00    +0.018 C 
ENDBRANCH  24  27
ENDBRANCH  20  24
ENDBRANCH   1  21
TORSDOF 3
