REMARK  Name = ZINC44170601
REMARK  11 active torsions:
REMARK  status: ('A' for Active; 'I' for Inactive)
REMARK    1  A    between atoms: C_1  and  C_2
REMARK    2  A    between atoms: C_2  and  C_3
REMARK    3  A    between atoms: C_8  and  C_9
REMARK    4  A    between atoms: C_15  and  C_18
REMARK    5  A    between atoms: N_20  and  C_21
REMARK    6  A    between atoms: C_21  and  C_22
REMARK    7  A    between atoms: C_22  and  C_23
REMARK    8  A    between atoms: C_30  and  C_36
REMARK    9  A    between atoms: C_30  and  C_37
REMARK   10  A    between atoms: C_33  and  C_34
REMARK   11  A    between atoms: C_33  and  C_35
REMARK                            x       y       z     vdW  Elec       q    Type
REMARK                         _______ _______ _______ _____ _____    ______ ____
ROOT
ATOM      1  C   UNL     1       2.886  -0.246  -0.027  0.00  0.00    -0.027 C 
ATOM      2  C   UNL     1       2.940  -1.453   0.917  0.00  0.00    +0.092 C 
ATOM      3  S   UNL     1       3.855  -0.967   2.413  0.00  0.00    +0.020 S 
ATOM      4  O   UNL     1       3.113   0.015   3.124  0.00  0.00    -0.257 OA
ATOM      5  C   UNL     1       5.362  -0.209   1.729  0.00  0.00    +0.097 C 
ATOM      6  C   UNL     1       4.947   0.811   0.663  0.00  0.00    +0.029 C 
ATOM      7  N   UNL     1       4.243   0.131  -0.427  0.00  0.00    +0.392 N 
ATOM      8  H   UNL     1       4.755  -0.699  -0.685  0.00  0.00    -0.084 HD
ATOM      9  H   UNL     1       4.194   0.749  -1.223  0.00  0.00    -0.084 HD
ENDROOT
BRANCH   1  15
ATOM     10  C   UNL     1       0.707  -0.490  -1.238  0.00  0.00    -0.046 A 
ATOM     11  C   UNL     1      -0.019  -0.817  -2.364  0.00  0.00    +0.008 A 
ATOM     12  C   UNL     1       0.622  -1.264  -3.512  0.00  0.00    -0.038 A 
ATOM     13  C   UNL     1       1.994  -1.378  -3.527  0.00  0.00    -0.038 A 
ATOM     14  C   UNL     1       2.723  -1.051  -2.391  0.00  0.00    +0.006 A 
ATOM     15  C   UNL     1       2.085  -0.604  -1.252  0.00  0.00    -0.057 A 
ATOM     16  C   UNL     1       2.756  -1.840  -4.741  0.00  0.00    -0.010 C 
ATOM     17  C   UNL     1       1.826  -2.553  -5.720  0.00  0.00    +0.012 C 
ATOM     18  C   UNL     1       0.611  -1.654  -5.976  0.00  0.00    +0.012 C 
ATOM     19  C   UNL     1      -0.233  -1.611  -4.703  0.00  0.00    -0.010 C 
ATOM     20  C   UNL     1      -0.878  -2.980  -4.479  0.00  0.00    +0.016 C 
ATOM     21  C   UNL     1      -1.331  -0.557  -4.861  0.00  0.00    +0.016 C 
ATOM     22  C   UNL     1       3.385  -0.629  -5.433  0.00  0.00    +0.016 C 
ATOM     23  C   UNL     1       3.864  -2.802  -4.306  0.00  0.00    +0.016 C 
BRANCH  10  25
ATOM     24  C   UNL     1      -0.019   1.526   0.010  0.00  0.00    +0.009 C 
ATOM     25  C   UNL     1       0.002  -0.004   0.002  0.00  0.00    +0.032 C 
ENDBRANCH  10  25
ENDBRANCH   1  15
BRANCH   6  26
ATOM     26  C   UNL     1       6.174   1.493   0.117  0.00  0.00    +0.200 C 
ATOM     27  O   UNL     1       6.437   1.414  -1.064  0.00  0.00    -0.278 OA
ATOM     28  N   UNL     1       6.980   2.192   0.941  0.00  0.00    -0.316 N 
ATOM     29  H   UNL     1       6.770   2.255   1.886  0.00  0.00    +0.149 HD
BRANCH  28  30
ATOM     30  C   UNL     1       8.174   2.855   0.410  0.00  0.00    +0.109 C 
BRANCH  30  31
ATOM     31  C   UNL     1       8.906   3.572   1.546  0.00  0.00    +0.056 C 
BRANCH  31  32
ATOM     32  C   UNL     1      10.134   4.254   1.000  0.00  0.00    -0.011 A 
ATOM     33  C   UNL     1      11.359   3.616   1.048  0.00  0.00    +0.006 A 
ATOM     34  C   UNL     1      12.485   4.241   0.547  0.00  0.00    +0.000 A 
ATOM     35  C   UNL     1      12.388   5.506  -0.003  0.00  0.00    +0.003 A 
ATOM     36  C   UNL     1      11.165   6.146  -0.053  0.00  0.00    +0.038 A 
ATOM     37  C   UNL     1      10.035   5.518   0.444  0.00  0.00    +0.127 A 
ATOM     38  F   UNL     1       8.837   6.141   0.392  0.00  0.00    -0.205 F 
ENDBRANCH  31  32
ENDBRANCH  30  31
ENDBRANCH  28  30
ENDBRANCH   6  26
TORSDOF 6
