REMARK  Name = ZINC05540627
REMARK  8 active torsions:
REMARK  status: ('A' for Active; 'I' for Inactive)
REMARK    1  A    between atoms: C_4  and  C_7
REMARK    2  A    between atoms: C_8  and  C_30
REMARK    3  A    between atoms: C_9  and  N_29
REMARK    4  A    between atoms: N_10  and  C_16
REMARK    5  A    between atoms: C_13  and  C_14
REMARK    6  A    between atoms: C_18  and  O_28
REMARK    7  A    between atoms: C_20  and  O_27
REMARK    8  A    between atoms: C_22  and  O_26
REMARK                            x       y       z     vdW  Elec       q    Type
REMARK                         _______ _______ _______ _____ _____    ______ ____
ROOT
ATOM      1  C   UNL     1      -2.041  -0.156   0.168  0.00  0.00    +0.023 A 
ATOM      2  C   UNL     1      -2.278  -0.969   1.302  0.00  0.00    +0.099 A 
ATOM      3  C   UNL     1      -2.714  -2.286   1.122  0.00  0.00    +0.117 A 
ATOM      4  N   UNL     1      -2.898  -2.791  -0.126  0.00  0.00    -0.292 N 
ATOM      5  C   UNL     1      -2.676  -2.047  -1.224  0.00  0.00    +0.108 A 
ATOM      6  S   UNL     1      -2.923  -2.729  -2.775  0.00  0.00    -0.031 S 
ATOM      7  C   UNL     1      -2.240  -0.706  -1.110  0.00  0.00    +0.092 A 
ENDROOT
BRANCH   1  11
ATOM      8  C   UNL     1      -0.734   3.861   0.617  0.00  0.00    +0.000 A 
ATOM      9  C   UNL     1      -1.971   3.598   0.057  0.00  0.00    +0.001 A 
ATOM     10  C   UNL     1      -2.402   2.296  -0.092  0.00  0.00    +0.008 A 
ATOM     11  C   UNL     1      -1.586   1.242   0.324  0.00  0.00    -0.015 A 
ATOM     12  C   UNL     1      -0.338   1.514   0.888  0.00  0.00    +0.008 A 
ATOM     13  C   UNL     1       0.080   2.821   1.031  0.00  0.00    +0.001 A 
ENDBRANCH   1  11
BRANCH   4  14
ATOM     14  C   UNL     1      -3.349  -4.177  -0.279  0.00  0.00    +0.252 C 
ATOM     15  C   UNL     1      -2.351  -4.945  -1.150  0.00  0.00    +0.195 C 
ATOM     16  C   UNL     1      -0.989  -4.973  -0.449  0.00  0.00    +0.178 C 
ATOM     17  C   UNL     1      -1.154  -5.602   0.938  0.00  0.00    +0.171 C 
ATOM     18  C   UNL     1      -2.198  -4.808   1.728  0.00  0.00    +0.196 C 
ATOM     19  O   UNL     1      -3.431  -4.795   1.007  0.00  0.00    -0.351 OA
BRANCH  17  20
ATOM     20  O   UNL     1      -1.588  -6.956   0.800  0.00  0.00    -0.387 OA
ATOM     21  H   UNL     1      -1.714  -7.417   1.641  0.00  0.00    +0.210 HD
ENDBRANCH  17  20
BRANCH  16  22
ATOM     22  O   UNL     1      -0.071  -5.751  -1.220  0.00  0.00    -0.386 OA
ATOM     23  H   UNL     1       0.814  -5.812  -0.834  0.00  0.00    +0.210 HD
ENDBRANCH  16  22
BRANCH  15  24
ATOM     24  O   UNL     1      -2.223  -4.295  -2.416  0.00  0.00    -0.385 OA
ATOM     25  H   UNL     1      -1.605  -4.729  -3.020  0.00  0.00    +0.210 HD
ENDBRANCH  15  24
ENDBRANCH   4  14
BRANCH   3  26
ATOM     26  N   UNL     1      -2.951  -3.074   2.212  0.00  0.00    -0.343 N 
ATOM     27  H   UNL     1      -3.729  -3.652   2.232  0.00  0.00    +0.144 HD
ATOM     28  H   UNL     1      -2.341  -3.055   2.965  0.00  0.00    +0.144 HD
ENDBRANCH   3  26
BRANCH   7  29
ATOM     29  C   UNL     1      -2.005   0.082  -2.282  0.00  0.00    +0.102 C 
ATOM     30  N   UNL     1      -1.819   0.706  -3.213  0.00  0.00    -0.191 NA
ENDBRANCH   7  29
BRANCH   2  31
ATOM     31  C   UNL     1      -2.080  -0.447   2.620  0.00  0.00    +0.103 C 
ATOM     32  N   UNL     1      -1.923  -0.032   3.666  0.00  0.00    -0.191 NA
ENDBRANCH   2  31
TORSDOF 8
