REMARK  Name = ZINC15021592
REMARK  5 active torsions:
REMARK  status: ('A' for Active; 'I' for Inactive)
REMARK    1  A    between atoms: C_1  and  C_2
REMARK    2  A    between atoms: C_7  and  C_34
REMARK    3  A    between atoms: C_12  and  O_33
REMARK    4  A    between atoms: C_13  and  O_32
REMARK    5  A    between atoms: C_20  and  C_26
REMARK                            x       y       z     vdW  Elec       q    Type
REMARK                         _______ _______ _______ _____ _____    ______ ____
ROOT
ATOM      1  C   UNL     1      -6.305  -0.622  -2.793  0.00  0.00    +0.007 C 
ATOM      2  C   UNL     1      -5.061   0.269  -2.769  0.00  0.00    -0.013 C 
ATOM      3  C   UNL     1      -5.467   1.721  -3.027  0.00  0.00    +0.013 C 
ATOM      4  C   UNL     1      -4.223   2.611  -3.019  0.00  0.00    +0.064 C 
ATOM      5  C   UNL     1      -4.636   4.070  -3.238  0.00  0.00    +0.061 C 
ATOM      6  C   UNL     1      -3.474   4.982  -2.940  0.00  0.00    +0.006 A 
ATOM      7  C   UNL     1      -3.505   6.280  -3.424  0.00  0.00    +0.011 A 
ATOM      8  C   UNL     1      -2.462   7.148  -3.168  0.00  0.00    +0.050 A 
ATOM      9  C   UNL     1      -1.373   6.721  -2.422  0.00  0.00    +0.162 A 
ATOM     10  C   UNL     1      -1.337   5.421  -1.936  0.00  0.00    +0.201 A 
ATOM     11  C   UNL     1      -2.390   4.547  -2.198  0.00  0.00    +0.172 A 
ATOM     12  O   UNL     1      -2.317   3.280  -1.715  0.00  0.00    -0.464 OA
ATOM     13  C   UNL     1      -3.516   2.504  -1.666  0.00  0.00    +0.186 C 
ATOM     14  C   UNL     1      -3.153   1.046  -1.374  0.00  0.00    +0.077 C 
ATOM     15  C   UNL     1      -4.416   0.184  -1.383  0.00  0.00    +0.014 C 
ATOM     16  C   UNL     1      -2.514   0.980   0.019  0.00  0.00    +0.111 C 
ATOM     17  N   UNL     1      -3.433   1.569   0.995  0.00  0.00    -0.319 N 
ATOM     18  C   UNL     1      -4.301   2.531   0.647  0.00  0.00    +0.134 C 
ATOM     19  S   UNL     1      -5.338   3.175   1.847  0.00  0.00    -0.019 S 
ATOM     20  N   UNL     1      -4.387   3.008  -0.605  0.00  0.00    -0.289 N 
ATOM     21  H   UNL     1      -3.415   1.256   1.912  0.00  0.00    +0.148 HD
ATOM     22  H   UNL     1      -5.037   3.699  -0.808  0.00  0.00    +0.151 HD
ENDROOT
BRANCH  16  23
ATOM     23  C   UNL     1      -1.219   1.751   0.017  0.00  0.00    -0.027 A 
ATOM     24  C   UNL     1      -1.046   2.813   0.885  0.00  0.00    +0.005 A 
ATOM     25  C   UNL     1       0.144   3.517   0.887  0.00  0.00    +0.000 A 
ATOM     26  C   UNL     1       1.158   3.162   0.018  0.00  0.00    +0.000 A 
ATOM     27  C   UNL     1       0.983   2.103  -0.854  0.00  0.00    +0.000 A 
ATOM     28  C   UNL     1      -0.206   1.399  -0.855  0.00  0.00    +0.005 A 
ENDBRANCH  16  23
BRANCH   5  29
ATOM     29  C   UNL     1      -5.067   4.259  -4.670  0.00  0.00    -0.039 A 
ATOM     30  C   UNL     1      -4.177   4.011  -5.698  0.00  0.00    +0.004 A 
ATOM     31  C   UNL     1      -4.573   4.180  -7.011  0.00  0.00    +0.000 A 
ATOM     32  C   UNL     1      -5.856   4.607  -7.296  0.00  0.00    +0.000 A 
ATOM     33  C   UNL     1      -6.745   4.861  -6.268  0.00  0.00    +0.000 A 
ATOM     34  C   UNL     1      -6.350   4.687  -4.955  0.00  0.00    +0.004 A 
ENDBRANCH   5  29
BRANCH  10  35
ATOM     35  O   UNL     1      -0.270   5.000  -1.203  0.00  0.00    -0.501 OA
ATOM     36  H   UNL     1       0.442   4.613  -1.731  0.00  0.00    +0.292 HD
ENDBRANCH  10  35
BRANCH   9  37
ATOM     37  O   UNL     1      -0.345   7.574  -2.166  0.00  0.00    -0.503 OA
ATOM     38  H   UNL     1       0.356   7.556  -2.831  0.00  0.00    +0.292 HD
ENDBRANCH   9  37
TORSDOF 4
