REMARK  Name = ZINC39126630
REMARK  12 active torsions:
REMARK  status: ('A' for Active; 'I' for Inactive)
REMARK    1  A    between atoms: C_1  and  C_2
REMARK    2  A    between atoms: C_2  and  O_3
REMARK    3  A    between atoms: O_3  and  C_4
REMARK    4  A    between atoms: C_4  and  C_6
REMARK    5  A    between atoms: C_9  and  C_26
REMARK    6  A    between atoms: C_11  and  N_13
REMARK    7  A    between atoms: N_13  and  C_14
REMARK    8  A    between atoms: C_14  and  C_15
REMARK    9  A    between atoms: C_14  and  C_16
REMARK   10  A    between atoms: C_17  and  C_19
REMARK   11  A    between atoms: C_22  and  C_25
REMARK   12  A    between atoms: C_29  and  C_32
REMARK                            x       y       z     vdW  Elec       q    Type
REMARK                         _______ _______ _______ _____ _____    ______ ____
ROOT
ATOM      1  C   UNL     1       1.428  -3.028  -2.992  0.00  0.00    +0.183 C 
ATOM      2  C   UNL     1       0.522  -3.134  -4.207  0.00  0.00    +0.039 C 
ATOM      3  C   UNL     1      -0.065  -4.328  -4.157  0.00  0.00    +0.127 C 
ATOM      4  O   UNL     1       0.299  -5.057  -3.075  0.00  0.00    -0.469 OA
ATOM      5  C   UNL     1       1.514  -4.503  -2.531  0.00  0.00    +0.283 C 
ENDROOT
BRANCH   3   6
ATOM      6  C   UNL     1      -1.018  -4.809  -5.180  0.00  0.00    +0.017 A 
ATOM      7  C   UNL     1      -1.340  -3.999  -6.271  0.00  0.00    +0.012 A 
ATOM      8  C   UNL     1      -2.227  -4.447  -7.223  0.00  0.00    +0.011 A 
ATOM      9  C   UNL     1      -2.806  -5.712  -7.098  0.00  0.00    -0.000 A 
ATOM     10  C   UNL     1      -2.484  -6.522  -6.007  0.00  0.00    +0.011 A 
ATOM     11  C   UNL     1      -1.593  -6.076  -5.058  0.00  0.00    +0.012 A 
BRANCH   9  12
ATOM     12  C   UNL     1      -3.760  -6.194  -8.120  0.00  0.00    +0.068 A 
ATOM     13  C   UNL     1      -4.402  -7.399  -8.123  0.00  0.00    +0.072 A 
ATOM     14  C   UNL     1      -5.210  -7.451  -9.266  0.00  0.00    +0.138 A 
ATOM     15  N   UNL     1      -5.065  -6.327  -9.928  0.00  0.00    -0.159 NA
ATOM     16  N   UNL     1      -4.164  -5.513  -9.231  0.00  0.00    -0.275 N 
ATOM     17  H   UNL     1      -3.877  -4.624  -9.492  0.00  0.00    +0.189 HD
ATOM     18  N   UNL     1      -6.033  -8.521  -9.639  0.00  0.00    -0.342 N 
ATOM     19  H   UNL     1      -6.076  -9.316  -9.084  0.00  0.00    +0.144 HD
ATOM     20  H   UNL     1      -6.559  -8.467 -10.452  0.00  0.00    +0.144 HD
ENDBRANCH   9  12
ENDBRANCH   3   6
BRANCH   5  21
ATOM     21  N   UNL     1       1.522  -4.595  -1.069  0.00  0.00    -0.262 N 
ATOM     22  C   UNL     1       2.293  -3.759  -0.345  0.00  0.00    +0.222 C 
ATOM     23  O   UNL     1       3.014  -2.961  -0.906  0.00  0.00    -0.275 OA
BRANCH  22  24
ATOM     24  C   UNL     1       2.261  -3.817   1.160  0.00  0.00    +0.075 C 
ATOM     25  C   UNL     1       0.865  -3.432   1.655  0.00  0.00    +0.013 C 
ATOM     26  C   UNL     1       0.832  -3.491   3.184  0.00  0.00    +0.004 C 
ATOM     27  C   UNL     1       1.863  -2.515   3.754  0.00  0.00    -0.014 C 
ATOM     28  C   UNL     1       3.258  -2.900   3.259  0.00  0.00    +0.004 C 
ATOM     29  C   UNL     1       3.292  -2.841   1.731  0.00  0.00    +0.013 C 
ATOM     30  C   UNL     1       1.830  -2.573   5.283  0.00  0.00    +0.007 C 
ENDBRANCH  22  24
BRANCH  21  31
ATOM     31  C   UNL     1       0.691  -5.594  -0.393  0.00  0.00    +0.073 C 
ATOM     32  C   UNL     1      -0.785  -5.307  -0.676  0.00  0.00    +0.028 C 
ATOM     33  C   UNL     1       1.048  -6.989  -0.912  0.00  0.00    +0.028 C 
ENDBRANCH  21  31
ENDBRANCH   5  21
BRANCH   1  34
ATOM     34  C   UNL     1       0.801  -2.165  -1.926  0.00  0.00    +0.319 C 
ATOM     35  O   UNL     1       0.022  -2.648  -1.139  0.00  0.00    -0.250 OA
BRANCH  34  36
ATOM     36  O   UNL     1       1.109  -0.861  -1.852  0.00  0.00    -0.464 OA
BRANCH  36  38
ATOM     37  C   UNL     1       0.949   1.350  -0.890  0.00  0.00    +0.048 C 
ATOM     38  C   UNL     1       0.479  -0.104  -0.817  0.00  0.00    +0.229 C 
ENDBRANCH  36  38
ENDBRANCH  34  36
ENDBRANCH   1  34
TORSDOF 8
