REMARK  Name = ZINC39523329
REMARK  6 active torsions:
REMARK  status: ('A' for Active; 'I' for Inactive)
REMARK    1  A    between atoms: C_1  and  C_2
REMARK    2  A    between atoms: C_2  and  O_3
REMARK    3  A    between atoms: O_3  and  C_4
REMARK    4  A    between atoms: N_10  and  O_11
REMARK    5  A    between atoms: C_15  and  C_18
REMARK    6  A    between atoms: C_23  and  O_24
REMARK                            x       y       z     vdW  Elec       q    Type
REMARK                         _______ _______ _______ _____ _____    ______ ____
ROOT
ATOM      1  C   UNL     1       0.540  -2.167  -1.363  0.00  0.00    +0.213 C 
ATOM      2  C   UNL     1       1.073  -2.431  -2.773  0.00  0.00    +0.050 C 
ATOM      3  C   UNL     1       1.467  -3.905  -2.898  0.00  0.00    +0.006 C 
ATOM      4  C   UNL     1       2.512  -4.237  -1.829  0.00  0.00    +0.025 C 
ATOM      5  C   UNL     1       1.938  -3.922  -0.446  0.00  0.00    +0.050 C 
ATOM      6  N   UNL     1       1.577  -2.500  -0.377  0.00  0.00    -0.156 NA
ATOM      7  C   UNL     1       0.694  -4.778  -0.203  0.00  0.00    +0.025 C 
ATOM      8  C   UNL     1       1.072  -6.259  -0.276  0.00  0.00    +0.002 C 
ATOM      9  C   UNL     1       2.122  -6.571   0.792  0.00  0.00    +0.008 C 
ATOM     10  C   UNL     1       3.366  -5.714   0.550  0.00  0.00    +0.024 C 
ATOM     11  C   UNL     1       2.988  -4.233   0.624  0.00  0.00    +0.033 C 
ENDROOT
BRANCH  10  12
ATOM     12  C   UNL     1       4.401  -6.021   1.602  0.00  0.00    -0.003 A 
ATOM     13  C   UNL     1       4.108  -5.822   2.938  0.00  0.00    +0.007 A 
ATOM     14  C   UNL     1       5.056  -6.104   3.904  0.00  0.00    +0.001 A 
ATOM     15  C   UNL     1       6.299  -6.584   3.536  0.00  0.00    +0.004 A 
ATOM     16  C   UNL     1       6.597  -6.785   2.202  0.00  0.00    +0.046 A 
ATOM     17  C   UNL     1       5.645  -6.508   1.231  0.00  0.00    +0.120 A 
BRANCH  17  18
ATOM     18  O   UNL     1       5.933  -6.710  -0.082  0.00  0.00    -0.506 OA
ATOM     19  H   UNL     1       6.323  -5.942  -0.521  0.00  0.00    +0.292 HD
ENDBRANCH  17  18
ENDBRANCH  10  12
BRANCH   6  20
ATOM     20  O   UNL     1       1.153  -2.131   0.974  0.00  0.00    -0.309 OA
ATOM     21  H   UNL     1       1.043  -1.180   1.105  0.00  0.00    +0.237 HD
ENDBRANCH   6  20
BRANCH   1  22
ATOM     22  O   UNL     1       0.188  -0.788  -1.237  0.00  0.00    -0.360 OA
BRANCH  22  24
ATOM     23  C   UNL     1       0.801   1.549  -1.284  0.00  0.00    +0.034 C 
ATOM     24  C   UNL     1       1.241   0.114  -1.584  0.00  0.00    +0.158 C 
ENDBRANCH  22  24
ENDBRANCH   1  22
TORSDOF 5
