REMARK  Name = ZINC12562679
REMARK  7 active torsions:
REMARK  status: ('A' for Active; 'I' for Inactive)
REMARK    1  A    between atoms: C_1  and  C_2
REMARK    2  A    between atoms: C_2  and  C_4
REMARK    3  A    between atoms: C_2  and  N_13
REMARK    4  A    between atoms: C_14  and  C_16
REMARK    5  A    between atoms: C_16  and  N_17
REMARK    6  A    between atoms: C_24  and  S_26
REMARK    7  A    between atoms: S_26  and  N_29
REMARK                            x       y       z     vdW  Elec       q    Type
REMARK                         _______ _______ _______ _____ _____    ______ ____
ROOT
ATOM      1  C   UNL     1      -2.482   0.853   0.018  0.00  0.00    +0.200 C 
ENDROOT
BRANCH   1   2
ATOM      2  N   UNL     1      -3.608   1.787   0.150  0.00  0.00    -0.321 N 
ATOM      3  C   UNL     1      -3.564   2.822  -0.906  0.00  0.00    +0.110 C 
ATOM      4  C   UNL     1      -5.060   3.142  -1.129  0.00  0.00    +0.056 C 
ATOM      5  C   UNL     1      -5.746   1.862  -0.693  0.00  0.00    -0.023 A 
ATOM      6  C   UNL     1      -4.832   1.115   0.042  0.00  0.00    +0.033 A 
ATOM      7  C   UNL     1      -5.221  -0.124   0.546  0.00  0.00    +0.025 A 
ATOM      8  C   UNL     1      -6.498  -0.596   0.322  0.00  0.00    +0.030 A 
ATOM      9  C   UNL     1      -7.401   0.158  -0.405  0.00  0.00    +0.105 A 
ATOM     10  C   UNL     1      -7.022   1.388  -0.911  0.00  0.00    +0.034 A 
BRANCH   9  11
ATOM     11  S   UNL     1      -9.032  -0.447  -0.684  0.00  0.00    +0.056 S 
ATOM     12  O   UNL     1      -9.511   0.202  -1.854  0.00  0.00    -0.153 OA
ATOM     13  O   UNL     1      -8.965  -1.862  -0.571  0.00  0.00    -0.153 OA
BRANCH  11  14
ATOM     14  N   UNL     1      -9.973   0.085   0.571  0.00  0.00    -0.204 NA
ATOM     15  H   UNL     1      -9.582   0.626   1.275  0.00  0.00    +0.144 HD
ATOM     16  H   UNL     1     -10.915  -0.145   0.602  0.00  0.00    +0.144 HD
ENDBRANCH  11  14
ENDBRANCH   9  11
ENDBRANCH   1   2
BRANCH   1  18
ATOM     17  N   UNL     1      -0.019   0.984  -0.171  0.00  0.00    -0.304 N 
ATOM     18  C   UNL     1      -1.186   1.620   0.055  0.00  0.00    +0.231 C 
ATOM     19  O   UNL     1      -1.192   2.810   0.289  0.00  0.00    -0.274 OA
ATOM     20  H   UNL     1      -0.014   0.032  -0.358  0.00  0.00    +0.149 HD
BRANCH  17  22
ATOM     21  C   UNL     1       1.486   2.372  -1.509  0.00  0.00    +0.036 C 
ATOM     22  C   UNL     1       1.240   1.732  -0.141  0.00  0.00    +0.136 C 
BRANCH  22  23
ATOM     23  C   UNL     1       2.374   0.793   0.185  0.00  0.00    +0.126 A 
ATOM     24  C   UNL     1       3.402   1.084   0.993  0.00  0.00    +0.055 A 
ATOM     25  C   UNL     1       4.253  -0.112   1.019  0.00  0.00    +0.020 A 
ATOM     26  C   UNL     1       5.447  -0.445   1.657  0.00  0.00    +0.011 A 
ATOM     27  C   UNL     1       5.995  -1.683   1.465  0.00  0.00    +0.001 A 
ATOM     28  C   UNL     1       5.371  -2.607   0.640  0.00  0.00    +0.004 A 
ATOM     29  C   UNL     1       4.191  -2.296   0.000  0.00  0.00    +0.047 A 
ATOM     30  C   UNL     1       3.616  -1.043   0.182  0.00  0.00    +0.135 A 
ATOM     31  O   UNL     1       2.496  -0.459  -0.289  0.00  0.00    -0.458 OA
ENDBRANCH  22  23
ENDBRANCH  17  22
ENDBRANCH   1  18
TORSDOF 6
