REMARK  Name = ZINC38551101
REMARK  9 active torsions:
REMARK  status: ('A' for Active; 'I' for Inactive)
REMARK    1  A    between atoms: C_1  and  C_2
REMARK    2  A    between atoms: C_2  and  O_3
REMARK    3  A    between atoms: O_3  and  C_4
REMARK    4  A    between atoms: C_7  and  C_10
REMARK    5  A    between atoms: C_10  and  C_12
REMARK    6  A    between atoms: C_10  and  N_29
REMARK    7  A    between atoms: C_16  and  N_17
REMARK    8  A    between atoms: C_18  and  C_20
REMARK    9  A    between atoms: C_34  and  C_36
REMARK                            x       y       z     vdW  Elec       q    Type
REMARK                         _______ _______ _______ _____ _____    ______ ____
ROOT
ATOM      1  C   UNL     1       1.130  -6.044   1.759  0.00  0.00    +0.135 C 
ENDROOT
BRANCH   1   2
ATOM      2  N   UNL     1       0.987  -6.401   3.172  0.00  0.00    -0.320 N 
ATOM      3  C   UNL     1       0.617  -7.693   3.529  0.00  0.00    +0.097 A 
ATOM      4  C   UNL     1       0.491  -8.670   2.546  0.00  0.00    +0.041 A 
ATOM      5  C   UNL     1       0.123  -9.951   2.915  0.00  0.00    +0.005 A 
ATOM      6  C   UNL     1      -0.108 -10.213   4.259  0.00  0.00    +0.021 A 
ATOM      7  C   UNL     1       0.035  -9.196   5.181  0.00  0.00    +0.014 A 
ATOM      8  N   UNL     1       0.393  -7.984   4.801  0.00  0.00    -0.347 N 
ATOM      9  C   UNL     1      -0.216  -9.474   6.640  0.00  0.00    +0.063 C 
ATOM     10  H   UNL     1       1.150  -5.736   3.860  0.00  0.00    +0.148 HD
ATOM     11  H   UNL     1       0.490  -7.288   5.469  0.00  0.00    +0.167 HD
ENDBRANCH   1   2
BRANCH   1  12
ATOM     12  C   UNL     1       2.467  -6.521   1.253  0.00  0.00    +0.009 A 
ATOM     13  C   UNL     1       2.570  -7.096  -0.014  0.00  0.00    -0.030 A 
ATOM     14  C   UNL     1       3.810  -7.502  -0.400  0.00  0.00    -0.005 A 
ATOM     15  S   UNL     1       4.841  -7.092   0.983  0.00  0.00    -0.078 S 
ATOM     16  C   UNL     1       3.576  -6.387   2.028  0.00  0.00    +0.078 A 
ATOM     17  C   UNL     1       4.197  -8.144  -1.692  0.00  0.00    +0.043 C 
ATOM     18  C   UNL     1       2.918  -8.620  -2.397  0.00  0.00    +0.005 C 
ATOM     19  C   UNL     1       1.892  -7.484  -2.372  0.00  0.00    +0.005 C 
ATOM     20  C   UNL     1       1.377  -7.276  -0.948  0.00  0.00    +0.036 C 
BRANCH  16  21
ATOM     21  N   UNL     1       3.694  -5.843   3.308  0.00  0.00    -0.273 N 
ATOM     22  C   UNL     1       4.878  -5.884   3.952  0.00  0.00    +0.284 C 
ATOM     23  O   UNL     1       5.865  -6.312   3.382  0.00  0.00    -0.266 OA
ATOM     24  H   UNL     1       2.925  -5.434   3.735  0.00  0.00    +0.156 HD
BRANCH  22  25
ATOM     25  C   UNL     1       4.976  -5.414   5.337  0.00  0.00    +0.189 A 
ATOM     26  C   UNL     1       6.125  -5.307   6.068  0.00  0.00    +0.054 A 
ATOM     27  C   UNL     1       5.755  -4.818   7.331  0.00  0.00    +0.042 A 
ATOM     28  C   UNL     1       4.414  -4.650   7.315  0.00  0.00    +0.196 A 
ATOM     29  O   UNL     1       3.949  -5.006   6.111  0.00  0.00    -0.458 OA
ENDBRANCH  22  25
ENDBRANCH  16  21
ENDBRANCH   1  12
BRANCH   1  33
ATOM     30  C   UNL     1       0.876  -1.800   1.330  0.00  0.00    +0.121 A 
ATOM     31  C   UNL     1       0.363  -2.630   0.343  0.00  0.00    +0.046 A 
ATOM     32  C   UNL     1       0.446  -4.001   0.484  0.00  0.00    +0.009 A 
ATOM     33  C   UNL     1       1.040  -4.547   1.607  0.00  0.00    -0.023 A 
ATOM     34  C   UNL     1       1.552  -3.722   2.592  0.00  0.00    +0.009 A 
ATOM     35  C   UNL     1       1.476  -2.350   2.453  0.00  0.00    +0.046 A 
BRANCH  30  36
ATOM     36  O   UNL     1       0.795  -0.450   1.193  0.00  0.00    -0.492 OA
BRANCH  36  38
ATOM     37  C   UNL     1       0.167   1.576   0.034  0.00  0.00    +0.048 C 
ATOM     38  C   UNL     1       0.164   0.046   0.011  0.00  0.00    +0.225 C 
ENDBRANCH  36  38
ENDBRANCH  30  36
ENDBRANCH   1  33
TORSDOF 7
