REMARK  Name = ZINC16588659
REMARK  11 active torsions:
REMARK  status: ('A' for Active; 'I' for Inactive)
REMARK    1  A    between atoms: C_1  and  C_2
REMARK    2  A    between atoms: C_2  and  N_52
REMARK    3  A    between atoms: C_3  and  C_4
REMARK    4  A    between atoms: C_3  and  N_52
REMARK    5  A    between atoms: N_6  and  C_7
REMARK    6  A    between atoms: C_12  and  C_13
REMARK    7  A    between atoms: C_17  and  C_18
REMARK    8  A    between atoms: C_17  and  N_52
REMARK    9  A    between atoms: N_20  and  C_21
REMARK   10  A    between atoms: C_23  and  N_28
REMARK   11  A    between atoms: C_26  and  C_27
REMARK                            x       y       z     vdW  Elec       q    Type
REMARK                         _______ _______ _______ _____ _____    ______ ____
ROOT
ATOM      1  N   UNL     1       2.097   1.111  -0.139  0.00  0.00    +0.391 N 
ATOM      2  H   UNL     1       1.875   0.517  -0.946  0.00  0.00    -0.080 HD
ENDROOT
BRANCH   1   4
ATOM      3  C   UNL     1       0.680  -0.437   1.119  0.00  0.00    -0.017 C 
ATOM      4  C   UNL     1       2.024   0.295   1.092  0.00  0.00    -0.081 C 
ENDBRANCH   1   4
BRANCH   1   5
ATOM      5  C   UNL     1       1.119   2.216  -0.071  0.00  0.00    +0.020 C 
BRANCH   5   6
ATOM      6  C   UNL     1       0.884   2.740  -1.465  0.00  0.00    +0.201 C 
ATOM      7  O   UNL     1       1.541   2.313  -2.391  0.00  0.00    -0.278 OA
ATOM      8  N   UNL     1      -0.051   3.685  -1.681  0.00  0.00    -0.287 N 
ATOM      9  H   UNL     1      -0.519   4.085  -0.931  0.00  0.00    +0.155 HD
BRANCH   8  10
ATOM     10  C   UNL     1      -0.348   4.090  -2.987  0.00  0.00    +0.045 A 
ATOM     11  C   UNL     1      -0.292   3.173  -4.029  0.00  0.00    +0.024 A 
ATOM     12  C   UNL     1      -0.590   3.575  -5.316  0.00  0.00    +0.002 A 
ATOM     13  C   UNL     1      -0.934   4.890  -5.570  0.00  0.00    +0.001 A 
ATOM     14  C   UNL     1      -0.986   5.806  -4.535  0.00  0.00    +0.014 A 
ATOM     15  C   UNL     1      -0.694   5.410  -3.245  0.00  0.00    +0.076 A 
BRANCH  15  16
ATOM     16  C   UNL     1      -0.750   6.409  -2.118  0.00  0.00    +0.419 C 
ATOM     17  F   UNL     1      -1.119   7.660  -2.623  0.00  0.00    -0.166 F 
ATOM     18  F   UNL     1      -1.692   5.992  -1.172  0.00  0.00    -0.166 F 
ATOM     19  F   UNL     1       0.508   6.501  -1.514  0.00  0.00    -0.166 F 
ENDBRANCH  15  16
ENDBRANCH   8  10
ENDBRANCH   5   6
ENDBRANCH   1   5
BRANCH   1  20
ATOM     20  C   UNL     1       3.462   1.654  -0.304  0.00  0.00    +0.020 C 
BRANCH  20  21
ATOM     21  C   UNL     1       4.407   0.515  -0.590  0.00  0.00    +0.201 C 
ATOM     22  O   UNL     1       3.990  -0.623  -0.633  0.00  0.00    -0.278 OA
ATOM     23  N   UNL     1       5.716   0.761  -0.798  0.00  0.00    -0.287 N 
ATOM     24  H   UNL     1       6.059   1.664  -0.714  0.00  0.00    +0.155 HD
BRANCH  23  25
ATOM     25  C   UNL     1       6.580  -0.287  -1.135  0.00  0.00    +0.038 A 
ATOM     26  C   UNL     1       6.278  -1.588  -0.754  0.00  0.00    +0.056 A 
ATOM     27  C   UNL     1       7.130  -2.620  -1.093  0.00  0.00    +0.128 A 
ATOM     28  C   UNL     1       8.288  -2.358  -1.803  0.00  0.00    +0.033 A 
ATOM     29  C   UNL     1       8.594  -1.064  -2.179  0.00  0.00    +0.007 A 
ATOM     30  C   UNL     1       7.743  -0.027  -1.847  0.00  0.00    -0.029 A 
ATOM     31  C   UNL     1       8.077   1.384  -2.258  0.00  0.00    +0.045 C 
BRANCH  27  32
ATOM     32  N   UNL     1       6.807  -4.008  -0.692  0.00  0.00    +0.056 N 
ATOM     33  O   UNL     1       7.560  -4.918  -0.987  0.00  0.00    -0.126 OA
ATOM     34  O   UNL     1       5.787  -4.239  -0.067  0.00  0.00    -0.126 OA
ENDBRANCH  27  32
ENDBRANCH  23  25
ENDBRANCH  20  21
ENDBRANCH   1  20
TORSDOF 9
