REMARK  Name = ZINC21875898
REMARK  15 active torsions:
REMARK  status: ('A' for Active; 'I' for Inactive)
REMARK    1  A    between atoms: C_1  and  C_2
REMARK    2  A    between atoms: C_2  and  C_3
REMARK    3  A    between atoms: C_2  and  C_4
REMARK    4  A    between atoms: C_4  and  C_5
REMARK    5  A    between atoms: C_5  and  N_6
REMARK    6  A    between atoms: C_7  and  C_9
REMARK    7  A    between atoms: C_9  and  C_34
REMARK    8  A    between atoms: C_14  and  C_16
REMARK    9  A    between atoms: N_18  and  C_19
REMARK   10  A    between atoms: C_19  and  C_20
REMARK   11  A    between atoms: C_23  and  O_26
REMARK   12  A    between atoms: O_26  and  C_27
REMARK   13  A    between atoms: C_27  and  C_28
REMARK   14  A    between atoms: C_27  and  C_29
REMARK   15  A    between atoms: N_32  and  C_33
REMARK                            x       y       z     vdW  Elec       q    Type
REMARK                         _______ _______ _______ _____ _____    ______ ____
ROOT
ATOM      1  C   UNL     1       7.850   3.667  -1.936  0.00  0.00    +0.130 C 
ATOM      2  C   UNL     1       6.994   2.505  -1.436  0.00  0.00    +0.179 C 
ATOM      3  N   UNL     1       5.615   2.969  -1.240  0.00  0.00    -0.256 N 
ATOM      4  C   UNL     1       5.348   4.276  -0.888  0.00  0.00    +0.124 A 
ATOM      5  C   UNL     1       4.006   4.402  -0.782  0.00  0.00    +0.067 A 
ATOM      6  C   UNL     1       3.490   3.121  -1.083  0.00  0.00    +0.148 A 
ATOM      7  N   UNL     1       4.517   2.327  -1.338  0.00  0.00    -0.166 NA
ATOM      8  C   UNL     1       6.436   5.251  -0.697  0.00  0.00    +0.265 C 
ATOM      9  O   UNL     1       6.249   6.324  -0.157  0.00  0.00    -0.268 OA
ATOM     10  N   UNL     1       7.658   4.884  -1.157  0.00  0.00    -0.284 N 
ATOM     11  C   UNL     1       8.815   5.732  -0.862  0.00  0.00    +0.133 C 
ATOM     12  C   UNL     1       7.490   3.954  -3.396  0.00  0.00    +0.044 C 
ENDROOT
BRANCH   1  14
ATOM     13  N   UNL     1       9.920   3.185  -0.671  0.00  0.00    -0.313 N 
ATOM     14  C   UNL     1       9.301   3.268  -1.866  0.00  0.00    +0.238 C 
ATOM     15  O   UNL     1       9.912   3.021  -2.884  0.00  0.00    -0.273 OA
ATOM     16  H   UNL     1       9.347   3.328   0.256  0.00  0.00    +0.149 HD
BRANCH  13  17
ATOM     17  C   UNL     1      11.357   2.905  -0.609  0.00  0.00    +0.104 C 
BRANCH  17  18
ATOM     18  C   UNL     1      11.805   2.865   0.854  0.00  0.00    +0.022 C 
BRANCH  18  20
ATOM     19  C   UNL     1      13.778   2.655   2.372  0.00  0.00    +0.007 C 
ATOM     20  C   UNL     1      13.306   2.573   0.919  0.00  0.00    -0.016 C 
ATOM     21  C   UNL     1      13.576   1.169   0.374  0.00  0.00    +0.007 C 
ENDBRANCH  18  20
ENDBRANCH  17  18
ENDBRANCH  13  17
ENDBRANCH   1  14
BRANCH   6  22
ATOM     22  C   UNL     1       2.063   2.737  -1.104  0.00  0.00    +0.264 C 
ATOM     23  O   UNL     1       1.208   3.562  -0.845  0.00  0.00    -0.268 OA
ATOM     24  N   UNL     1       1.710   1.473  -1.409  0.00  0.00    -0.306 N 
ATOM     25  H   UNL     1       2.484   0.727  -1.644  0.00  0.00    +0.149 HD
BRANCH  24  26
ATOM     26  C   UNL     1       0.295   1.092  -1.430  0.00  0.00    +0.140 C 
BRANCH  26  27
ATOM     27  C   UNL     1       0.172  -0.364  -1.797  0.00  0.00    -0.030 A 
ATOM     28  C   UNL     1       0.046  -0.733  -3.124  0.00  0.00    +0.009 A 
ATOM     29  C   UNL     1      -0.061  -2.067  -3.464  0.00  0.00    +0.046 A 
ATOM     30  C   UNL     1      -0.053  -3.037  -2.472  0.00  0.00    +0.121 A 
ATOM     31  C   UNL     1       0.067  -2.664  -1.141  0.00  0.00    +0.046 A 
ATOM     32  C   UNL     1       0.180  -1.329  -0.807  0.00  0.00    +0.009 A 
BRANCH  30  33
ATOM     33  O   UNL     1      -0.164  -4.351  -2.804  0.00  0.00    -0.489 OA
BRANCH  33  34
ATOM     34  C   UNL     1      -0.160  -5.293  -1.730  0.00  0.00    +0.167 C 
ATOM     35  C   UNL     1      -0.709  -6.633  -2.226  0.00  0.00    +0.051 C 
ATOM     36  C   UNL     1       1.271  -5.484  -1.224  0.00  0.00    +0.051 C 
ENDBRANCH  33  34
ENDBRANCH  30  33
ENDBRANCH  26  27
ENDBRANCH  24  26
ENDBRANCH   6  22
TORSDOF 9
