REMARK  Name = ZINC39404937
REMARK  9 active torsions:
REMARK  status: ('A' for Active; 'I' for Inactive)
REMARK    1  A    between atoms: C_1  and  C_2
REMARK    2  A    between atoms: C_5  and  C_7
REMARK    3  A    between atoms: C_9  and  C_21
REMARK    4  A    between atoms: N_12  and  C_14
REMARK    5  A    between atoms: C_21  and  N_22
REMARK    6  A    between atoms: N_22  and  C_23
REMARK    7  A    between atoms: C_23  and  C_24
REMARK    8  A    between atoms: C_29  and  O_34
REMARK    9  A    between atoms: O_34  and  C_35
REMARK                            x       y       z     vdW  Elec       q    Type
REMARK                         _______ _______ _______ _____ _____    ______ ____
ROOT
ATOM      1  C   UNL     1       1.684  -3.245  -0.023  0.00  0.00    +0.141 C 
ATOM      2  C   UNL     1       2.281  -3.467  -1.439  0.00  0.00    +0.017 C 
ATOM      3  C   UNL     1       3.635  -4.131  -1.093  0.00  0.00    +0.128 C 
ATOM      4  N   UNL     1       3.893  -3.783   0.314  0.00  0.00    -0.266 N 
ATOM      5  N   UNL     1       2.901  -2.958   0.779  0.00  0.00    -0.229 NA
ATOM      6  H   UNL     1       3.169  -1.989   0.696  0.00  0.00    +0.145 HD
ENDROOT
BRANCH   4   7
ATOM      7  C   UNL     1       4.985  -4.228   1.064  0.00  0.00    +0.047 A 
ATOM      8  C   UNL     1       5.934  -5.061   0.484  0.00  0.00    +0.024 A 
ATOM      9  C   UNL     1       7.013  -5.499   1.227  0.00  0.00    +0.005 A 
ATOM     10  C   UNL     1       7.150  -5.110   2.547  0.00  0.00    +0.038 A 
ATOM     11  C   UNL     1       6.206  -4.279   3.128  0.00  0.00    +0.125 A 
ATOM     12  C   UNL     1       5.126  -3.833   2.387  0.00  0.00    +0.062 A 
ATOM     13  F   UNL     1       6.342  -3.901   4.418  0.00  0.00    -0.205 F 
ENDBRANCH   4   7
BRANCH   1  18
ATOM     14  C   UNL     1      -0.018   1.503   0.010  0.00  0.00    +0.086 C 
ATOM     15  C   UNL     1       0.002  -0.004   0.002  0.00  0.00    +0.102 A 
ATOM     16  C   UNL     1      -1.078  -0.805   0.003  0.00  0.00    +0.045 A 
ATOM     17  C   UNL     1      -0.601  -2.136  -0.007  0.00  0.00    +0.046 A 
ATOM     18  C   UNL     1       0.742  -2.069  -0.013  0.00  0.00    +0.124 A 
ATOM     19  O   UNL     1       1.102  -0.775  -0.013  0.00  0.00    -0.463 OA
ENDBRANCH   1  18
BRANCH   2  20
ATOM     20  C   UNL     1       2.489  -2.135  -2.163  0.00  0.00    -0.075 C 
BRANCH  20  21
ATOM     21  N   UNL     1       2.941  -2.391  -3.538  0.00  0.00    +0.383 N 
ATOM     22  H   UNL     1       3.810  -2.902  -3.517  0.00  0.00    -0.085 HD
ATOM     23  H   UNL     1       2.243  -2.933  -4.025  0.00  0.00    -0.085 HD
BRANCH  21  24
ATOM     24  C   UNL     1       3.141  -1.113  -4.233  0.00  0.00    -0.028 C 
BRANCH  24  25
ATOM     25  C   UNL     1       3.603  -1.375  -5.643  0.00  0.00    -0.000 A 
ATOM     26  H   UNL     1       5.663  -1.580  -5.415  0.00  0.00    +0.166 HD
ATOM     27  C   UNL     1       2.802  -1.435  -6.718  0.00  0.00    +0.029 A 
ATOM     28  C   UNL     1       3.658  -1.708  -7.876  0.00  0.00    +0.003 A 
ATOM     29  C   UNL     1       3.416  -1.878  -9.241  0.00  0.00    +0.055 A 
ATOM     30  C   UNL     1       4.472  -2.130 -10.094  0.00  0.00    +0.121 A 
ATOM     31  C   UNL     1       5.770  -2.214  -9.598  0.00  0.00    +0.047 A 
ATOM     32  C   UNL     1       6.020  -2.049  -8.254  0.00  0.00    +0.030 A 
ATOM     33  C   UNL     1       4.970  -1.793  -7.378  0.00  0.00    +0.047 A 
ATOM     34  N   UNL     1       4.903  -1.581  -6.018  0.00  0.00    -0.360 N 
BRANCH  30  35
ATOM     35  O   UNL     1       4.243  -2.296 -11.424  0.00  0.00    -0.495 OA
ATOM     36  C   UNL     1       5.379  -2.554 -12.251  0.00  0.00    +0.277 C 
ENDBRANCH  30  35
ENDBRANCH  24  25
ENDBRANCH  21  24
ENDBRANCH  20  21
ENDBRANCH   2  20
TORSDOF 7
