REMARK  Name = ZINC20849710
REMARK  8 active torsions:
REMARK  status: ('A' for Active; 'I' for Inactive)
REMARK    1  A    between atoms: C_1  and  C_2
REMARK    2  A    between atoms: C_2  and  C_35
REMARK    3  A    between atoms: C_6  and  C_23
REMARK    4  A    between atoms: C_9  and  C_14
REMARK    5  A    between atoms: C_18  and  N_20
REMARK    6  A    between atoms: C_26  and  N_29
REMARK    7  A    between atoms: N_29  and  C_30
REMARK    8  A    between atoms: N_29  and  C_31
REMARK                            x       y       z     vdW  Elec       q    Type
REMARK                         _______ _______ _______ _____ _____    ______ ____
ROOT
ATOM      1  C   UNL     1      -0.011   1.295  -0.040  0.00  0.00    +0.011 C 
ATOM      2  C   UNL     1       0.047  -0.233  -0.097  0.00  0.00    -0.023 C 
ATOM      3  C   UNL     1       0.814  -0.671  -1.347  0.00  0.00    +0.062 C 
ATOM      4  C   UNL     1       2.235  -0.161  -1.262  0.00  0.00    +0.052 C 
ATOM      5  C   UNL     1       2.837   0.017   0.005  0.00  0.00    +0.028 C 
ATOM      6  C   UNL     1       4.264   0.531   0.053  0.00  0.00    +0.090 C 
ATOM      7  C   UNL     1       4.912   0.806  -1.286  0.00  0.00    +0.036 A 
ATOM      8  C   UNL     1       6.136   1.258  -1.657  0.00  0.00    +0.072 A 
ATOM      9  N   UNL     1       6.156   1.307  -3.021  0.00  0.00    -0.275 N 
ATOM     10  N   UNL     1       4.910   0.873  -3.489  0.00  0.00    -0.153 NA
ATOM     11  C   UNL     1       4.151   0.567  -2.450  0.00  0.00    +0.179 A 
ATOM     12  N   UNL     1       2.873   0.104  -2.365  0.00  0.00    -0.231 NA
ATOM     13  C   UNL     1       2.190  -0.254   1.145  0.00  0.00    +0.162 C 
ATOM     14  O   UNL     1       2.821  -0.062   2.323  0.00  0.00    -0.292 OA
ATOM     15  C   UNL     1       0.775  -0.765   1.142  0.00  0.00    +0.086 C 
ATOM     16  C   UNL     1      -1.373  -0.799  -0.139  0.00  0.00    +0.011 C 
ATOM     17  H   UNL     1       6.903   1.593  -3.570  0.00  0.00    +0.189 HD
ENDROOT
BRANCH   8  18
ATOM     18  C   UNL     1       7.244   1.630  -0.750  0.00  0.00    +0.002 A 
ATOM     19  C   UNL     1       7.604   0.785   0.300  0.00  0.00    +0.010 A 
ATOM     20  C   UNL     1       8.639   1.137   1.142  0.00  0.00    +0.003 A 
ATOM     21  C   UNL     1       9.319   2.326   0.947  0.00  0.00    +0.033 A 
ATOM     22  C   UNL     1       8.967   3.169  -0.092  0.00  0.00    +0.127 A 
ATOM     23  C   UNL     1       7.937   2.825  -0.945  0.00  0.00    +0.042 A 
BRANCH  22  24
ATOM     24  N   UNL     1       9.699   4.439  -0.294  0.00  0.00    +0.056 N 
ATOM     25  O   UNL     1      10.604   4.739   0.449  0.00  0.00    -0.126 OA
ATOM     26  O   UNL     1       9.392   5.176  -1.202  0.00  0.00    -0.126 OA
ENDBRANCH  22  24
ENDBRANCH   8  18
BRANCH   6  27
ATOM     27  C   UNL     1       4.276   1.810   0.849  0.00  0.00    -0.035 A 
ATOM     28  C   UNL     1       3.571   2.911   0.397  0.00  0.00    +0.006 A 
ATOM     29  C   UNL     1       3.581   4.085   1.124  0.00  0.00    +0.023 A 
ATOM     30  C   UNL     1       4.300   4.160   2.311  0.00  0.00    +0.029 A 
ATOM     31  C   UNL     1       5.007   3.052   2.761  0.00  0.00    +0.023 A 
ATOM     32  C   UNL     1       4.989   1.880   2.032  0.00  0.00    +0.006 A 
BRANCH  30  33
ATOM     33  N   UNL     1       4.312   5.346   3.048  0.00  0.00    -0.336 N 
ATOM     34  C   UNL     1       3.566   6.513   2.571  0.00  0.00    +0.129 C 
ATOM     35  C   UNL     1       5.071   5.423   4.299  0.00  0.00    +0.129 C 
ENDBRANCH  30  33
ENDBRANCH   6  27
TORSDOF 4
