REMARK  Name = ZINC04502007
REMARK  6 active torsions:
REMARK  status: ('A' for Active; 'I' for Inactive)
REMARK    1  A    between atoms: C_1  and  C_2
REMARK    2  A    between atoms: C_3  and  C_29
REMARK    3  A    between atoms: C_10  and  C_13
REMARK    4  A    between atoms: C_16  and  O_19
REMARK    5  A    between atoms: O_19  and  C_20
REMARK    6  A    between atoms: C_20  and  C_22
REMARK                            x       y       z     vdW  Elec       q    Type
REMARK                         _______ _______ _______ _____ _____    ______ ____
ROOT
ATOM      1  C   UNL     1       8.172  -2.432  -0.193  0.00  0.00    -0.009 A 
ATOM      2  C   UNL     1       8.327  -1.060  -0.114  0.00  0.00    +0.010 A 
ATOM      3  C   UNL     1       7.216  -0.240  -0.064  0.00  0.00    +0.047 A 
ATOM      4  C   UNL     1       5.944  -0.795  -0.093  0.00  0.00    +0.132 A 
ATOM      5  C   UNL     1       5.792  -2.172  -0.167  0.00  0.00    +0.047 A 
ATOM      6  C   UNL     1       6.906  -2.987  -0.223  0.00  0.00    +0.010 A 
ENDROOT
BRANCH   1  16
ATOM      7  C   UNL     1      10.581  -2.698  -5.354  0.00  0.00    +0.045 C 
ATOM      8  C   UNL     1       9.795  -3.637  -4.476  0.00  0.00    -0.027 A 
ATOM      9  C   UNL     1       8.989  -4.576  -5.006  0.00  0.00    -0.008 A 
ATOM     10  S   UNL     1       8.311  -5.395  -3.573  0.00  0.00    -0.078 S 
ATOM     11  C   UNL     1       9.090  -4.495  -2.345  0.00  0.00    +0.080 A 
ATOM     12  C   UNL     1       9.881  -3.562  -3.037  0.00  0.00    +0.068 A 
ATOM     13  C   UNL     1      10.697  -2.627  -2.229  0.00  0.00    +0.248 C 
ATOM     14  O   UNL     1      11.533  -1.909  -2.745  0.00  0.00    -0.270 OA
ATOM     15  N   UNL     1      10.477  -2.606  -0.897  0.00  0.00    -0.289 N 
ATOM     16  C   UNL     1       9.386  -3.323  -0.247  0.00  0.00    +0.190 C 
ATOM     17  N   UNL     1       9.046  -4.558  -0.976  0.00  0.00    -0.316 N 
ATOM     18  C   UNL     1       8.722  -4.865  -6.461  0.00  0.00    +0.052 C 
ATOM     19  H   UNL     1      11.078  -2.085  -0.342  0.00  0.00    +0.151 HD
ATOM     20  H   UNL     1       8.802  -5.374  -0.511  0.00  0.00    +0.149 HD
ENDBRANCH   1  16
BRANCH   4  21
ATOM     21  O   UNL     1       4.850   0.009  -0.045  0.00  0.00    -0.422 OA
BRANCH  21  22
ATOM     22  C   UNL     1       4.514   0.655  -1.179  0.00  0.00    +0.344 C 
ATOM     23  O   UNL     1       5.229   0.575  -2.157  0.00  0.00    -0.245 OA
BRANCH  22  24
ATOM     24  C   UNL     1       3.277   1.459  -1.231  0.00  0.00    +0.059 A 
ATOM     25  C   UNL     1       2.926   2.130  -2.405  0.00  0.00    +0.016 A 
ATOM     26  C   UNL     1       1.769   2.879  -2.449  0.00  0.00    +0.021 A 
ATOM     27  C   UNL     1       0.956   2.968  -1.331  0.00  0.00    +0.041 A 
ATOM     28  C   UNL     1       1.299   2.305  -0.163  0.00  0.00    +0.021 A 
ATOM     29  C   UNL     1       2.453   1.553  -0.108  0.00  0.00    +0.016 A 
ATOM     30 CL   UNL     1      -0.495   3.920  -1.391  0.00  0.00    -0.084 Cl
ENDBRANCH  22  24
ENDBRANCH  21  22
ENDBRANCH   4  21
TORSDOF 4
