REMARK  Name = ZINC00903055
REMARK  6 active torsions:
REMARK  status: ('A' for Active; 'I' for Inactive)
REMARK    1  A    between atoms: C_1  and  C_2
REMARK    2  A    between atoms: C_7  and  C_26
REMARK    3  A    between atoms: C_11  and  S_15
REMARK    4  A    between atoms: S_15  and  C_16
REMARK    5  A    between atoms: C_16  and  C_17
REMARK    6  A    between atoms: N_19  and  C_20
REMARK                            x       y       z     vdW  Elec       q    Type
REMARK                         _______ _______ _______ _____ _____    ______ ____
ROOT
ATOM      1  C   UNL     1      -3.692  -0.787   0.035  0.00  0.00    +0.044 C 
ATOM      2  C   UNL     1      -2.394  -0.021   0.026  0.00  0.00    -0.048 A 
ATOM      3  C   UNL     1      -2.416   1.366   0.033  0.00  0.00    +0.004 A 
ATOM      4  C   UNL     1      -1.239   2.081   0.031  0.00  0.00    +0.010 A 
ATOM      5  C   UNL     1      -0.017   1.402   0.010  0.00  0.00    -0.001 A 
ATOM      6  C   UNL     1       1.252   2.135   0.002  0.00  0.00    +0.017 A 
ATOM      7  C   UNL     1       2.414   1.443  -0.013  0.00  0.00    -0.005 A 
ATOM      8  C   UNL     1       2.403   0.028  -0.021  0.00  0.00    +0.165 A 
ATOM      9  N   UNL     1       3.372  -0.869  -0.035  0.00  0.00    -0.128 NA
ATOM     10  N   UNL     1       2.871  -2.053  -0.037  0.00  0.00    -0.122 NA
ATOM     11  C   UNL     1       1.557  -1.990  -0.024  0.00  0.00    +0.197 A 
ATOM     12  N   UNL     1       1.216  -0.670  -0.013  0.00  0.00    -0.270 N 
ATOM     13  C   UNL     1       0.002  -0.004   0.002  0.00  0.00    +0.058 A 
ATOM     14  C   UNL     1      -1.197  -0.705   0.010  0.00  0.00    +0.030 A 
ATOM     15  C   UNL     1       3.727   2.182  -0.021  0.00  0.00    +0.047 C 
ENDROOT
BRANCH  11  16
ATOM     16  S   UNL     1       0.446  -3.357  -0.021  0.00  0.00    -0.076 S 
BRANCH  16  17
ATOM     17  C   UNL     1       1.630  -4.726  -0.040  0.00  0.00    +0.173 C 
BRANCH  17  18
ATOM     18  C   UNL     1       0.885  -6.035  -0.040  0.00  0.00    +0.224 C 
ATOM     19  O   UNL     1      -0.328  -6.043  -0.028  0.00  0.00    -0.275 OA
ATOM     20  N   UNL     1       1.566  -7.198  -0.053  0.00  0.00    -0.312 N 
ATOM     21  H   UNL     1       2.536  -7.192  -0.063  0.00  0.00    +0.149 HD
BRANCH  20  22
ATOM     22  C   UNL     1       0.842  -8.472  -0.053  0.00  0.00    +0.073 C 
ATOM     23  C   UNL     1       0.495  -8.861   1.385  0.00  0.00    +0.022 C 
ATOM     24  C   UNL     1      -0.262 -10.191   1.385  0.00  0.00    +0.002 C 
ATOM     25  C   UNL     1       0.616 -11.277   0.761  0.00  0.00    +0.000 C 
ATOM     26  C   UNL     1       0.963 -10.888  -0.678  0.00  0.00    +0.002 C 
ATOM     27  C   UNL     1       1.720  -9.558  -0.678  0.00  0.00    +0.022 C 
ENDBRANCH  20  22
ENDBRANCH  17  18
ENDBRANCH  16  17
ENDBRANCH  11  16
TORSDOF 4
