REMARK  Name = ZINC16091220
REMARK  8 active torsions:
REMARK  status: ('A' for Active; 'I' for Inactive)
REMARK    1  A    between atoms: C_1  and  C_2
REMARK    2  A    between atoms: C_2  and  C_3
REMARK    3  A    between atoms: C_3  and  C_5
REMARK    4  A    between atoms: C_3  and  N_6
REMARK    5  A    between atoms: N_6  and  C_7
REMARK    6  A    between atoms: C_15  and  C_17
REMARK    7  A    between atoms: C_17  and  S_18
REMARK    8  A    between atoms: S_18  and  C_19
REMARK                            x       y       z     vdW  Elec       q    Type
REMARK                         _______ _______ _______ _____ _____    ______ ____
ROOT
ATOM      1  S   UNL     1       3.609  -2.848   1.836  0.00  0.00    -0.077 S 
ENDROOT
BRANCH   1   2
ATOM      2  C   UNL     1       2.564  -3.329   3.171  0.00  0.00    +0.191 A 
ATOM      3  N   UNL     1       1.266  -3.500   2.953  0.00  0.00    -0.207 NA
ATOM      4  C   UNL     1       0.433  -3.860   3.914  0.00  0.00    +0.129 A 
ATOM      5  C   UNL     1       0.938  -4.074   5.228  0.00  0.00    +0.051 A 
ATOM      6  C   UNL     1       0.209  -4.471   6.435  0.00  0.00    -0.025 A 
ATOM      7  C   UNL     1       0.929  -4.607   7.566  0.00  0.00    -0.004 A 
ATOM      8  S   UNL     1       2.597  -4.222   7.104  0.00  0.00    -0.073 S 
ATOM      9  C   UNL     1       2.324  -3.876   5.385  0.00  0.00    +0.115 A 
ATOM     10  N   UNL     1       3.091  -3.520   4.373  0.00  0.00    -0.214 NA
ATOM     11  C   UNL     1       0.424  -4.999   8.922  0.00  0.00    +0.043 C 
ATOM     12  C   UNL     1      -1.105  -4.865   8.927  0.00  0.00    +0.005 C 
ATOM     13  C   UNL     1      -1.661  -5.543   7.671  0.00  0.00    +0.005 C 
ATOM     14  C   UNL     1      -1.296  -4.722   6.433  0.00  0.00    +0.037 C 
ATOM     15  N   UNL     1      -0.914  -4.027   3.647  0.00  0.00    -0.343 N 
ATOM     16  H   UNL     1      -1.218  -4.121   2.731  0.00  0.00    +0.144 HD
ATOM     17  H   UNL     1      -1.554  -4.050   4.376  0.00  0.00    +0.144 HD
ENDBRANCH   1   2
BRANCH   1  18
ATOM     18  C   UNL     1       2.480  -2.708   0.423  0.00  0.00    +0.173 C 
BRANCH  18  20
ATOM     19  N   UNL     1       2.607  -2.024  -1.951  0.00  0.00    -0.293 N 
ATOM     20  C   UNL     1       3.256  -2.296  -0.801  0.00  0.00    +0.226 C 
ATOM     21  O   UNL     1       4.465  -2.209  -0.753  0.00  0.00    -0.275 OA
BRANCH  19  22
ATOM     22  C   UNL     1       3.348  -1.518  -3.109  0.00  0.00    +0.099 C 
ATOM     23  C   UNL     1       4.443  -2.523  -3.504  0.00  0.00    +0.046 C 
ATOM     24  C   UNL     1       5.425  -1.866  -4.504  0.00  0.00    +0.168 C 
ATOM     25  S   UNL     1       5.325  -0.085  -4.058  0.00  0.00    -0.029 S 
ATOM     26  O   UNL     1       6.556   0.315  -3.471  0.00  0.00    -0.174 OA
ATOM     27  O   UNL     1       4.809   0.641  -5.166  0.00  0.00    -0.174 OA
ATOM     28  C   UNL     1       4.036  -0.172  -2.744  0.00  0.00    +0.188 C 
ENDBRANCH  19  22
BRANCH  19  29
ATOM     29  C   UNL     1       1.160  -2.235  -2.042  0.00  0.00    +0.073 C 
ATOM     30  C   UNL     1       0.473  -0.914  -2.393  0.00  0.00    +0.028 C 
BRANCH  29  32
ATOM     31  C   UNL     1       1.461  -4.618  -2.729  0.00  0.00    +0.005 C 
ATOM     32  C   UNL     1       0.863  -3.269  -3.131  0.00  0.00    +0.019 C 
ENDBRANCH  29  32
ENDBRANCH  19  29
ENDBRANCH  18  20
ENDBRANCH   1  18
TORSDOF 6
