REMARK  Name = ZINC09329053
REMARK  15 active torsions:
REMARK  status: ('A' for Active; 'I' for Inactive)
REMARK    1  A    between atoms: C_1  and  C_2
REMARK    2  A    between atoms: C_2  and  C_3
REMARK    3  A    between atoms: C_3  and  C_4
REMARK    4  A    between atoms: C_4  and  C_5
REMARK    5  A    between atoms: C_5  and  O_6
REMARK    6  A    between atoms: O_6  and  C_7
REMARK    7  A    between atoms: C_11  and  C_13
REMARK    8  A    between atoms: C_16  and  C_17
REMARK    9  A    between atoms: C_16  and  O_28
REMARK   10  A    between atoms: C_24  and  C_27
REMARK   11  A    between atoms: N_33  and  C_34
REMARK   12  A    between atoms: C_34  and  C_35
REMARK   13  A    between atoms: C_35  and  N_72
REMARK   14  A    between atoms: C_36  and  N_72
REMARK   15  A    between atoms: C_37  and  N_72
REMARK                            x       y       z     vdW  Elec       q    Type
REMARK                         _______ _______ _______ _____ _____    ______ ____
ROOT
ATOM      1  C   UNL     1      -2.171   0.946   0.110  0.00  0.00    +0.144 C 
ATOM      2  C   UNL     1      -2.477   0.451   1.505  0.00  0.00    +0.071 C 
ATOM      3  C   UNL     1      -2.982   1.192   2.556  0.00  0.00    +0.133 C 
ATOM      4  C   UNL     1      -2.146  -0.912   1.517  0.00  0.00    +0.249 C 
ATOM      5  O   UNL     1      -2.254  -1.664   2.469  0.00  0.00    -0.282 OA
ATOM      6  C   UNL     1      -1.642  -1.280   0.167  0.00  0.00    +0.288 C 
ATOM      7  O   UNL     1      -1.269  -2.388  -0.159  0.00  0.00    -0.266 OA
ATOM      8  N   UNL     1      -1.659  -0.205  -0.641  0.00  0.00    -0.285 N 
ENDROOT
BRANCH   3   9
ATOM      9  C   UNL     1      -3.361   0.525   3.811  0.00  0.00    +0.017 A 
ATOM     10  C   UNL     1      -2.877   0.999   5.037  0.00  0.00    +0.015 A 
ATOM     11  C   UNL     1      -3.231   0.372   6.207  0.00  0.00    +0.046 A 
ATOM     12  C   UNL     1      -4.075  -0.741   6.187  0.00  0.00    +0.124 A 
ATOM     13  C   UNL     1      -4.559  -1.204   4.966  0.00  0.00    -0.002 A 
ATOM     14  C   UNL     1      -4.215  -0.586   3.790  0.00  0.00    +0.019 A 
ATOM     15  C   UNL     1      -5.447  -2.396   5.264  0.00  0.00    +0.083 C 
ATOM     16  C   UNL     1      -5.683  -2.246   6.786  0.00  0.00    +0.175 C 
ATOM     17  O   UNL     1      -4.528  -1.506   7.216  0.00  0.00    -0.488 OA
ATOM     18  C   UNL     1      -6.965  -1.456   7.060  0.00  0.00    +0.052 C 
ENDBRANCH   3   9
BRANCH   1  23
ATOM     19  C   UNL     1      -0.541   4.355   0.091  0.00  0.00    +0.121 A 
ATOM     20  C   UNL     1       0.795   4.021   0.261  0.00  0.00    +0.045 A 
ATOM     21  C   UNL     1       1.164   2.696   0.385  0.00  0.00    +0.004 A 
ATOM     22  C   UNL     1       0.204   1.702   0.339  0.00  0.00    +0.006 A 
ATOM     23  C   UNL     1      -1.127   2.032   0.165  0.00  0.00    -0.019 A 
ATOM     24  C   UNL     1      -1.503   3.356   0.047  0.00  0.00    +0.051 A 
BRANCH  19  25
ATOM     25  O   UNL     1      -0.907   5.658  -0.030  0.00  0.00    -0.492 OA
BRANCH  25  26
ATOM     26  C   UNL     1       0.136   6.633   0.025  0.00  0.00    +0.229 C 
BRANCH  26  27
ATOM     27  C   UNL     1      -0.465   8.032  -0.129  0.00  0.00    +0.041 C 
BRANCH  27  28
ATOM     28  C   UNL     1       0.652   9.075  -0.069  0.00  0.00    +0.003 C 
BRANCH  28  30
ATOM     29  C   UNL     1       1.169  11.518  -0.164  0.00  0.00    +0.004 C 
ATOM     30  C   UNL     1       0.052  10.474  -0.223  0.00  0.00    -0.003 C 
ENDBRANCH  28  30
ENDBRANCH  27  28
ENDBRANCH  26  27
ENDBRANCH  25  26
ENDBRANCH  19  25
ENDBRANCH   1  23
BRANCH   3  31
ATOM     31  O   UNL     1      -3.126   2.529   2.431  0.00  0.00    -0.506 OA
ATOM     32  H   UNL     1      -3.502   2.904   3.279  0.00  0.00    +0.292 HD
ENDBRANCH   3  31
BRANCH   8  33
ATOM     33  C   UNL     1      -1.234  -0.185  -2.043  0.00  0.00    +0.090 C 
BRANCH  33  34
ATOM     34  C   UNL     1       0.256   0.151  -2.120  0.00  0.00    -0.060 C 
BRANCH  34  37
ATOM     35  C   UNL     1       2.039   0.717  -3.658  0.00  0.00    -0.097 C 
ATOM     36  C   UNL     1       0.594  -1.170  -4.121  0.00  0.00    -0.097 C 
ATOM     37  N   UNL     1       0.664   0.188  -3.540  0.00  0.00    +0.377 N 
ATOM     38  H   UNL     1       0.024   0.804  -4.055  0.00  0.00    -0.083 HD
ENDBRANCH  34  37
ENDBRANCH  33  34
ENDBRANCH   8  33
TORSDOF 11
