REMARK  Name = ZINC41108327
REMARK  10 active torsions:
REMARK  status: ('A' for Active; 'I' for Inactive)
REMARK    1  A    between atoms: C_1  and  C_2
REMARK    2  A    between atoms: C_2  and  N_3
REMARK    3  A    between atoms: N_3  and  C_4
REMARK    4  A    between atoms: N_3  and  C_6
REMARK    5  A    between atoms: C_4  and  C_5
REMARK    6  A    between atoms: C_9  and  C_12
REMARK    7  A    between atoms: C_22  and  C_24
REMARK    8  A    between atoms: C_24  and  O_25
REMARK    9  A    between atoms: O_25  and  C_26
REMARK   10  A    between atoms: C_31  and  C_32
REMARK                            x       y       z     vdW  Elec       q    Type
REMARK                         _______ _______ _______ _____ _____    ______ ____
ROOT
ATOM      1  C   UNL     1      -3.960  -1.509   4.896  0.00  0.00    +0.024 C 
ATOM      2  C   UNL     1      -5.284  -1.892   4.909  0.00  0.00    +0.081 C 
ATOM      3  C   UNL     1      -6.042  -2.055   6.181  0.00  0.00    +0.153 C 
ATOM      4  N   UNL     1      -5.826  -1.326   7.243  0.00  0.00    -0.283 NA
ATOM      5  N   UNL     1      -7.016  -3.075   6.126  0.00  0.00    -0.152 N 
ATOM      6  C   UNL     1      -7.496  -3.430   4.883  0.00  0.00    +0.181 C 
ATOM      7  N   UNL     1      -7.088  -2.998   3.717  0.00  0.00    -0.152 NA
ATOM      8  C   UNL     1      -6.032  -2.159   3.655  0.00  0.00    +0.273 C 
ATOM      9  O   UNL     1      -5.701  -1.637   2.603  0.00  0.00    -0.268 OA
ATOM     10  S   UNL     1      -8.756  -4.607   5.295  0.00  0.00    -0.035 S 
ATOM     11  C   UNL     1      -8.493  -4.624   7.063  0.00  0.00    +0.137 C 
ATOM     12  N   UNL     1      -7.543  -3.745   7.209  0.00  0.00    -0.166 NA
ATOM     13  H   UNL     1      -6.348  -1.473   8.047  0.00  0.00    +0.188 HD
ENDROOT
BRANCH   1  17
ATOM     14  C   UNL     1      -1.771  -1.588   1.281  0.00  0.00    +0.030 A 
ATOM     15  C   UNL     1      -1.544  -0.573   2.208  0.00  0.00    +0.024 A 
ATOM     16  C   UNL     1      -2.248  -0.543   3.377  0.00  0.00    +0.010 A 
ATOM     17  C   UNL     1      -3.203  -1.536   3.644  0.00  0.00    -0.024 A 
ATOM     18  C   UNL     1      -3.428  -2.556   2.707  0.00  0.00    +0.010 A 
ATOM     19  C   UNL     1      -2.721  -2.574   1.539  0.00  0.00    +0.024 A 
BRANCH  14  20
ATOM     20  N   UNL     1      -1.052  -1.614   0.093  0.00  0.00    -0.330 N 
BRANCH  20  22
ATOM     21  C   UNL     1      -0.716   0.593  -0.907  0.00  0.00    +0.024 C 
ATOM     22  C   UNL     1      -0.052  -0.579  -0.181  0.00  0.00    +0.102 C 
ENDBRANCH  20  22
BRANCH  20  23
ATOM     23  C   UNL     1      -1.292  -2.677  -0.886  0.00  0.00    +0.102 C 
ATOM     24  C   UNL     1      -0.364  -3.858  -0.596  0.00  0.00    +0.024 C 
ENDBRANCH  20  23
ENDBRANCH  14  20
ENDBRANCH   1  17
BRANCH  11  25
ATOM     25  C   UNL     1      -9.193  -5.445   8.116  0.00  0.00    +0.293 C 
BRANCH  25  26
ATOM     26  O   UNL     1      -8.656  -5.128   9.402  0.00  0.00    -0.485 OA
BRANCH  26  27
ATOM     27  C   UNL     1      -9.181  -5.785  10.469  0.00  0.00    +0.124 A 
ATOM     28  C   UNL     1     -10.188  -6.721  10.281  0.00  0.00    +0.046 A 
ATOM     29  C   UNL     1     -10.720  -7.388  11.368  0.00  0.00    +0.004 A 
ATOM     30  C   UNL     1     -10.249  -7.125  12.641  0.00  0.00    +0.000 A 
ATOM     31  C   UNL     1      -9.245  -6.193  12.830  0.00  0.00    +0.007 A 
ATOM     32  C   UNL     1      -8.706  -5.527  11.746  0.00  0.00    -0.009 A 
ATOM     33  C   UNL     1      -7.608  -4.515  11.953  0.00  0.00    +0.047 C 
ENDBRANCH  26  27
ENDBRANCH  25  26
ENDBRANCH  11  25
TORSDOF 7
