REMARK  Name = ZINC33122862
REMARK  7 active torsions:
REMARK  status: ('A' for Active; 'I' for Inactive)
REMARK    1  A    between atoms: C_1  and  C_2
REMARK    2  A    between atoms: C_5  and  S_8
REMARK    3  A    between atoms: S_8  and  N_11
REMARK    4  A    between atoms: N_11  and  C_12
REMARK    5  A    between atoms: C_15  and  C_18
REMARK    6  A    between atoms: C_20  and  C_23
REMARK    7  A    between atoms: C_23  and  C_24
REMARK                            x       y       z     vdW  Elec       q    Type
REMARK                         _______ _______ _______ _____ _____    ______ ____
ROOT
ATOM      1  C   UNL     1      -4.914   1.963  -6.664  0.00  0.00    +0.048 A 
ATOM      2  C   UNL     1      -4.120   3.104  -6.680  0.00  0.00    +0.025 A 
ATOM      3  C   UNL     1      -3.375   3.442  -5.572  0.00  0.00    +0.013 A 
ATOM      4  C   UNL     1      -3.416   2.637  -4.433  0.00  0.00    +0.023 A 
ATOM      5  C   UNL     1      -4.209   1.490  -4.421  0.00  0.00    +0.013 A 
ATOM      6  C   UNL     1      -4.957   1.159  -5.530  0.00  0.00    +0.025 A 
ENDROOT
BRANCH   4   7
ATOM      7  C   UNL     1      -2.615   2.998  -3.239  0.00  0.00    +0.202 A 
ATOM      8  N   UNL     1      -2.558   2.315  -2.073  0.00  0.00    -0.191 NA
ATOM      9  C   UNL     1      -1.736   2.990  -1.310  0.00  0.00    +0.233 A 
ATOM     10  O   UNL     1      -1.323   4.049  -2.014  0.00  0.00    -0.337 OA
ATOM     11  N   UNL     1      -1.830   4.038  -3.116  0.00  0.00    -0.056 NA
BRANCH   9  12
ATOM     12  C   UNL     1      -1.334   2.641   0.100  0.00  0.00    +0.141 C 
BRANCH  12  13
ATOM     13  C   UNL     1      -0.111   1.762   0.071  0.00  0.00    -0.001 A 
ATOM     14  C   UNL     1       1.197   2.117   0.085  0.00  0.00    +0.011 A 
ATOM     15  C   UNL     1       2.162   1.128   0.046  0.00  0.00    +0.008 A 
ATOM     16  C   UNL     1       1.771  -0.169  -0.004  0.00  0.00    +0.045 A 
ATOM     17  S   UNL     1      -0.008  -0.019   0.002  0.00  0.00    -0.101 S 
ENDBRANCH  12  13
ENDBRANCH   9  12
ENDBRANCH   4   7
BRANCH   1  18
ATOM     18  N   UNL     1      -5.668   1.623  -7.787  0.00  0.00    -0.216 N 
ATOM     19  H   UNL     1      -6.264   2.391  -8.303  0.00  0.00    +0.174 HD
BRANCH  18  20
ATOM     20  S   UNL     1      -5.667   0.064  -8.345  0.00  0.00    +0.072 S 
ATOM     21  O   UNL     1      -5.986  -0.764  -7.235  0.00  0.00    -0.150 OA
ATOM     22  O   UNL     1      -6.432   0.060  -9.543  0.00  0.00    -0.150 OA
BRANCH  20  27
ATOM     23  C   UNL     1       0.005  -1.266  -9.916  0.00  0.00    +0.044 C 
ATOM     24  C   UNL     1      -1.412  -0.934  -9.523  0.00  0.00    -0.050 A 
ATOM     25  C   UNL     1      -1.879  -1.274  -8.268  0.00  0.00    +0.005 A 
ATOM     26  C   UNL     1      -3.179  -0.970  -7.908  0.00  0.00    +0.029 A 
ATOM     27  C   UNL     1      -4.011  -0.324  -8.803  0.00  0.00    +0.109 A 
ATOM     28  C   UNL     1      -3.545   0.012 -10.061  0.00  0.00    +0.029 A 
ATOM     29  C   UNL     1      -2.244  -0.288 -10.419  0.00  0.00    +0.005 A 
ENDBRANCH  20  27
ENDBRANCH  18  20
ENDBRANCH   1  18
TORSDOF 6
