REMARK  Name = ZINC08905412
REMARK  13 active torsions:
REMARK  status: ('A' for Active; 'I' for Inactive)
REMARK    1  A    between atoms: C_1  and  C_2
REMARK    2  A    between atoms: C_2  and  N_64
REMARK    3  A    between atoms: C_3  and  C_4
REMARK    4  A    between atoms: C_3  and  N_64
REMARK    5  A    between atoms: C_5  and  C_6
REMARK    6  A    between atoms: C_5  and  N_64
REMARK    7  A    between atoms: C_6  and  C_7
REMARK    8  A    between atoms: C_7  and  N_8
REMARK    9  A    between atoms: C_9  and  C_29
REMARK   10  A    between atoms: C_12  and  C_13
REMARK   11  A    between atoms: C_12  and  O_24
REMARK   12  A    between atoms: C_19  and  O_22
REMARK   13  A    between atoms: O_22  and  C_23
REMARK                            x       y       z     vdW  Elec       q    Type
REMARK                         _______ _______ _______ _____ _____    ______ ____
ROOT
ATOM      1  N   UNL     1      -0.899   4.836   7.590  0.00  0.00    -0.284 N 
ATOM      2  C   UNL     1      -2.232   4.225   7.562  0.00  0.00    +0.145 C 
ATOM      3  C   UNL     1      -2.383   3.582   6.203  0.00  0.00    +0.074 C 
ATOM      4  C   UNL     1      -3.483   2.886   5.730  0.00  0.00    +0.168 C 
ATOM      5  C   UNL     1      -1.184   3.825   5.520  0.00  0.00    +0.249 C 
ATOM      6  O   UNL     1      -0.919   3.457   4.389  0.00  0.00    -0.282 OA
ATOM      7  C   UNL     1      -0.292   4.611   6.412  0.00  0.00    +0.288 C 
ATOM      8  O   UNL     1       0.824   4.990   6.122  0.00  0.00    -0.266 OA
ENDROOT
BRANCH   4   9
ATOM      9  C   UNL     1      -3.420   2.211   4.434  0.00  0.00    +0.171 A 
ATOM     10  C   UNL     1      -3.810   0.927   4.194  0.00  0.00    +0.061 A 
ATOM     11  C   UNL     1      -3.580   0.678   2.818  0.00  0.00    +0.025 A 
ATOM     12  C   UNL     1      -3.775  -0.435   1.990  0.00  0.00    +0.012 A 
ATOM     13  C   UNL     1      -3.447  -0.363   0.667  0.00  0.00    +0.004 A 
ATOM     14  C   UNL     1      -2.920   0.805   0.132  0.00  0.00    +0.049 A 
ATOM     15  C   UNL     1      -2.718   1.916   0.930  0.00  0.00    +0.163 A 
ATOM     16  C   UNL     1      -3.042   1.863   2.285  0.00  0.00    +0.177 A 
ATOM     17  O   UNL     1      -2.966   2.763   3.288  0.00  0.00    -0.448 OA
BRANCH  15  18
ATOM     18  O   UNL     1      -2.200   3.054   0.397  0.00  0.00    -0.491 OA
ATOM     19  C   UNL     1      -1.887   3.033  -0.997  0.00  0.00    +0.277 C 
ENDBRANCH  15  18
ENDBRANCH   4   9
BRANCH   2  20
ATOM     20  C   UNL     1      -2.343   3.181   8.643  0.00  0.00    -0.022 A 
ATOM     21  C   UNL     1      -1.268   2.358   8.922  0.00  0.00    +0.007 A 
ATOM     22  C   UNL     1      -1.368   1.403   9.917  0.00  0.00    +0.020 A 
ATOM     23  C   UNL     1      -2.548   1.265  10.626  0.00  0.00    +0.041 A 
ATOM     24  C   UNL     1      -3.625   2.085  10.343  0.00  0.00    +0.020 A 
ATOM     25  C   UNL     1      -3.522   3.043   9.351  0.00  0.00    +0.007 A 
ATOM     26 CL   UNL     1      -2.676   0.062  11.872  0.00  0.00    -0.084 Cl
ENDBRANCH   2  20
BRANCH   4  27
ATOM     27  O   UNL     1      -4.616   2.831   6.466  0.00  0.00    -0.503 OA
ATOM     28  H   UNL     1      -5.304   2.293   5.979  0.00  0.00    +0.292 HD
ENDBRANCH   4  27
BRANCH   1  29
ATOM     29  C   UNL     1      -0.324   5.573   8.718  0.00  0.00    +0.107 C 
BRANCH  29  30
ATOM     30  C   UNL     1       0.428   4.603   9.630  0.00  0.00    +0.000 C 
BRANCH  30  31
ATOM     31  C   UNL     1       1.029   5.372  10.808  0.00  0.00    -0.077 C 
BRANCH  31  32
ATOM     32  N   UNL     1       1.770   4.426  11.668  0.00  0.00    +0.379 N 
ATOM     33  H   UNL     1       2.423   3.887  11.086  0.00  0.00    -0.082 HD
BRANCH  32  35
ATOM     34  C   UNL     1       3.792   5.749  12.036  0.00  0.00    -0.017 C 
ATOM     35  C   UNL     1       2.537   5.167  12.691  0.00  0.00    -0.082 C 
ENDBRANCH  32  35
BRANCH  32  36
ATOM     36  C   UNL     1       0.827   3.493  12.321  0.00  0.00    -0.082 C 
ATOM     37  C   UNL     1       1.619   2.319  12.900  0.00  0.00    -0.017 C 
ENDBRANCH  32  36
ENDBRANCH  31  32
ENDBRANCH  30  31
ENDBRANCH  29  30
ENDBRANCH   1  29
TORSDOF 10
