REMARK  Name = ZINC36536933
REMARK  17 active torsions:
REMARK  status: ('A' for Active; 'I' for Inactive)
REMARK    1  A    between atoms: C_1  and  C_2
REMARK    2  A    between atoms: C_2  and  C_3
REMARK    3  A    between atoms: C_2  and  C_4
REMARK    4  A    between atoms: C_2  and  C_5
REMARK    5  A    between atoms: C_5  and  C_6
REMARK    6  A    between atoms: C_6  and  C_7
REMARK    7  A    between atoms: C_6  and  C_8
REMARK    8  A    between atoms: C_6  and  N_9
REMARK    9  A    between atoms: C_10  and  C_12
REMARK   10  A    between atoms: C_12  and  C_14
REMARK   11  A    between atoms: C_12  and  N_27
REMARK   12  A    between atoms: C_14  and  C_15
REMARK   13  A    between atoms: C_14  and  C_21
REMARK   14  A    between atoms: N_27  and  C_28
REMARK   15  A    between atoms: C_29  and  C_31
REMARK   16  A    between atoms: C_31  and  N_32
REMARK   17  A    between atoms: C_33  and  C_35
REMARK                            x       y       z     vdW  Elec       q    Type
REMARK                         _______ _______ _______ _____ _____    ______ ____
ROOT
ATOM      1  C   UNL     1       3.605  -0.938  -4.112  0.00  0.00    +0.173 C 
ENDROOT
BRANCH   1   3
ATOM      2  N   UNL     1       2.417  -0.348  -2.025  0.00  0.00    -0.309 N 
ATOM      3  C   UNL     1       3.545  -0.280  -2.758  0.00  0.00    +0.235 C 
ATOM      4  O   UNL     1       4.514   0.310  -2.327  0.00  0.00    -0.274 OA
ATOM      5  H   UNL     1       1.666  -0.877  -2.337  0.00  0.00    +0.149 HD
BRANCH   2   6
ATOM      6  C   UNL     1       2.322   0.379  -0.756  0.00  0.00    +0.030 C 
ATOM      7  C   UNL     1       2.316   1.884  -1.030  0.00  0.00    +0.031 C 
ATOM      8  C   UNL     1       3.523   0.026   0.124  0.00  0.00    +0.031 C 
BRANCH   6   9
ATOM      9  C   UNL     1       1.030  -0.014  -0.038  0.00  0.00    +0.031 C 
BRANCH   9  11
ATOM     10  C   UNL     1       2.163  -1.558   1.567  0.00  0.00    +0.010 C 
ATOM     11  C   UNL     1       1.133  -1.464   0.440  0.00  0.00    -0.036 C 
ATOM     12  C   UNL     1       1.569  -2.355  -0.725  0.00  0.00    +0.010 C 
ATOM     13  C   UNL     1      -0.231  -1.929   0.955  0.00  0.00    +0.010 C 
ENDBRANCH   9  11
ENDBRANCH   6   9
ENDBRANCH   2   6
ENDBRANCH   1   3
BRANCH   1  14
ATOM     14  N   UNL     1       5.003  -1.091  -4.520  0.00  0.00    -0.291 N 
ATOM     15  C   UNL     1       5.858   0.090  -4.663  0.00  0.00    +0.133 C 
ATOM     16  C   UNL     1       5.504  -2.318  -4.765  0.00  0.00    +0.233 C 
ATOM     17  O   UNL     1       4.796  -3.296  -4.647  0.00  0.00    -0.274 OA
BRANCH  16  18
ATOM     18  C   UNL     1       6.943  -2.475  -5.184  0.00  0.00    +0.200 C 
BRANCH  18  19
ATOM     19  N   UNL     1       7.239  -3.896  -5.387  0.00  0.00    -0.303 N 
ATOM     20  C   UNL     1       8.475  -4.278  -5.768  0.00  0.00    +0.244 C 
ATOM     21  O   UNL     1       9.342  -3.445  -5.943  0.00  0.00    -0.270 OA
ATOM     22  H   UNL     1       6.547  -4.561  -5.247  0.00  0.00    +0.150 HD
BRANCH  20  23
ATOM     23  C   UNL     1       8.774  -5.711  -5.973  0.00  0.00    +0.037 A 
ATOM     24  C   UNL     1       7.779  -6.670  -5.778  0.00  0.00    +0.013 A 
ATOM     25  C   UNL     1       8.065  -8.006  -5.972  0.00  0.00    +0.001 A 
ATOM     26  C   UNL     1       9.335  -8.396  -6.357  0.00  0.00    +0.000 A 
ATOM     27  C   UNL     1      10.327  -7.450  -6.551  0.00  0.00    +0.001 A 
ATOM     28  C   UNL     1      10.052  -6.111  -6.367  0.00  0.00    +0.013 A 
ENDBRANCH  20  23
ENDBRANCH  18  19
ENDBRANCH  16  18
ENDBRANCH   1  14
BRANCH   1  29
ATOM     29  C   UNL     1       2.868  -0.069  -5.134  0.00  0.00    +0.078 C 
BRANCH  29  30
ATOM     30  C   UNL     1       2.998  -0.684  -6.503  0.00  0.00    -0.038 A 
ATOM     31  C   UNL     1       2.877  -2.052  -6.661  0.00  0.00    +0.004 A 
ATOM     32  C   UNL     1       2.996  -2.616  -7.917  0.00  0.00    +0.000 A 
ATOM     33  C   UNL     1       3.236  -1.813  -9.016  0.00  0.00    +0.000 A 
ATOM     34  C   UNL     1       3.355  -0.445  -8.859  0.00  0.00    +0.000 A 
ATOM     35  C   UNL     1       3.232   0.120  -7.603  0.00  0.00    +0.004 A 
ENDBRANCH  29  30
BRANCH  29  36
ATOM     36  C   UNL     1       1.411   0.020  -4.759  0.00  0.00    -0.038 A 
ATOM     37  C   UNL     1       0.614  -1.108  -4.809  0.00  0.00    +0.004 A 
ATOM     38  C   UNL     1      -0.722  -1.027  -4.465  0.00  0.00    +0.000 A 
ATOM     39  C   UNL     1      -1.262   0.184  -4.072  0.00  0.00    +0.000 A 
ATOM     40  C   UNL     1      -0.465   1.312  -4.021  0.00  0.00    +0.000 A 
ATOM     41  C   UNL     1       0.872   1.229  -4.361  0.00  0.00    +0.004 A 
ENDBRANCH  29  36
ENDBRANCH   1  29
TORSDOF 11
