REMARK  Name = ZINC04531733
REMARK  6 active torsions:
REMARK  status: ('A' for Active; 'I' for Inactive)
REMARK    1  A    between atoms: C_4  and  C_7
REMARK    2  A    between atoms: C_7  and  C_16
REMARK    3  A    between atoms: N_8  and  N_9
REMARK    4  A    between atoms: N_9  and  C_10
REMARK    5  A    between atoms: C_19  and  N_25
REMARK    6  A    between atoms: C_20  and  N_22
REMARK                            x       y       z     vdW  Elec       q    Type
REMARK                         _______ _______ _______ _____ _____    ______ ____
ROOT
ATOM      1  C   UNL     1       5.746  -0.459  -0.150  0.00  0.00    +0.096 C 
ATOM      2  N   UNL     1       4.968   0.517   0.393  0.00  0.00    -0.181 NA
ENDROOT
BRANCH   1   6
ATOM      3  C   UNL     1       3.981  -4.069  -1.501  0.00  0.00    +0.000 A 
ATOM      4  C   UNL     1       4.898  -3.408  -2.304  0.00  0.00    +0.001 A 
ATOM      5  C   UNL     1       5.476  -2.235  -1.874  0.00  0.00    +0.010 A 
ATOM      6  C   UNL     1       5.135  -1.709  -0.618  0.00  0.00    +0.002 A 
ATOM      7  C   UNL     1       4.210  -2.389   0.191  0.00  0.00    +0.010 A 
ATOM      8  C   UNL     1       3.637  -3.558  -0.259  0.00  0.00    +0.001 A 
ENDBRANCH   1   6
BRANCH   1   9
ATOM      9  C   UNL     1       7.140  -0.269  -0.263  0.00  0.00    +0.005 A 
ATOM     10  C   UNL     1       7.985  -1.366  -0.552  0.00  0.00    +0.012 A 
ATOM     11  C   UNL     1       9.326  -1.177  -0.660  0.00  0.00    +0.025 A 
ATOM     12  C   UNL     1       9.873   0.103  -0.486  0.00  0.00    +0.055 A 
ATOM     13  C   UNL     1       9.041   1.195  -0.199  0.00  0.00    +0.147 A 
ATOM     14  C   UNL     1       7.697   1.019  -0.094  0.00  0.00    +0.044 A 
BRANCH  13  15
ATOM     15  N   UNL     1       9.626   2.542  -0.016  0.00  0.00    +0.058 N 
ATOM     16  O   UNL     1       8.870   3.537   0.399  0.00  0.00    -0.126 OA
ATOM     17  O   UNL     1      10.902   2.745  -0.268  0.00  0.00    -0.126 OA
ENDBRANCH  13  15
BRANCH  12  18
ATOM     18  N   UNL     1      11.232   0.288  -0.597  0.00  0.00    -0.356 N 
ATOM     19  H   UNL     1      11.771  -0.356  -1.082  0.00  0.00    +0.142 HD
ATOM     20  H   UNL     1      11.651   1.063  -0.190  0.00  0.00    +0.142 HD
ENDBRANCH  12  18
ENDBRANCH   1   9
BRANCH   2  21
ATOM     21  N   UNL     1       3.683   0.402   0.375  0.00  0.00    -0.237 N 
ATOM     22  H   UNL     1       3.270  -0.354  -0.070  0.00  0.00    +0.174 HD
BRANCH  21  23
ATOM     23  C   UNL     1       2.900   1.352   0.987  0.00  0.00    +0.048 A 
ATOM     24  C   UNL     1       1.506   1.231   0.970  0.00  0.00    +0.025 A 
ATOM     25  C   UNL     1       0.727   2.186   1.586  0.00  0.00    +0.002 A 
ATOM     26  C   UNL     1       1.321   3.265   2.221  0.00  0.00    +0.000 A 
ATOM     27  C   UNL     1       2.701   3.391   2.242  0.00  0.00    +0.002 A 
ATOM     28  C   UNL     1       3.492   2.443   1.631  0.00  0.00    +0.025 A 
ENDBRANCH  21  23
ENDBRANCH   2  21
TORSDOF 6
