REMARK  Name = ZINC65347762
REMARK  4 active torsions:
REMARK  status: ('A' for Active; 'I' for Inactive)
REMARK    1  A    between atoms: C_3  and  C_17
REMARK    2  A    between atoms: C_6  and  C_7
REMARK    3  A    between atoms: C_10  and  N_16
REMARK    4  A    between atoms: C_12  and  C_13
REMARK                            x       y       z     vdW  Elec       q    Type
REMARK                         _______ _______ _______ _____ _____    ______ ____
ROOT
ATOM      1  C   UNL     1      -1.285  -0.737  -0.010  0.00  0.00    +0.012 A 
ATOM      2  C   UNL     1      -2.238  -0.510   0.981  0.00  0.00    +0.093 A 
ATOM      3  N   UNL     1      -3.357  -1.202   1.012  0.00  0.00    -0.349 N 
ATOM      4  C   UNL     1      -3.631  -2.138   0.116  0.00  0.00    +0.094 A 
ATOM      5  C   UNL     1      -2.736  -2.433  -0.909  0.00  0.00    +0.057 A 
ATOM      6  C   UNL     1      -1.540  -1.722  -0.989  0.00  0.00    +0.075 A 
ATOM      7  H   UNL     1      -4.001  -1.022   1.714  0.00  0.00    +0.167 HD
ENDROOT
BRANCH   1  13
ATOM      8  C   UNL     1       0.301   0.793  -1.172  0.00  0.00    +0.009 A 
ATOM      9  C   UNL     1       1.464   1.518  -1.200  0.00  0.00    +0.016 A 
ATOM     10  C   UNL     1       2.320   1.510  -0.094  0.00  0.00    +0.063 A 
ATOM     11  C   UNL     1       1.988   0.762   1.040  0.00  0.00    +0.016 A 
ATOM     12  C   UNL     1       0.825   0.037   1.066  0.00  0.00    +0.009 A 
ATOM     13  C   UNL     1      -0.029   0.046  -0.039  0.00  0.00    -0.016 A 
BRANCH  10  14
ATOM     14  C   UNL     1       3.571   2.289  -0.123  0.00  0.00    +0.387 C 
ATOM     15  O   UNL     1       3.861   2.943  -1.116  0.00  0.00    -0.241 OA
ATOM     16  O   UNL     1       4.319   2.282   0.845  0.00  0.00    -0.241 OA
ENDBRANCH  10  14
ENDBRANCH   1  13
BRANCH   6  17
ATOM     17  C   UNL     1      -0.563  -1.996  -2.063  0.00  0.00    +0.387 C 
ATOM     18  O   UNL     1      -0.851  -2.764  -2.970  0.00  0.00    -0.241 OA
ATOM     19  O   UNL     1       0.533  -1.454  -2.046  0.00  0.00    -0.241 OA
ENDBRANCH   6  17
BRANCH   4  20
ATOM     20  N   UNL     1      -4.828  -2.836   0.201  0.00  0.00    -0.345 N 
ATOM     21  H   UNL     1      -5.456  -2.637   0.913  0.00  0.00    +0.144 HD
ATOM     22  H   UNL     1      -5.036  -3.523  -0.451  0.00  0.00    +0.144 HD
ENDBRANCH   4  20
TORSDOF 4
