REMARK  Name = ZINC07088432
REMARK  5 active torsions:
REMARK  status: ('A' for Active; 'I' for Inactive)
REMARK    1  A    between atoms: C_1  and  C_2
REMARK    2  A    between atoms: C_2  and  C_3
REMARK    3  A    between atoms: C_3  and  C_23
REMARK    4  A    between atoms: N_6  and  C_10
REMARK    5  A    between atoms: C_10  and  C_11
REMARK                            x       y       z     vdW  Elec       q    Type
REMARK                         _______ _______ _______ _____ _____    ______ ____
ROOT
ATOM      1  C   UNL     1      -5.303   7.340   1.602  0.00  0.00    +0.138 C 
ATOM      2  C   UNL     1      -5.913   6.119   0.945  0.00  0.00    +0.251 C 
ATOM      3  O   UNL     1      -6.510   6.075  -0.109  0.00  0.00    -0.272 OA
ATOM      4  N   UNL     1      -5.654   5.090   1.777  0.00  0.00    -0.220 N 
ATOM      5  C   UNL     1      -4.977   5.489   2.859  0.00  0.00    +0.310 C 
ATOM      6  O   UNL     1      -4.633   4.743   3.754  0.00  0.00    -0.252 OA
ATOM      7  N   UNL     1      -4.716   6.809   2.844  0.00  0.00    -0.281 N 
ATOM      8  H   UNL     1      -4.237   7.313   3.521  0.00  0.00    +0.152 HD
ENDROOT
BRANCH   1   9
ATOM      9  C   UNL     1      -6.366   8.362   1.912  0.00  0.00    -0.015 A 
ATOM     10  C   UNL     1      -6.676   9.341   0.986  0.00  0.00    +0.006 A 
ATOM     11  C   UNL     1      -7.654  10.275   1.269  0.00  0.00    +0.000 A 
ATOM     12  C   UNL     1      -8.316  10.237   2.482  0.00  0.00    +0.000 A 
ATOM     13  C   UNL     1      -8.002   9.262   3.411  0.00  0.00    +0.000 A 
ATOM     14  C   UNL     1      -7.027   8.325   3.126  0.00  0.00    +0.006 A 
ENDBRANCH   1   9
BRANCH   1  16
ATOM     15  C   UNL     1      -3.127   6.907   0.452  0.00  0.00    +0.007 C 
ATOM     16  C   UNL     1      -4.220   7.948   0.708  0.00  0.00    +0.037 C 
ENDBRANCH   1  16
BRANCH   4  17
ATOM     17  C   UNL     1      -6.070   3.707   1.529  0.00  0.00    +0.153 C 
BRANCH  17  18
ATOM     18  C   UNL     1      -4.990   2.988   0.762  0.00  0.00    -0.025 A 
ATOM     19  C   UNL     1      -3.987   2.322   1.444  0.00  0.00    +0.054 A 
ATOM     20  C   UNL     1      -2.997   1.662   0.736  0.00  0.00    +0.164 A 
ATOM     21  C   UNL     1      -3.011   1.669  -0.652  0.00  0.00    +0.180 A 
ATOM     22  C   UNL     1      -4.016   2.338  -1.331  0.00  0.00    +0.086 A 
ATOM     23  C   UNL     1      -5.005   2.996  -0.620  0.00  0.00    +0.029 A 
ATOM     24 CL   UNL     1      -4.037   2.349  -3.067  0.00  0.00    -0.080 Cl
ATOM     25  O   UNL     1      -2.031   1.014  -1.340  0.00  0.00    -0.487 OA
ATOM     26  C   UNL     1      -0.720   1.576  -1.246  0.00  0.00    +0.232 C 
ATOM     27  C   UNL     1      -0.013   1.086   0.008  0.00  0.00    +0.082 C 
ATOM     28  C   UNL     1      -0.696   1.562   1.280  0.00  0.00    +0.232 C 
ATOM     29  O   UNL     1      -2.003   1.000   1.396  0.00  0.00    -0.488 OA
ENDBRANCH  17  18
ENDBRANCH   4  17
TORSDOF 4
