REMARK  Name = ZINC13223446
REMARK  14 active torsions:
REMARK  status: ('A' for Active; 'I' for Inactive)
REMARK    1  A    between atoms: C_1  and  C_2
REMARK    2  A    between atoms: C_2  and  O_3
REMARK    3  A    between atoms: O_3  and  C_4
REMARK    4  A    between atoms: C_9  and  C_10
REMARK    5  A    between atoms: C_10  and  N_11
REMARK    6  A    between atoms: C_12  and  C_14
REMARK    7  A    between atoms: C_14  and  S_15
REMARK    8  A    between atoms: S_15  and  C_16
REMARK    9  A    between atoms: C_20  and  C_30
REMARK   10  A    between atoms: C_21  and  C_26
REMARK   11  A    between atoms: C_22  and  C_25
REMARK   12  A    between atoms: C_26  and  C_27
REMARK   13  A    between atoms: C_27  and  C_28
REMARK   14  A    between atoms: C_32  and  C_35
REMARK                            x       y       z     vdW  Elec       q    Type
REMARK                         _______ _______ _______ _____ _____    ______ ____
ROOT
ATOM      1  N   UNL     1       7.830  -3.896  -0.090  0.00  0.00    -0.310 N 
ATOM      2  C   UNL     1       6.498  -4.100  -0.079  0.00  0.00    +0.224 C 
ATOM      3  O   UNL     1       6.057  -5.230  -0.080  0.00  0.00    -0.275 OA
ATOM      4  H   UNL     1       8.182  -2.992  -0.089  0.00  0.00    +0.149 HD
ENDROOT
BRANCH   1   5
ATOM      5  C   UNL     1       8.746  -5.039  -0.104  0.00  0.00    +0.143 C 
BRANCH   5  11
ATOM      6  C   UNL     1      10.762  -4.124   1.067  0.00  0.00    +0.126 A 
ATOM      7  C   UNL     1      12.072  -3.663   1.051  0.00  0.00    +0.053 A 
ATOM      8  C   UNL     1      12.774  -3.627  -0.133  0.00  0.00    +0.001 A 
ATOM      9  C   UNL     1      12.190  -4.050  -1.320  0.00  0.00    +0.125 A 
ATOM     10  C   UNL     1      10.876  -4.512  -1.298  0.00  0.00    +0.054 A 
ATOM     11  C   UNL     1      10.169  -4.542  -0.115  0.00  0.00    +0.015 A 
ATOM     12  O   UNL     1      13.060  -3.945  -2.363  0.00  0.00    -0.488 OA
ATOM     13  C   UNL     1      14.119  -3.040  -2.006  0.00  0.00    +0.175 C 
ATOM     14  C   UNL     1      14.183  -3.177  -0.467  0.00  0.00    +0.083 C 
ATOM     15  C   UNL     1      13.766  -1.607  -2.408  0.00  0.00    +0.052 C 
BRANCH   6  16
ATOM     16  O   UNL     1      10.065  -4.163   2.233  0.00  0.00    -0.492 OA
BRANCH  16  18
ATOM     17  C   UNL     1       9.806  -3.833   4.613  0.00  0.00    +0.048 C 
ATOM     18  C   UNL     1      10.743  -3.715   3.409  0.00  0.00    +0.225 C 
ENDBRANCH  16  18
ENDBRANCH   6  16
ENDBRANCH   5  11
ENDBRANCH   1   5
BRANCH   2  19
ATOM     19  C   UNL     1       5.555  -2.924  -0.064  0.00  0.00    +0.173 C 
BRANCH  19  20
ATOM     20  S   UNL     1       3.842  -3.522  -0.051  0.00  0.00    -0.075 S 
BRANCH  20  21
ATOM     21  C   UNL     1       2.877  -2.048  -0.035  0.00  0.00    +0.211 A 
ATOM     22  N   UNL     1       3.364  -0.809  -0.034  0.00  0.00    -0.183 NA
ATOM     23  C   UNL     1       2.364   0.066  -0.020  0.00  0.00    +0.254 A 
ATOM     24  N   UNL     1       2.337   1.403  -0.014  0.00  0.00    -0.216 NA
ATOM     25  C   UNL     1       1.195   2.054   0.002  0.00  0.00    +0.047 A 
ATOM     26  C   UNL     1      -0.016   1.355   0.009  0.00  0.00    -0.005 A 
ATOM     27  C   UNL     1       0.002  -0.004   0.002  0.00  0.00    +0.048 A 
ATOM     28  N   UNL     1       1.198  -0.647  -0.013  0.00  0.00    -0.200 N 
ATOM     29  N   UNL     1       1.560  -2.001  -0.023  0.00  0.00    -0.137 NA
ATOM     30  C   UNL     1      -1.286  -0.786   0.010  0.00  0.00    +0.066 C 
ATOM     31  C   UNL     1       1.191   3.562   0.010  0.00  0.00    +0.066 C 
BRANCH  26  32
ATOM     32  C   UNL     1      -1.327   2.099   0.020  0.00  0.00    +0.050 C 
BRANCH  32  33
ATOM     33  C   UNL     1      -1.763   2.343   1.466  0.00  0.00    +0.130 C 
BRANCH  33  34
ATOM     34  C   UNL     1      -3.073   3.088   1.476  0.00  0.00    +0.356 C 
ATOM     35  O   UNL     1      -3.604   3.392   0.434  0.00  0.00    -0.246 OA
ATOM     36  O   UNL     1      -3.651   3.413   2.643  0.00  0.00    -0.246 OA
ENDBRANCH  33  34
ENDBRANCH  32  33
ENDBRANCH  26  32
ENDBRANCH  20  21
ENDBRANCH  19  20
ENDBRANCH   2  19
TORSDOF 10
