REMARK  Name = ZINC02702459
REMARK  4 active torsions:
REMARK  status: ('A' for Active; 'I' for Inactive)
REMARK    1  A    between atoms: C_9  and  O_26
REMARK    2  A    between atoms: C_10  and  C_11
REMARK    3  A    between atoms: N_12  and  N_13
REMARK    4  A    between atoms: N_16  and  C_19
REMARK                            x       y       z     vdW  Elec       q    Type
REMARK                         _______ _______ _______ _____ _____    ______ ____
ROOT
ATOM      1  C   UNL     1       4.948   0.115  -0.072  0.00  0.00    +0.142 C 
ATOM      2  N   UNL     1       6.083  -0.518  -0.059  0.00  0.00    -0.192 NA
ENDROOT
BRANCH   1  12
ATOM      3  C   UNL     1      -0.012   1.331  -0.102  0.00  0.00    +0.001 A 
ATOM      4  C   UNL     1       1.172   2.066  -0.112  0.00  0.00    +0.001 A 
ATOM      5  C   UNL     1       2.383   1.443  -0.099  0.00  0.00    +0.009 A 
ATOM      6  C   UNL     1       2.443   0.043  -0.076  0.00  0.00    -0.006 A 
ATOM      7  C   UNL     1       1.241  -0.706  -0.066  0.00  0.00    -0.017 A 
ATOM      8  C   UNL     1       0.009  -0.030  -0.080  0.00  0.00    +0.008 A 
ATOM      9  C   UNL     1       1.298  -2.111  -0.042  0.00  0.00    +0.012 A 
ATOM     10  C   UNL     1       2.501  -2.749  -0.028  0.00  0.00    +0.046 A 
ATOM     11  C   UNL     1       3.696  -2.032  -0.037  0.00  0.00    +0.126 A 
ATOM     12  C   UNL     1       3.686  -0.639  -0.062  0.00  0.00    +0.044 A 
BRANCH  11  13
ATOM     13  O   UNL     1       4.881  -2.697  -0.022  0.00  0.00    -0.506 OA
ATOM     14  H   UNL     1       5.226  -2.905  -0.901  0.00  0.00    +0.292 HD
ENDBRANCH  11  13
ENDBRANCH   1  12
BRANCH   2  15
ATOM     15  N   UNL     1       7.284   0.194  -0.173  0.00  0.00    -0.253 N 
ATOM     16  C   UNL     1       7.284   1.664  -0.178  0.00  0.00    +0.144 C 
ATOM     17  C   UNL     1       8.219   2.158   0.932  0.00  0.00    +0.125 C 
ATOM     18  N   UNL     1       9.501   1.449   0.817  0.00  0.00    -0.327 N 
ATOM     19  C   UNL     1       9.501  -0.020   0.823  0.00  0.00    +0.125 C 
ATOM     20  C   UNL     1       8.567  -0.515  -0.282  0.00  0.00    +0.144 C 
BRANCH  18  21
ATOM     21  C   UNL     1      10.699   2.160   0.704  0.00  0.00    +0.030 A 
ATOM     22  C   UNL     1      10.701   3.543   0.825  0.00  0.00    +0.024 A 
ATOM     23  C   UNL     1      11.887   4.243   0.713  0.00  0.00    +0.022 A 
ATOM     24  C   UNL     1      13.071   3.567   0.479  0.00  0.00    +0.041 A 
ATOM     25  C   UNL     1      13.072   2.189   0.358  0.00  0.00    +0.022 A 
ATOM     26  C   UNL     1      11.890   1.483   0.475  0.00  0.00    +0.024 A 
ATOM     27 CL   UNL     1      14.559   4.450   0.338  0.00  0.00    -0.084 Cl
ENDBRANCH  18  21
ENDBRANCH   2  15
TORSDOF 4
