REMARK  Name = ZINC44783018
REMARK  8 active torsions:
REMARK  status: ('A' for Active; 'I' for Inactive)
REMARK    1  A    between atoms: C_1  and  C_2
REMARK    2  A    between atoms: C_2  and  C_4
REMARK    3  A    between atoms: C_2  and  N_7
REMARK    4  A    between atoms: C_4  and  C_5
REMARK    5  A    between atoms: C_4  and  C_6
REMARK    6  A    between atoms: C_8  and  C_10
REMARK    7  A    between atoms: C_10  and  C_15
REMARK    8  A    between atoms: N_16  and  O_17
REMARK                            x       y       z     vdW  Elec       q    Type
REMARK                         _______ _______ _______ _____ _____    ______ ____
ROOT
ATOM      1  C   UNL     1       2.861  -1.144   2.325  0.00  0.00    +0.105 C 
ATOM      2  C   UNL     1       2.501  -2.624   2.567  0.00  0.00    +0.024 C 
ATOM      3  C   UNL     1       3.585  -3.411   1.790  0.00  0.00    +0.001 C 
ATOM      4  C   UNL     1       4.860  -2.566   2.032  0.00  0.00    +0.001 C 
ATOM      5  C   UNL     1       4.361  -1.107   1.985  0.00  0.00    +0.024 C 
ENDROOT
BRANCH   1   6
ATOM      6  C   UNL     1       2.593  -0.336   3.569  0.00  0.00    +0.147 C 
ATOM      7  N   UNL     1       3.545   0.348   4.111  0.00  0.00    -0.076 NA
ATOM      8  N   UNL     1       1.334  -0.329   4.127  0.00  0.00    -0.343 N 
ATOM      9  H   UNL     1       0.603  -0.783   3.681  0.00  0.00    +0.144 HD
ATOM     10  H   UNL     1       1.179   0.131   4.967  0.00  0.00    +0.144 HD
BRANCH   7  11
ATOM     11  O   UNL     1       3.293   1.107   5.280  0.00  0.00    -0.408 OA
ATOM     12  H   UNL     1       4.066   1.586   5.612  0.00  0.00    +0.328 HD
ENDBRANCH   7  11
ENDBRANCH   1   6
BRANCH   1  14
ATOM     13  N   UNL     1       2.323   0.629   0.686  0.00  0.00    -0.312 N 
ATOM     14  C   UNL     1       2.056  -0.599   1.173  0.00  0.00    +0.227 C 
ATOM     15  O   UNL     1       1.169  -1.266   0.684  0.00  0.00    -0.275 OA
ATOM     16  H   UNL     1       2.982   1.192   1.123  0.00  0.00    +0.149 HD
BRANCH  13  18
ATOM     17  C   UNL     1       2.338   0.621  -1.759  0.00  0.00    +0.028 C 
ATOM     18  C   UNL     1       1.618   1.115  -0.502  0.00  0.00    +0.072 C 
BRANCH  18  19
ATOM     19  C   UNL     1       1.598   2.645  -0.494  0.00  0.00    +0.003 C 
ATOM     20  C   UNL     1       0.862   3.152  -1.736  0.00  0.00    +0.009 C 
ATOM     21  C   UNL     1       0.879   3.139   0.763  0.00  0.00    +0.009 C 
ENDBRANCH  18  19
ENDBRANCH  13  18
ENDBRANCH   1  14
TORSDOF 5
