REMARK  Name = ZINC35361459
REMARK  9 active torsions:
REMARK  status: ('A' for Active; 'I' for Inactive)
REMARK    1  A    between atoms: C_1  and  C_2
REMARK    2  A    between atoms: C_13  and  C_15
REMARK    3  A    between atoms: C_15  and  C_17
REMARK    4  A    between atoms: C_17  and  C_18
REMARK    5  A    between atoms: C_25  and  O_26
REMARK    6  A    between atoms: O_26  and  C_27
REMARK    7  A    between atoms: N_33  and  C_34
REMARK    8  A    between atoms: C_38  and  C_45
REMARK    9  A    between atoms: C_41  and  O_44
REMARK                            x       y       z     vdW  Elec       q    Type
REMARK                         _______ _______ _______ _____ _____    ______ ____
ROOT
ATOM      1  C   UNL     1       0.330   1.491  -0.030  0.00  0.00    +0.012 C 
ATOM      2  C   UNL     1       0.150  -0.029  -0.028  0.00  0.00    -0.019 C 
ATOM      3  C   UNL     1      -1.295  -0.392   0.269  0.00  0.00    +0.008 C 
ATOM      4  C   UNL     1      -1.668   0.283   1.598  0.00  0.00    +0.005 C 
ATOM      5  C   UNL     1      -0.743  -0.149   2.732  0.00  0.00    +0.003 C 
ATOM      6  C   UNL     1       0.734   0.083   2.382  0.00  0.00    +0.000 C 
ATOM      7  C   UNL     1       1.012  -0.679   1.087  0.00  0.00    -0.001 C 
ATOM      8  C   UNL     1       2.433  -0.564   0.545  0.00  0.00    +0.005 C 
ATOM      9  C   UNL     1       2.287  -0.598  -0.997  0.00  0.00    +0.012 C 
ATOM     10  C   UNL     1       0.762  -0.644  -1.291  0.00  0.00    +0.061 C 
ATOM     11  C   UNL     1       1.590  -0.482   3.521  0.00  0.00    +0.031 C 
ATOM     12  C   UNL     1       1.174   0.157   4.814  0.00  0.00    -0.027 C 
ATOM     13  C   UNL     1      -0.019   0.632   5.019  0.00  0.00    -0.065 C 
ATOM     14  C   UNL     1      -1.100   0.602   4.003  0.00  0.00    -0.008 C 
ATOM     15  C   UNL     1      -2.367   0.008   4.625  0.00  0.00    +0.014 C 
ATOM     16  C   UNL     1      -2.705   0.765   5.911  0.00  0.00    +0.032 C 
ATOM     17  C   UNL     1      -1.577   0.583   6.928  0.00  0.00    +0.119 C 
ATOM     18  C   UNL     1      -0.325   1.250   6.372  0.00  0.00    +0.062 C 
ATOM     19  C   UNL     1      -1.407   2.054   3.630  0.00  0.00    +0.016 C 
ENDROOT
BRANCH  10  20
ATOM     20  C   UNL     1       0.428   0.185  -2.504  0.00  0.00    +0.136 C 
ATOM     21  O   UNL     1       1.190   1.045  -2.876  0.00  0.00    -0.297 OA
BRANCH  20  22
ATOM     22  C   UNL     1      -0.856  -0.059  -3.253  0.00  0.00    +0.064 C 
BRANCH  22  23
ATOM     23  C   UNL     1      -0.891   0.818  -4.506  0.00  0.00    -0.027 C 
ATOM     24  C   UNL     1       0.351   0.569  -5.321  0.00  0.00    -0.012 A 
ATOM     25  C   UNL     1       1.038   1.599  -5.930  0.00  0.00    -0.040 A 
ATOM     26  C   UNL     1       2.174   1.329  -6.675  0.00  0.00    +0.053 A 
ATOM     27  C   UNL     1       2.631   0.029  -6.814  0.00  0.00    +0.170 A 
ATOM     28  C   UNL     1       1.943  -1.012  -6.201  0.00  0.00    +0.208 A 
ATOM     29  C   UNL     1       0.805  -0.739  -5.456  0.00  0.00    +0.167 A 
ATOM     30  O   UNL     1       2.584  -2.185  -6.484  0.00  0.00    -0.449 OA
ATOM     31  C   UNL     1       3.433  -1.897  -7.610  0.00  0.00    +0.467 C 
ATOM     32  O   UNL     1       3.703  -0.489  -7.482  0.00  0.00    -0.452 OA
ATOM     33  C   UNL     1       0.582   3.030  -5.802  0.00  0.00    +0.017 C 
ATOM     34  C   UNL     1      -0.865   3.070  -5.307  0.00  0.00    -0.074 C 
ATOM     35  N   UNL     1      -0.972   2.226  -4.107  0.00  0.00    +0.383 N 
ATOM     36  C   UNL     1      -2.259   2.476  -3.445  0.00  0.00    -0.095 C 
ATOM     37  H   UNL     1      -0.217   2.442  -3.474  0.00  0.00    -0.081 HD
BRANCH  29  38
ATOM     38  O   UNL     1       0.130  -1.755  -4.854  0.00  0.00    -0.491 OA
ATOM     39  C   UNL     1      -0.909  -2.381  -5.611  0.00  0.00    +0.277 C 
ENDBRANCH  29  38
ENDBRANCH  22  23
ENDBRANCH  20  22
ENDBRANCH  10  20
BRANCH  17  40
ATOM     40  O   UNL     1      -1.935   1.218   8.156  0.00  0.00    -0.391 OA
ATOM     41  H   UNL     1      -1.265   1.143   8.848  0.00  0.00    +0.210 HD
ENDBRANCH  17  40
TORSDOF 5
