REMARK  Name = ZINC39677452
REMARK  5 active torsions:
REMARK  status: ('A' for Active; 'I' for Inactive)
REMARK    1  A    between atoms: C_6  and  C_7
REMARK    2  A    between atoms: C_7  and  C_8
REMARK    3  A    between atoms: C_12  and  C_21
REMARK    4  A    between atoms: N_23  and  C_24
REMARK    5  A    between atoms: C_24  and  C_25
REMARK                            x       y       z     vdW  Elec       q    Type
REMARK                         _______ _______ _______ _____ _____    ______ ____
ROOT
ATOM      1  C   UNL     1      -1.739  -1.063  -1.567  0.00  0.00    +0.220 C 
ATOM      2  O   UNL     1      -1.120  -0.620  -2.512  0.00  0.00    -0.275 OA
ATOM      3  N   UNL     1      -2.902  -1.713  -1.770  0.00  0.00    -0.300 N 
ATOM      4  C   UNL     1      -3.796  -2.313  -0.751  0.00  0.00    +0.121 C 
ATOM      5  C   UNL     1      -5.224  -1.994  -1.249  0.00  0.00    +0.100 C 
ATOM      6  C   UNL     1      -5.074  -1.784  -2.765  0.00  0.00    -0.004 C 
ATOM      7  C   UNL     1      -3.580  -1.983  -3.060  0.00  0.00    +0.115 C 
ATOM      8  C   UNL     1      -5.497  -0.368  -3.147  0.00  0.00    -0.010 C 
ATOM      9  C   UNL     1      -5.393  -0.202  -4.665  0.00  0.00    -0.082 C 
ATOM     10  N   UNL     1      -6.256  -1.188  -5.327  0.00  0.00    +0.379 N 
ATOM     11  C   UNL     1      -5.785  -2.546  -5.029  0.00  0.00    -0.082 C 
ATOM     12  C   UNL     1      -5.905  -2.811  -3.526  0.00  0.00    -0.010 C 
ATOM     13  H   UNL     1      -7.202  -1.081  -4.996  0.00  0.00    -0.086 HD
ATOM     14  H   UNL     1      -6.233  -1.037  -6.325  0.00  0.00    -0.086 HD
ENDROOT
BRANCH   5  15
ATOM     15  C   UNL     1      -6.149  -3.150  -0.966  0.00  0.00    +0.218 C 
ATOM     16  O   UNL     1      -5.717  -4.283  -0.955  0.00  0.00    -0.275 OA
ATOM     17  N   UNL     1      -7.455  -2.924  -0.725  0.00  0.00    -0.311 N 
ATOM     18  H   UNL     1      -7.801  -2.017  -0.733  0.00  0.00    +0.149 HD
BRANCH  17  19
ATOM     19  C   UNL     1      -8.354  -4.047  -0.450  0.00  0.00    +0.139 C 
BRANCH  19  20
ATOM     20  C   UNL     1      -9.750  -3.529  -0.216  0.00  0.00    -0.027 A 
ATOM     21  C   UNL     1     -10.154  -3.186   1.061  0.00  0.00    +0.009 A 
ATOM     22  C   UNL     1     -11.433  -2.711   1.280  0.00  0.00    +0.050 A 
ATOM     23  C   UNL     1     -12.315  -2.577   0.218  0.00  0.00    +0.162 A 
ATOM     24  C   UNL     1     -11.909  -2.919  -1.066  0.00  0.00    +0.162 A 
ATOM     25  C   UNL     1     -10.622  -3.391  -1.279  0.00  0.00    +0.054 A 
ATOM     26  O   UNL     1     -12.756  -2.788  -2.123  0.00  0.00    -0.485 OA
ATOM     27  C   UNL     1     -14.149  -2.660  -1.820  0.00  0.00    +0.270 C 
ATOM     28  C   UNL     1     -14.303  -1.636  -0.687  0.00  0.00    +0.270 C 
ATOM     29  O   UNL     1     -13.573  -2.112   0.449  0.00  0.00    -0.485 OA
ENDBRANCH  19  20
ENDBRANCH  17  19
ENDBRANCH   5  15
BRANCH   1  30
ATOM     30  C   UNL     1      -1.207  -0.887  -0.168  0.00  0.00    +0.131 C 
BRANCH  30  36
ATOM     31  C   UNL     1       0.100   1.247  -0.145  0.00  0.00    +0.005 A 
ATOM     32  C   UNL     1       1.296   1.938  -0.189  0.00  0.00    +0.020 A 
ATOM     33  C   UNL     1       2.490   1.249  -0.307  0.00  0.00    +0.041 A 
ATOM     34  C   UNL     1       2.486  -0.133  -0.380  0.00  0.00    +0.020 A 
ATOM     35  C   UNL     1       1.289  -0.823  -0.335  0.00  0.00    +0.005 A 
ATOM     36  C   UNL     1       0.097  -0.134  -0.218  0.00  0.00    -0.039 A 
ATOM     37 CL   UNL     1       3.992   2.117  -0.364  0.00  0.00    -0.084 Cl
ENDBRANCH  30  36
ENDBRANCH   1  30
TORSDOF 5
