REMARK  Name = ZINC22568027
REMARK  4 active torsions:
REMARK  status: ('A' for Active; 'I' for Inactive)
REMARK    1  A    between atoms: C_1  and  O_2
REMARK    2  A    between atoms: O_2  and  C_3
REMARK    3  A    between atoms: C_6  and  C_9
REMARK    4  A    between atoms: C_14  and  C_26
REMARK                            x       y       z     vdW  Elec       q    Type
REMARK                         _______ _______ _______ _____ _____    ______ ____
ROOT
ATOM      1  C   UNL     1       2.285   4.246  -0.363  0.00  0.00    +0.032 C 
ATOM      2  C   UNL     1       1.167   3.509   0.377  0.00  0.00    +0.060 C 
ATOM      3  C   UNL     1       1.185   2.046   0.002  0.00  0.00    +0.020 C 
ATOM      4  C   UNL     1       2.341   1.427  -0.321  0.00  0.00    +0.039 C 
ATOM      5  C   UNL     1       2.394  -0.036  -0.696  0.00  0.00    +0.158 C 
ATOM      6  N   UNL     1       1.145  -0.698  -0.327  0.00  0.00    -0.301 N 
ATOM      7  C   UNL     1       0.851  -2.027  -0.235  0.00  0.00    +0.069 A 
ATOM      8  C   UNL     1       1.602  -3.178  -0.444  0.00  0.00    +0.028 A 
ATOM      9  C   UNL     1       0.962  -4.392  -0.254  0.00  0.00    +0.002 A 
ATOM     10  C   UNL     1      -0.367  -4.470   0.127  0.00  0.00    +0.002 A 
ATOM     11  C   UNL     1      -1.135  -3.340   0.341  0.00  0.00    +0.028 A 
ATOM     12  C   UNL     1      -0.510  -2.102   0.155  0.00  0.00    +0.066 A 
ATOM     13  N   UNL     1      -0.962  -0.838   0.280  0.00  0.00    -0.327 N 
ATOM     14  C   UNL     1       0.002  -0.004   0.002  0.00  0.00    +0.179 A 
ATOM     15  N   UNL     1      -0.017   1.380   0.010  0.00  0.00    -0.290 N 
ATOM     16  C   UNL     1       3.560   2.131  -0.321  0.00  0.00    +0.164 C 
ATOM     17  O   UNL     1       4.586   1.541  -0.596  0.00  0.00    -0.292 OA
ATOM     18  C   UNL     1       3.621   3.595   0.012  0.00  0.00    +0.088 C 
ATOM     19  H   UNL     1      -0.959   1.947   0.022  0.00  0.00    +0.155 HD
ATOM     20  H   UNL     1      -2.006  -0.654   0.576  0.00  0.00    +0.169 HD
ENDROOT
BRANCH   5  21
ATOM     21  C   UNL     1       2.603  -0.159  -2.184  0.00  0.00    +0.005 A 
ATOM     22  C   UNL     1       1.789   0.302  -3.146  0.00  0.00    +0.089 A 
ATOM     23  N   UNL     1       2.306   0.005  -4.377  0.00  0.00    -0.360 N 
ATOM     24  H   UNL     1       1.768   0.309  -5.287  0.00  0.00    +0.165 HD
ATOM     25  C   UNL     1       3.496  -0.672  -4.234  0.00  0.00    +0.047 A 
ATOM     26  C   UNL     1       3.738  -0.800  -2.854  0.00  0.00    +0.005 A 
ATOM     27  C   UNL     1       4.884  -1.458  -2.405  0.00  0.00    +0.010 A 
ATOM     28  C   UNL     1       5.774  -1.965  -3.310  0.00  0.00    +0.001 A 
ATOM     29  C   UNL     1       5.543  -1.837  -4.673  0.00  0.00    +0.002 A 
ATOM     30  C   UNL     1       4.415  -1.196  -5.138  0.00  0.00    +0.026 A 
ENDBRANCH   5  21
BRANCH   1  34
ATOM     31  C   UNL     1       2.312   8.361   0.789  0.00  0.00    +0.120 A 
ATOM     32  C   UNL     1       2.137   8.013  -0.542  0.00  0.00    +0.046 A 
ATOM     33  C   UNL     1       2.129   6.682  -0.913  0.00  0.00    +0.007 A 
ATOM     34  C   UNL     1       2.295   5.697   0.043  0.00  0.00    -0.043 A 
ATOM     35  C   UNL     1       2.463   6.040   1.372  0.00  0.00    +0.007 A 
ATOM     36  C   UNL     1       2.478   7.370   1.746  0.00  0.00    +0.046 A 
BRANCH  31  38
ATOM     37  C   UNL     1       2.505   9.953   2.544  0.00  0.00    +0.277 C 
ATOM     38  O   UNL     1       2.320   9.669   1.156  0.00  0.00    -0.495 OA
ENDBRANCH  31  38
ENDBRANCH   1  34
TORSDOF 3
