REMARK  Name = ZINC57997811
REMARK  8 active torsions:
REMARK  status: ('A' for Active; 'I' for Inactive)
REMARK    1  A    between atoms: C_1  and  O_2
REMARK    2  A    between atoms: O_2  and  C_3
REMARK    3  A    between atoms: C_6  and  S_23
REMARK    4  A    between atoms: C_8  and  C_9
REMARK    5  A    between atoms: N_11  and  C_12
REMARK    6  A    between atoms: C_12  and  C_13
REMARK    7  A    between atoms: C_13  and  C_14
REMARK    8  A    between atoms: S_23  and  N_26
REMARK                            x       y       z     vdW  Elec       q    Type
REMARK                         _______ _______ _______ _____ _____    ______ ____
ROOT
ATOM      1  C   UNL     1       0.067  -2.830   0.032  0.00  0.00    +0.248 C 
ATOM      2  O   UNL     1      -0.492  -2.287  -0.900  0.00  0.00    -0.270 OA
ATOM      3  N   UNL     1       0.126  -4.175   0.093  0.00  0.00    -0.311 N 
ATOM      4  H   UNL     1       0.572  -4.608   0.837  0.00  0.00    +0.149 HD
ENDROOT
BRANCH   1  10
ATOM      5  C   UNL     1       0.625  -0.617   1.040  0.00  0.00    +0.132 A 
ATOM      6  C   UNL     1       1.202   0.138   2.050  0.00  0.00    +0.048 A 
ATOM      7  C   UNL     1       1.835  -0.488   3.105  0.00  0.00    +0.032 A 
ATOM      8  C   UNL     1       1.900  -1.871   3.164  0.00  0.00    +0.106 A 
ATOM      9  C   UNL     1       1.332  -2.636   2.169  0.00  0.00    +0.045 A 
ATOM     10  C   UNL     1       0.683  -2.016   1.098  0.00  0.00    +0.080 A 
BRANCH   8  11
ATOM     11  S   UNL     1       2.714  -2.654   4.516  0.00  0.00    +0.056 S 
ATOM     12  O   UNL     1       3.113  -3.939   4.061  0.00  0.00    -0.153 OA
ATOM     13  O   UNL     1       3.639  -1.709   5.037  0.00  0.00    -0.153 OA
BRANCH  11  14
ATOM     14  N   UNL     1       1.577  -2.902   5.694  0.00  0.00    -0.204 NA
ATOM     15  H   UNL     1       0.659  -2.622   5.549  0.00  0.00    +0.144 HD
ATOM     16  H   UNL     1       1.828  -3.326   6.529  0.00  0.00    +0.144 HD
ENDBRANCH  11  14
ENDBRANCH   8  11
BRANCH   5  18
ATOM     17  C   UNL     1      -0.017   1.425   0.010  0.00  0.00    +0.277 C 
ATOM     18  O   UNL     1       0.002  -0.004   0.002  0.00  0.00    -0.494 OA
ENDBRANCH   5  18
ENDBRANCH   1  10
BRANCH   3  19
ATOM     19  C   UNL     1      -0.485  -4.983  -0.966  0.00  0.00    +0.109 C 
BRANCH  19  20
ATOM     20  C   UNL     1      -0.279  -6.467  -0.658  0.00  0.00    +0.054 C 
BRANCH  20  21
ATOM     21  C   UNL     1      -0.908  -7.298  -1.747  0.00  0.00    -0.042 A 
ATOM     22  C   UNL     1      -2.229  -7.691  -1.639  0.00  0.00    +0.007 A 
ATOM     23  C   UNL     1      -2.810  -8.453  -2.635  0.00  0.00    +0.050 A 
ATOM     24  C   UNL     1      -2.069  -8.825  -3.745  0.00  0.00    +0.166 A 
ATOM     25  C   UNL     1      -0.738  -8.429  -3.854  0.00  0.00    +0.166 A 
ATOM     26  C   UNL     1      -0.164  -7.661  -2.854  0.00  0.00    +0.053 A 
ATOM     27  O   UNL     1      -0.232  -8.917  -5.024  0.00  0.00    -0.453 OA
ATOM     28  C   UNL     1      -1.142  -9.954  -5.434  0.00  0.00    +0.466 C 
ATOM     29  O   UNL     1      -2.397  -9.560  -4.848  0.00  0.00    -0.453 OA
ENDBRANCH  20  21
ENDBRANCH  19  20
ENDBRANCH   3  19
TORSDOF 7
