REMARK  Name = ZINC15867874
REMARK  2 active torsions:
REMARK  status: ('A' for Active; 'I' for Inactive)
REMARK    1  A    between atoms: C_1  and  C_2
REMARK    2  A    between atoms: C_6  and  N_8
REMARK                            x       y       z     vdW  Elec       q    Type
REMARK                         _______ _______ _______ _____ _____    ______ ____
ROOT
ATOM      1  N   UNL     1       0.051  -2.797   2.393  0.00  0.00    -0.187 N 
ATOM      2  C   UNL     1       0.140  -2.231   3.604  0.00  0.00    +0.322 C 
ATOM      3  O   UNL     1       0.217  -1.032   3.794  0.00  0.00    -0.251 OA
ATOM      4  N   UNL     1       0.132  -3.153   4.585  0.00  0.00    -0.279 N 
ATOM      5  C   UNL     1       0.026  -4.463   3.932  0.00  0.00    +0.103 C 
ATOM      6  N   UNL     1      -0.028  -4.158   2.492  0.00  0.00    -0.209 NA
ATOM      7  C   UNL     1       1.249  -5.317   4.253  0.00  0.00    +0.043 C 
ATOM      8  C   UNL     1       1.299  -5.594   5.758  0.00  0.00    +0.003 C 
ATOM      9  C   UNL     1       0.023  -6.324   6.183  0.00  0.00    +0.000 C 
ATOM     10  C   UNL     1      -1.194  -5.450   5.872  0.00  0.00    +0.003 C 
ATOM     11  C   UNL     1      -1.252  -5.173   4.368  0.00  0.00    +0.043 C 
ATOM     12  H   UNL     1       0.186  -2.985   5.539  0.00  0.00    +0.152 HD
ATOM     13  H   UNL     1       0.734  -4.602   2.002  0.00  0.00    +0.147 HD
ENDROOT
BRANCH   1  19
ATOM     14  C   UNL     1      -1.957  -2.005  -2.024  0.00  0.00    +0.044 C 
ATOM     15  C   UNL     1      -0.926  -1.684  -0.973  0.00  0.00    -0.049 A 
ATOM     16  C   UNL     1       0.006  -0.688  -1.200  0.00  0.00    +0.003 A 
ATOM     17  C   UNL     1       0.953  -0.391  -0.237  0.00  0.00    +0.002 A 
ATOM     18  C   UNL     1       0.971  -1.089   0.955  0.00  0.00    +0.025 A 
ATOM     19  C   UNL     1       0.036  -2.089   1.186  0.00  0.00    +0.055 A 
ATOM     20  C   UNL     1      -0.918  -2.381   0.219  0.00  0.00    +0.028 A 
ENDBRANCH   1  19
TORSDOF 1
