REMARK  Name = ZINC39927213
REMARK  7 active torsions:
REMARK  status: ('A' for Active; 'I' for Inactive)
REMARK    1  A    between atoms: C_1  and  C_2
REMARK    2  A    between atoms: C_5  and  C_8
REMARK    3  A    between atoms: C_8  and  C_10
REMARK    4  A    between atoms: C_12  and  N_21
REMARK    5  A    between atoms: C_22  and  C_24
REMARK    6  A    between atoms: C_27  and  C_30
REMARK    7  A    between atoms: C_35  and  O_36
REMARK                            x       y       z     vdW  Elec       q    Type
REMARK                         _______ _______ _______ _____ _____    ______ ____
ROOT
ATOM      1  C   UNL     1       0.075  -5.006   1.280  0.00  0.00    +0.268 C 
ATOM      2  C   UNL     1      -1.355  -5.138   1.855  0.00  0.00    +0.155 C 
ATOM      3  C   UNL     1      -1.797  -6.476   1.293  0.00  0.00    +0.018 A 
ATOM      4  C   UNL     1      -3.035  -7.069   1.183  0.00  0.00    +0.009 A 
ATOM      5  C   UNL     1      -3.152  -8.322   0.608  0.00  0.00    +0.001 A 
ATOM      6  C   UNL     1      -2.023  -8.974   0.147  0.00  0.00    +0.004 A 
ATOM      7  C   UNL     1      -0.782  -8.383   0.259  0.00  0.00    +0.046 A 
ATOM      8  C   UNL     1      -0.655  -7.123   0.839  0.00  0.00    +0.127 A 
ATOM      9  O   UNL     1       0.464  -6.373   1.065  0.00  0.00    -0.478 OA
ENDROOT
BRANCH   2  10
ATOM     10  N   UNL     1      -1.329  -5.168   3.320  0.00  0.00    -0.302 N 
ATOM     11  C   UNL     1      -2.413  -4.779   4.021  0.00  0.00    +0.244 C 
ATOM     12  O   UNL     1      -3.409  -4.404   3.439  0.00  0.00    -0.273 OA
ATOM     13  H   UNL     1      -0.533  -5.468   3.785  0.00  0.00    +0.150 HD
BRANCH  11  14
ATOM     14  C   UNL     1      -2.386  -4.810   5.527  0.00  0.00    +0.238 C 
ATOM     15  C   UNL     1      -2.685  -6.207   6.040  0.00  0.00    +0.041 C 
ATOM     16  C   UNL     1      -3.813  -6.052   6.760  0.00  0.00    +0.095 C 
ATOM     17  N   UNL     1      -4.215  -4.754   6.738  0.00  0.00    -0.153 NA
ATOM     18  N   UNL     1      -3.484  -4.002   6.083  0.00  0.00    -0.170 NA
BRANCH  16  19
ATOM     19  C   UNL     1      -4.517  -7.144   7.476  0.00  0.00    +0.043 A 
ATOM     20  C   UNL     1      -5.684  -6.875   8.188  0.00  0.00    +0.014 A 
ATOM     21  C   UNL     1      -6.335  -7.895   8.852  0.00  0.00    +0.001 A 
ATOM     22  C   UNL     1      -5.834  -9.184   8.813  0.00  0.00    +0.004 A 
ATOM     23  C   UNL     1      -4.678  -9.462   8.109  0.00  0.00    +0.046 A 
ATOM     24  C   UNL     1      -4.016  -8.449   7.433  0.00  0.00    +0.126 A 
BRANCH  24  25
ATOM     25  O   UNL     1      -2.883  -8.721   6.736  0.00  0.00    -0.506 OA
ATOM     26  H   UNL     1      -2.072  -8.638   7.257  0.00  0.00    +0.292 HD
ENDBRANCH  24  25
ENDBRANCH  16  19
ENDBRANCH  11  14
ENDBRANCH   2  10
BRANCH   1  27
ATOM     27  C   UNL     1       0.058  -4.245  -0.021  0.00  0.00    +0.205 C 
ATOM     28  O   UNL     1       0.060  -4.846  -1.075  0.00  0.00    -0.288 OA
BRANCH  27  33
ATOM     29  C   UNL     1      -0.018   1.503   0.010  0.00  0.00    +0.044 C 
ATOM     30  C   UNL     1       0.002  -0.004   0.002  0.00  0.00    -0.050 A 
ATOM     31  C   UNL     1       0.006  -0.686  -1.202  0.00  0.00    +0.004 A 
ATOM     32  C   UNL     1       0.024  -2.064  -1.218  0.00  0.00    +0.012 A 
ATOM     33  C   UNL     1       0.039  -2.774  -0.013  0.00  0.00    +0.021 A 
ATOM     34  C   UNL     1       0.036  -2.078   1.200  0.00  0.00    +0.012 A 
ATOM     35  C   UNL     1       0.023  -0.699   1.199  0.00  0.00    +0.004 A 
ENDBRANCH  27  33
ENDBRANCH   1  27
TORSDOF 6
