REMARK  Name = ZINC01431419
REMARK  8 active torsions:
REMARK  status: ('A' for Active; 'I' for Inactive)
REMARK    1  A    between atoms: C_1  and  C_2
REMARK    2  A    between atoms: C_2  and  C_3
REMARK    3  A    between atoms: C_2  and  C_4
REMARK    4  A    between atoms: C_2  and  C_5
REMARK    5  A    between atoms: C_8  and  S_11
REMARK    6  A    between atoms: S_11  and  N_14
REMARK    7  A    between atoms: C_17  and  C_20
REMARK    8  A    between atoms: C_17  and  N_61
REMARK                            x       y       z     vdW  Elec       q    Type
REMARK                         _______ _______ _______ _____ _____    ______ ____
ROOT
ATOM      1  N   UNL     1      -0.594  -3.011  -1.366  0.00  0.00    -0.177 NA
ATOM      2  C   UNL     1      -0.935  -1.800  -2.126  0.00  0.00    +0.108 C 
ATOM      3  C   UNL     1      -1.926  -0.967  -1.307  0.00  0.00    +0.014 C 
ATOM      4  C   UNL     1      -1.335  -0.695   0.078  0.00  0.00    +0.015 C 
ATOM      5  C   UNL     1      -1.103  -2.021   0.805  0.00  0.00    +0.014 C 
ATOM      6  C   UNL     1      -0.102  -2.866   0.011  0.00  0.00    +0.108 C 
ENDROOT
BRANCH   4  12
ATOM      7  C   UNL     1      -2.623   1.355   0.123  0.00  0.00    -0.077 C 
ATOM      8  C   UNL     1      -3.704   2.117   0.894  0.00  0.00    -0.019 C 
ATOM      9  C   UNL     1      -3.178   2.468   2.288  0.00  0.00    -0.004 C 
ATOM     10  C   UNL     1      -2.772   1.181   3.011  0.00  0.00    -0.019 C 
ATOM     11  C   UNL     1      -1.718   0.446   2.179  0.00  0.00    -0.077 C 
ATOM     12  N   UNL     1      -2.294   0.115   0.859  0.00  0.00    +0.389 N 
ATOM     13  H   UNL     1      -3.154  -0.428   0.997  0.00  0.00    -0.080 HD
ENDBRANCH   4  12
BRANCH   4  14
ATOM     14  C   UNL     1      -0.024   0.034  -0.069  0.00  0.00    +0.200 C 
ATOM     15  O   UNL     1       0.945  -0.329   0.563  0.00  0.00    -0.278 OA
ATOM     16  N   UNL     1       0.071   1.087  -0.904  0.00  0.00    -0.330 N 
ATOM     17  H   UNL     1       0.893   1.601  -0.945  0.00  0.00    +0.145 HD
ATOM     18  H   UNL     1      -0.680   1.329  -1.468  0.00  0.00    +0.145 HD
ENDBRANCH   4  14
BRANCH   1  19
ATOM     19  S   UNL     1      -0.762  -4.510  -2.049  0.00  0.00    +0.061 S 
ATOM     20  O   UNL     1      -0.910  -5.430  -0.977  0.00  0.00    -0.153 OA
ATOM     21  O   UNL     1      -1.731  -4.380  -3.081  0.00  0.00    -0.153 OA
BRANCH  19  25
ATOM     22  C   UNL     1       3.161  -5.505  -4.076  0.00  0.00    -0.042 A 
ATOM     23  C   UNL     1       2.957  -5.857  -2.755  0.00  0.00    +0.006 A 
ATOM     24  C   UNL     1       1.759  -5.554  -2.136  0.00  0.00    +0.029 A 
ATOM     25  C   UNL     1       0.765  -4.897  -2.838  0.00  0.00    +0.105 A 
ATOM     26  C   UNL     1       0.968  -4.549  -4.160  0.00  0.00    +0.029 A 
ATOM     27  C   UNL     1       2.168  -4.849  -4.778  0.00  0.00    +0.006 A 
BRANCH  22  29
ATOM     28  C   UNL     1       4.680  -7.351  -4.735  0.00  0.00    +0.015 C 
ATOM     29  C   UNL     1       4.468  -5.836  -4.751  0.00  0.00    -0.013 C 
ATOM     30  C   UNL     1       4.434  -5.341  -6.198  0.00  0.00    +0.015 C 
ATOM     31  C   UNL     1       5.615  -5.152  -4.004  0.00  0.00    +0.015 C 
ENDBRANCH  22  29
ENDBRANCH  19  25
ENDBRANCH   1  19
TORSDOF 5
