REMARK  Name = ZINC08914539
REMARK  14 active torsions:
REMARK  status: ('A' for Active; 'I' for Inactive)
REMARK    1  A    between atoms: C_1  and  C_2
REMARK    2  A    between atoms: C_5  and  C_7
REMARK    3  A    between atoms: C_10  and  C_11
REMARK    4  A    between atoms: C_10  and  O_23
REMARK    5  A    between atoms: C_14  and  S_17
REMARK    6  A    between atoms: S_17  and  N_20
REMARK    7  A    between atoms: N_20  and  C_21
REMARK    8  A    between atoms: N_20  and  C_22
REMARK    9  A    between atoms: N_28  and  C_29
REMARK   10  A    between atoms: C_29  and  C_30
REMARK   11  A    between atoms: C_30  and  C_31
REMARK   12  A    between atoms: C_31  and  N_62
REMARK   13  A    between atoms: C_32  and  N_62
REMARK   14  A    between atoms: C_33  and  N_62
REMARK                            x       y       z     vdW  Elec       q    Type
REMARK                         _______ _______ _______ _____ _____    ______ ____
ROOT
ATOM      1  C   UNL     1      -3.442   4.783   6.789  0.00  0.00    +0.180 C 
ATOM      2  C   UNL     1      -2.839   4.264   5.504  0.00  0.00    +0.074 C 
ATOM      3  C   UNL     1      -3.117   3.064   4.883  0.00  0.00    +0.133 C 
ATOM      4  C   UNL     1      -1.934   5.248   5.073  0.00  0.00    +0.249 C 
ATOM      5  O   UNL     1      -1.244   5.194   4.071  0.00  0.00    -0.282 OA
ATOM      6  C   UNL     1      -1.966   6.369   6.052  0.00  0.00    +0.288 C 
ATOM      7  O   UNL     1      -1.302   7.381   5.972  0.00  0.00    -0.266 OA
ATOM      8  N   UNL     1      -2.834   6.093   7.039  0.00  0.00    -0.281 N 
ENDROOT
BRANCH   1  13
ATOM      9  C   UNL     1      -7.948   6.637   5.486  0.00  0.00    +0.086 C 
ATOM     10  C   UNL     1      -6.894   5.733   6.071  0.00  0.00    +0.102 A 
ATOM     11  C   UNL     1      -7.122   4.589   6.740  0.00  0.00    +0.045 A 
ATOM     12  C   UNL     1      -5.859   4.069   7.105  0.00  0.00    +0.047 A 
ATOM     13  C   UNL     1      -4.934   4.926   6.637  0.00  0.00    +0.130 A 
ATOM     14  O   UNL     1      -5.567   5.936   6.016  0.00  0.00    -0.463 OA
ENDBRANCH   1  13
BRANCH   3  15
ATOM     15  C   UNL     1      -2.555   2.776   3.551  0.00  0.00    +0.017 A 
ATOM     16  C   UNL     1      -1.885   1.572   3.316  0.00  0.00    +0.013 A 
ATOM     17  C   UNL     1      -1.362   1.310   2.068  0.00  0.00    +0.029 A 
ATOM     18  C   UNL     1      -1.500   2.236   1.048  0.00  0.00    +0.105 A 
ATOM     19  C   UNL     1      -2.157   3.433   1.274  0.00  0.00    +0.029 A 
ATOM     20  C   UNL     1      -2.690   3.707   2.516  0.00  0.00    +0.013 A 
BRANCH  18  21
ATOM     21  S   UNL     1      -0.828   1.892  -0.544  0.00  0.00    +0.060 S 
ATOM     22  O   UNL     1       0.216   0.949  -0.350  0.00  0.00    -0.153 OA
ATOM     23  O   UNL     1      -0.613   3.148  -1.174  0.00  0.00    -0.153 OA
BRANCH  21  24
ATOM     24  N   UNL     1      -2.006   1.121  -1.417  0.00  0.00    -0.183 NA
ATOM     25  C   UNL     1      -2.949   1.900  -2.222  0.00  0.00    +0.131 C 
ATOM     26  C   UNL     1      -2.104  -0.341  -1.382  0.00  0.00    +0.131 C 
ENDBRANCH  21  24
ENDBRANCH  18  21
ENDBRANCH   3  15
BRANCH   3  27
ATOM     27  O   UNL     1      -3.903   2.153   5.495  0.00  0.00    -0.506 OA
ATOM     28  H   UNL     1      -3.999   1.349   4.910  0.00  0.00    +0.292 HD
ENDBRANCH   3  27
BRANCH   8  29
ATOM     29  C   UNL     1      -3.127   6.962   8.182  0.00  0.00    +0.107 C 
BRANCH  29  30
ATOM     30  C   UNL     1      -2.173   6.631   9.332  0.00  0.00    +0.000 C 
BRANCH  30  31
ATOM     31  C   UNL     1      -2.478   7.538  10.525  0.00  0.00    -0.078 C 
BRANCH  31  34
ATOM     32  C   UNL     1      -0.177   7.560  11.277  0.00  0.00    -0.097 C 
ATOM     33  C   UNL     1      -1.973   7.899  12.865  0.00  0.00    -0.097 C 
ATOM     34  N   UNL     1      -1.564   7.193  11.633  0.00  0.00    +0.376 N 
ATOM     35  H   UNL     1      -1.608   6.180  11.799  0.00  0.00    -0.083 HD
ENDBRANCH  31  34
ENDBRANCH  30  31
ENDBRANCH  29  30
ENDBRANCH   8  29
TORSDOF 9
