REMARK  Name = ZINC13352346
REMARK  9 active torsions:
REMARK  status: ('A' for Active; 'I' for Inactive)
REMARK    1  A    between atoms: C_3  and  O_24
REMARK    2  A    between atoms: C_6  and  C_7
REMARK    3  A    between atoms: N_8  and  N_9
REMARK    4  A    between atoms: N_9  and  C_10
REMARK    5  A    between atoms: C_10  and  N_12
REMARK    6  A    between atoms: N_12  and  C_13
REMARK    7  A    between atoms: C_15  and  C_20
REMARK    8  A    between atoms: O_24  and  C_25
REMARK    9  A    between atoms: C_25  and  C_26
REMARK                            x       y       z     vdW  Elec       q    Type
REMARK                         _______ _______ _______ _____ _____    ______ ____
ROOT
ATOM      1  N   UNL     1      -1.184   2.422   0.252  0.00  0.00    -0.218 N 
ATOM      2  H   UNL     1      -2.015   1.954   0.432  0.00  0.00    +0.176 HD
ENDROOT
BRANCH   1   4
ATOM      3  C   UNL     1      -2.323   4.445  -0.022  0.00  0.00    +0.138 C 
ATOM      4  N   UNL     1      -1.198   3.797  -0.015  0.00  0.00    -0.188 NA
BRANCH   3  10
ATOM      5  C   UNL     1      -1.142   6.569  -0.557  0.00  0.00    +0.013 A 
ATOM      6  C   UNL     1      -1.161   7.921  -0.824  0.00  0.00    +0.046 A 
ATOM      7  C   UNL     1      -2.365   8.613  -0.831  0.00  0.00    +0.121 A 
ATOM      8  C   UNL     1      -3.556   7.945  -0.574  0.00  0.00    +0.046 A 
ATOM      9  C   UNL     1      -3.547   6.593  -0.311  0.00  0.00    +0.013 A 
ATOM     10  C   UNL     1      -2.338   5.893  -0.303  0.00  0.00    -0.005 A 
BRANCH   7  11
ATOM     11  O   UNL     1      -2.379   9.947  -1.089  0.00  0.00    -0.481 OA
BRANCH  11  12
ATOM     12  C   UNL     1      -1.119  10.571  -1.345  0.00  0.00    +0.353 C 
BRANCH  12  13
ATOM     13  C   UNL     1      -1.331  12.039  -1.608  0.00  0.00    +0.393 C 
ATOM     14  O   UNL     1      -2.446  12.504  -1.580  0.00  0.00    -0.243 OA
ATOM     15  O   UNL     1      -0.280  12.831  -1.875  0.00  0.00    -0.243 OA
ENDBRANCH  12  13
ENDBRANCH  11  12
ENDBRANCH   7  11
ENDBRANCH   3  10
ENDBRANCH   1   4
BRANCH   1  16
ATOM     16  C   UNL     1      -0.017   1.749   0.260  0.00  0.00    +0.154 C 
ATOM     17  S   UNL     1       0.001   0.068   0.586  0.00  0.00    -0.017 S 
BRANCH  16  18
ATOM     18  N   UNL     1       1.137   2.397   0.004  0.00  0.00    -0.294 N 
ATOM     19  H   UNL     1       1.121   3.336  -0.242  0.00  0.00    +0.154 HD
BRANCH  18  20
ATOM     20  C   UNL     1       2.357   1.718   0.094  0.00  0.00    +0.052 A 
ATOM     21  C   UNL     1       2.506   0.474  -0.505  0.00  0.00    +0.037 A 
ATOM     22  C   UNL     1       3.713  -0.192  -0.418  0.00  0.00    +0.057 A 
ATOM     23  C   UNL     1       4.769   0.373   0.273  0.00  0.00    +0.014 A 
ATOM     24  C   UNL     1       4.622   1.609   0.876  0.00  0.00    +0.022 A 
ATOM     25  C   UNL     1       3.419   2.283   0.789  0.00  0.00    +0.062 A 
ATOM     26 CL   UNL     1       3.236   3.835   1.546  0.00  0.00    -0.082 Cl
BRANCH  22  27
ATOM     27  C   UNL     1       3.877  -1.540  -1.073  0.00  0.00    +0.417 C 
ATOM     28  F   UNL     1       5.173  -2.014  -0.844  0.00  0.00    -0.166 F 
ATOM     29  F   UNL     1       2.950  -2.437  -0.532  0.00  0.00    -0.166 F 
ATOM     30  F   UNL     1       3.661  -1.419  -2.449  0.00  0.00    -0.166 F 
ENDBRANCH  22  27
ENDBRANCH  18  20
ENDBRANCH  16  18
ENDBRANCH   1  16
TORSDOF 9
