REMARK  Name = ZINC13064768
REMARK  14 active torsions:
REMARK  status: ('A' for Active; 'I' for Inactive)
REMARK    1  A    between atoms: C_1  and  C_2
REMARK    2  A    between atoms: C_2  and  C_3
REMARK    3  A    between atoms: C_3  and  C_5
REMARK    4  A    between atoms: C_3  and  N_68
REMARK    5  A    between atoms: N_9  and  C_10
REMARK    6  A    between atoms: C_10  and  C_11
REMARK    7  A    between atoms: C_10  and  C_12
REMARK    8  A    between atoms: C_10  and  C_13
REMARK    9  A    between atoms: C_14  and  C_15
REMARK   10  A    between atoms: C_14  and  N_68
REMARK   11  A    between atoms: C_22  and  C_23
REMARK   12  A    between atoms: C_22  and  N_68
REMARK   13  A    between atoms: C_26  and  C_36
REMARK   14  A    between atoms: C_28  and  C_35
REMARK                            x       y       z     vdW  Elec       q    Type
REMARK                         _______ _______ _______ _____ _____    ______ ____
ROOT
ATOM      1  N   UNL     1       1.243  -2.886  -1.752  0.00  0.00    +0.392 N 
ATOM      2  H   UNL     1       0.455  -2.410  -2.206  0.00  0.00    -0.080 HD
ENDROOT
BRANCH   1   3
ATOM      3  C   UNL     1       2.487  -2.551  -2.475  0.00  0.00    +0.003 C 
BRANCH   3   4
ATOM      4  C   UNL     1       2.355  -1.159  -3.039  0.00  0.00    +0.139 A 
ATOM      5  N   UNL     1       1.768  -0.136  -2.467  0.00  0.00    -0.115 NA
ATOM      6  N   UNL     1       1.865   0.873  -3.263  0.00  0.00    -0.023 NA
ATOM      7  N   UNL     1       2.497   0.520  -4.327  0.00  0.00    -0.043 NA
ATOM      8  N   UNL     1       2.821  -0.725  -4.224  0.00  0.00    -0.226 N 
BRANCH   8   9
ATOM      9  C   UNL     1       3.555  -1.518  -5.214  0.00  0.00    +0.059 C 
ATOM     10  C   UNL     1       2.632  -2.592  -5.793  0.00  0.00    +0.036 C 
ATOM     11  C   UNL     1       4.041  -0.603  -6.340  0.00  0.00    +0.036 C 
ATOM     12  C   UNL     1       4.757  -2.185  -4.544  0.00  0.00    +0.036 C 
ENDBRANCH   8   9
ENDBRANCH   3   4
BRANCH   3  14
ATOM     13  C   UNL     1       3.854  -4.030  -0.997  0.00  0.00    +0.002 C 
ATOM     14  C   UNL     1       3.687  -2.605  -1.527  0.00  0.00    -0.011 C 
ENDBRANCH   3  14
ENDBRANCH   1   3
BRANCH   1  15
ATOM     15  C   UNL     1       1.336  -2.429  -0.349  0.00  0.00    -0.042 C 
BRANCH  15  16
ATOM     16  C   UNL     1       1.078  -0.945  -0.307  0.00  0.00    -0.064 A 
ATOM     17  C   UNL     1      -0.203  -0.461  -0.497  0.00  0.00    +0.004 A 
ATOM     18  C   UNL     1      -0.441   0.899  -0.459  0.00  0.00    +0.038 A 
ATOM     19  C   UNL     1       0.604   1.778  -0.230  0.00  0.00    +0.123 A 
ATOM     20  C   UNL     1       1.887   1.292  -0.039  0.00  0.00    +0.038 A 
ATOM     21  C   UNL     1       2.122  -0.069  -0.078  0.00  0.00    +0.004 A 
ATOM     22  F   UNL     1       0.373   3.109  -0.192  0.00  0.00    -0.205 F 
ENDBRANCH  15  16
ENDBRANCH   1  15
BRANCH   1  23
ATOM     23  C   UNL     1       1.012  -4.345  -1.794  0.00  0.00    -0.036 C 
BRANCH  23  24
ATOM     24  C   UNL     1       0.541  -4.721  -3.175  0.00  0.00    +0.001 A 
ATOM     25  C   UNL     1       1.428  -5.193  -4.086  0.00  0.00    +0.017 A 
ATOM     26  C   UNL     1       0.939  -5.549  -5.419  0.00  0.00    +0.002 A 
ATOM     27  C   UNL     1       1.806  -6.041  -6.400  0.00  0.00    -0.041 A 
ATOM     28  C   UNL     1       1.319  -6.365  -7.634  0.00  0.00    +0.007 A 
ATOM     29  C   UNL     1      -0.030  -6.209  -7.924  0.00  0.00    -0.048 A 
ATOM     30  C   UNL     1      -0.902  -5.726  -6.973  0.00  0.00    +0.029 A 
ATOM     31  C   UNL     1      -0.429  -5.390  -5.709  0.00  0.00    +0.050 A 
ATOM     32  N   UNL     1      -1.279  -4.905  -4.738  0.00  0.00    -0.322 N 
ATOM     33  H   UNL     1      -2.222  -4.796  -4.939  0.00  0.00    +0.169 HD
ATOM     34  C   UNL     1      -0.822  -4.586  -3.515  0.00  0.00    +0.251 A 
ATOM     35  O   UNL     1      -1.603  -4.165  -2.679  0.00  0.00    -0.268 OA
ATOM     36  C   UNL     1      -0.546  -6.573  -9.293  0.00  0.00    +0.044 C 
ATOM     37  C   UNL     1       3.273  -6.214  -6.097  0.00  0.00    +0.044 C 
ENDBRANCH  23  24
ENDBRANCH   1  23
TORSDOF 8
