REMARK  Name = ZINC04563751
REMARK  2 active torsions:
REMARK  status: ('A' for Active; 'I' for Inactive)
REMARK    1  A    between atoms: C_9  and  N_12
REMARK    2  A    between atoms: C_13  and  C_15
REMARK                            x       y       z     vdW  Elec       q    Type
REMARK                         _______ _______ _______ _____ _____    ______ ____
ROOT
ATOM      1  N   UNL     1      -0.186   0.930   2.448  0.00  0.00    -0.308 N 
ATOM      2  C   UNL     1      -0.938   0.800   3.559  0.00  0.00    +0.251 C 
ATOM      3  O   UNL     1      -2.077   1.228   3.577  0.00  0.00    -0.270 OA
ATOM      4  H   UNL     1       0.722   0.589   2.435  0.00  0.00    +0.149 HD
ENDROOT
BRANCH   2   5
ATOM      5  C   UNL     1      -0.383   0.143   4.748  0.00  0.00    +0.075 A 
ATOM      6  C   UNL     1      -0.978  -0.076   5.957  0.00  0.00    +0.036 A 
ATOM      7  C   UNL     1      -0.249  -0.734   6.954  0.00  0.00    +0.075 A 
ATOM      8  C   UNL     1       1.063  -1.101   6.601  0.00  0.00    +0.038 A 
ATOM      9  S   UNL     1       1.240  -0.560   4.976  0.00  0.00    -0.083 S 
ATOM     10  C   UNL     1       1.924  -1.787   7.557  0.00  0.00    +0.032 A 
ATOM     11  C   UNL     1       3.229  -2.159   7.225  0.00  0.00    +0.013 A 
ATOM     12  C   UNL     1       4.016  -2.804   8.153  0.00  0.00    +0.001 A 
ATOM     13  C   UNL     1       3.518  -3.087   9.415  0.00  0.00    +0.004 A 
ATOM     14  C   UNL     1       2.231  -2.727   9.758  0.00  0.00    +0.047 A 
ATOM     15  C   UNL     1       1.421  -2.075   8.838  0.00  0.00    +0.140 A 
ATOM     16  O   UNL     1       0.161  -1.719   9.167  0.00  0.00    -0.422 OA
ATOM     17  C   UNL     1      -0.669  -1.089   8.329  0.00  0.00    +0.346 A 
ATOM     18  O   UNL     1      -1.791  -0.803   8.703  0.00  0.00    -0.244 OA
ENDBRANCH   2   5
BRANCH   1  27
ATOM     19  C   UNL     1      -1.534   5.127  -2.264  0.00  0.00    +0.000 A 
ATOM     20  C   UNL     1      -1.443   5.817  -1.069  0.00  0.00    +0.000 A 
ATOM     21  C   UNL     1      -1.125   5.139   0.090  0.00  0.00    +0.004 A 
ATOM     22  C   UNL     1      -0.895   3.769   0.067  0.00  0.00    -0.042 A 
ATOM     23  C   UNL     1      -0.990   3.083  -1.123  0.00  0.00    -0.044 A 
ATOM     24  C   UNL     1      -1.309   3.767  -2.289  0.00  0.00    +0.004 A 
ATOM     25  C   UNL     1      -0.762   1.597  -1.221  0.00  0.00    +0.037 C 
ATOM     26  C   UNL     1      -0.013   1.086   0.008  0.00  0.00    +0.027 C 
ATOM     27  C   UNL     1      -0.741   1.585   1.261  0.00  0.00    +0.078 C 
ATOM     28  C   UNL     1      -0.539   3.096   1.366  0.00  0.00    +0.057 C 
ENDBRANCH   1  27
TORSDOF 2
