REMARK  Name = ZINC08897938
REMARK  7 active torsions:
REMARK  status: ('A' for Active; 'I' for Inactive)
REMARK    1  A    between atoms: C_1  and  O_2
REMARK    2  A    between atoms: O_2  and  C_3
REMARK    3  A    between atoms: C_6  and  C_8
REMARK    4  A    between atoms: C_12  and  N_13
REMARK    5  A    between atoms: C_14  and  C_16
REMARK    6  A    between atoms: N_21  and  S_22
REMARK    7  A    between atoms: S_22  and  C_25
REMARK                            x       y       z     vdW  Elec       q    Type
REMARK                         _______ _______ _______ _____ _____    ______ ____
ROOT
ATOM      1  N   UNL     1       2.493   5.735   2.495  0.00  0.00    -0.278 N 
ATOM      2  C   UNL     1       2.532   6.588   3.538  0.00  0.00    +0.236 C 
ATOM      3  O   UNL     1       2.579   7.784   3.342  0.00  0.00    -0.274 OA
ATOM      4  H   UNL     1       2.455   4.779   2.652  0.00  0.00    +0.155 HD
ENDROOT
BRANCH   1   9
ATOM      5  C   UNL     1       2.475   5.514   0.008  0.00  0.00    +0.069 A 
ATOM      6  C   UNL     1       2.492   6.274  -1.235  0.00  0.00    -0.023 A 
ATOM      7  C   UNL     1       2.555   7.613  -1.083  0.00  0.00    -0.004 A 
ATOM      8  S   UNL     1       2.576   7.873   0.670  0.00  0.00    -0.077 S 
ATOM      9  C   UNL     1       2.508   6.225   1.198  0.00  0.00    +0.084 A 
ATOM     10  C   UNL     1       2.602   8.656  -2.155  0.00  0.00    +0.043 C 
ATOM     11  C   UNL     1       1.495   8.377  -3.181  0.00  0.00    +0.005 C 
ATOM     12  C   UNL     1       2.056   7.452  -4.258  0.00  0.00    +0.001 C 
ATOM     13  C   UNL     1       3.083   6.500  -3.650  0.00  0.00    +0.005 C 
ATOM     14  C   UNL     1       2.428   5.605  -2.603  0.00  0.00    +0.037 C 
BRANCH   5  18
ATOM     15  C   UNL     1       1.173   2.075   0.002  0.00  0.00    +0.407 C 
ATOM     16  O   UNL     1       2.201   1.427  -0.011  0.00  0.00    -0.226 OA
ATOM     17  N   UNL     1       1.226   3.422   0.009  0.00  0.00    -0.217 N 
ATOM     18  C   UNL     1       2.418   4.050   0.001  0.00  0.00    +0.255 C 
ATOM     19  O   UNL     1       3.447   3.401  -0.013  0.00  0.00    -0.270 OA
ATOM     20  H   UNL     1       0.405   3.939   0.019  0.00  0.00    +0.161 HD
BRANCH  15  22
ATOM     21  C   UNL     1       0.002  -0.004   0.002  0.00  0.00    +0.282 C 
ATOM     22  O   UNL     1      -0.018   1.448   0.010  0.00  0.00    -0.453 OA
ENDBRANCH  15  22
ENDBRANCH   5  18
ENDBRANCH   1   9
BRANCH   2  23
ATOM     23  C   UNL     1       2.516   6.056   4.948  0.00  0.00    +0.166 C 
ATOM     24  C   UNL     1       3.760   5.176   5.191  0.00  0.00    +0.031 C 
ATOM     25  C   UNL     1       4.744   6.157   5.890  0.00  0.00    +0.019 C 
ATOM     26  C   UNL     1       3.775   7.014   6.742  0.00  0.00    +0.110 C 
ATOM     27  N   UNL     1       2.572   7.171   5.904  0.00  0.00    -0.165 NA
BRANCH  27  28
ATOM     28  S   UNL     1       1.468   8.400   6.020  0.00  0.00    +0.062 S 
ATOM     29  O   UNL     1       2.143   9.497   6.620  0.00  0.00    -0.153 OA
ATOM     30  O   UNL     1       0.835   8.497   4.751  0.00  0.00    -0.153 OA
BRANCH  28  31
ATOM     31  C   UNL     1       0.231   7.883   7.162  0.00  0.00    +0.106 A 
ATOM     32  C   UNL     1      -0.886   7.205   6.711  0.00  0.00    +0.031 A 
ATOM     33  C   UNL     1      -1.854   6.794   7.607  0.00  0.00    +0.040 A 
ATOM     34  C   UNL     1      -1.711   7.072   8.956  0.00  0.00    +0.124 A 
ATOM     35  C   UNL     1      -0.595   7.756   9.406  0.00  0.00    +0.040 A 
ATOM     36  C   UNL     1       0.375   8.161   8.509  0.00  0.00    +0.031 A 
ATOM     37  F   UNL     1      -2.661   6.676   9.832  0.00  0.00    -0.205 F 
ENDBRANCH  28  31
ENDBRANCH  27  28
ENDBRANCH   2  23
TORSDOF 6
