REMARK  Name = ZINC39355569
REMARK  9 active torsions:
REMARK  status: ('A' for Active; 'I' for Inactive)
REMARK    1  A    between atoms: C_1  and  C_2
REMARK    2  A    between atoms: C_3  and  C_4
REMARK    3  A    between atoms: C_4  and  N_5
REMARK    4  A    between atoms: C_8  and  C_12
REMARK    5  A    between atoms: C_8  and  C_20
REMARK    6  A    between atoms: C_12  and  C_13
REMARK    7  A    between atoms: C_13  and  C_14
REMARK    8  A    between atoms: N_23  and  C_26
REMARK    9  A    between atoms: C_26  and  C_27
REMARK                            x       y       z     vdW  Elec       q    Type
REMARK                         _______ _______ _______ _____ _____    ______ ____
ROOT
ATOM      1  N   UNL     1      -1.233  -3.061   0.231  0.00  0.00    -0.212 N 
ATOM      2  C   UNL     1      -1.874  -3.354   1.379  0.00  0.00    +0.248 C 
ATOM      3  O   UNL     1      -1.421  -3.308   2.503  0.00  0.00    -0.273 OA
ATOM      4  C   UNL     1      -3.279  -3.752   0.975  0.00  0.00    +0.115 C 
ATOM      5  N   UNL     1      -3.265  -3.626  -0.493  0.00  0.00    -0.285 N 
ATOM      6  C   UNL     1      -2.031  -3.213  -0.832  0.00  0.00    +0.310 C 
ATOM      7  O   UNL     1      -1.679  -3.004  -1.977  0.00  0.00    -0.252 OA
ATOM      8  H   UNL     1      -4.004  -3.803  -1.097  0.00  0.00    +0.151 HD
ENDROOT
BRANCH   4   9
ATOM      9  C   UNL     1      -3.569  -5.197   1.388  0.00  0.00    +0.018 C 
ATOM     10  C   UNL     1      -3.565  -5.303   2.915  0.00  0.00    -0.013 C 
ATOM     11  C   UNL     1      -3.777  -6.764   3.320  0.00  0.00    -0.078 C 
ATOM     12  N   UNL     1      -2.697  -7.590   2.768  0.00  0.00    +0.380 N 
ATOM     13  C   UNL     1      -2.739  -7.550   1.301  0.00  0.00    -0.078 C 
ATOM     14  C   UNL     1      -2.488  -6.120   0.819  0.00  0.00    -0.013 C 
ATOM     15  H   UNL     1      -1.807  -7.236   3.087  0.00  0.00    -0.082 HD
BRANCH  12  16
ATOM     16  C   UNL     1      -2.861  -8.977   3.223  0.00  0.00    -0.062 C 
BRANCH  16  17
ATOM     17  C   UNL     1      -1.657  -9.807   2.773  0.00  0.00    +0.082 C 
ATOM     18  C   UNL     1      -2.014 -11.271   2.940  0.00  0.00    -0.007 C 
ATOM     19  C   UNL     1      -1.211 -12.023   3.746  0.00  0.00    -0.007 A 
ATOM     20  C   UNL     1      -1.483 -13.444   3.962  0.00  0.00    +0.009 A 
ATOM     21  C   UNL     1      -0.657 -14.153   4.774  0.00  0.00    +0.001 A 
ATOM     22  C   UNL     1       0.437 -13.553   5.399  0.00  0.00    +0.002 A 
ATOM     23  C   UNL     1       0.743 -12.239   5.239  0.00  0.00    +0.024 A 
ATOM     24  C   UNL     1      -0.049 -11.416   4.418  0.00  0.00    +0.040 A 
ATOM     25  N   UNL     1       0.262 -10.129   4.268  0.00  0.00    -0.285 N 
ATOM     26  C   UNL     1      -0.441  -9.300   3.515  0.00  0.00    +0.222 C 
ATOM     27  O   UNL     1      -0.109  -8.134   3.418  0.00  0.00    -0.275 OA
ATOM     28  H   UNL     1       1.038  -9.783   4.735  0.00  0.00    +0.155 HD
ENDBRANCH  16  17
ENDBRANCH  12  16
ENDBRANCH   4   9
BRANCH   1  29
ATOM     29  C   UNL     1       0.164  -2.625   0.156  0.00  0.00    +0.206 C 
BRANCH  29  32
ATOM     30  C   UNL     1       0.334   1.482   0.411  0.00  0.00    +0.106 C 
ATOM     31  C   UNL     1       0.273   0.014   0.320  0.00  0.00    -0.104 C 
ATOM     32  C   UNL     1       0.225  -1.157   0.247  0.00  0.00    -0.083 C 
ENDBRANCH  29  32
ENDBRANCH   1  29
BRANCH   4  33
ATOM     33  C   UNL     1      -4.307  -2.799   1.587  0.00  0.00    +0.040 C 
BRANCH  33  34
ATOM     34  C   UNL     1      -4.103  -1.394   1.017  0.00  0.00    +0.038 C 
BRANCH  34  35
ATOM     35  C   UNL     1      -5.115  -0.455   1.621  0.00  0.00    -0.047 A 
ATOM     36  C   UNL     1      -6.343  -0.278   1.012  0.00  0.00    +0.003 A 
ATOM     37  C   UNL     1      -7.271   0.583   1.566  0.00  0.00    +0.000 A 
ATOM     38  C   UNL     1      -6.971   1.268   2.729  0.00  0.00    +0.000 A 
ATOM     39  C   UNL     1      -5.743   1.091   3.338  0.00  0.00    +0.000 A 
ATOM     40  C   UNL     1      -4.817   0.226   2.786  0.00  0.00    +0.003 A 
ENDBRANCH  34  35
ENDBRANCH  33  34
ENDBRANCH   4  33
TORSDOF 8
