REMARK  Name = ZINC45616510
REMARK  12 active torsions:
REMARK  status: ('A' for Active; 'I' for Inactive)
REMARK    1  A    between atoms: C_1  and  C_2
REMARK    2  A    between atoms: C_2  and  O_3
REMARK    3  A    between atoms: O_3  and  C_4
REMARK    4  A    between atoms: C_4  and  C_6
REMARK    5  A    between atoms: C_7  and  C_14
REMARK    6  A    between atoms: C_8  and  C_12
REMARK    7  A    between atoms: C_9  and  N_11
REMARK    8  A    between atoms: C_14  and  O_15
REMARK    9  A    between atoms: O_15  and  C_16
REMARK   10  A    between atoms: C_16  and  C_18
REMARK   11  A    between atoms: C_21  and  C_29
REMARK   12  A    between atoms: C_23  and  C_28
REMARK                            x       y       z     vdW  Elec       q    Type
REMARK                         _______ _______ _______ _____ _____    ______ ____
ROOT
ATOM      1  C   UNL     1       1.146  -4.784  -1.959  0.00  0.00    +0.270 C 
ENDROOT
BRANCH   1   3
ATOM      2  C   UNL     1       1.428  -2.328  -2.479  0.00  0.00    +0.106 A 
ATOM      3  C   UNL     1       1.630  -3.649  -2.825  0.00  0.00    +0.030 A 
ATOM      4  C   UNL     1       2.306  -3.871  -4.014  0.00  0.00    +0.087 A 
ATOM      5  C   UNL     1       2.715  -2.754  -4.747  0.00  0.00    +0.082 A 
ATOM      6  S   UNL     1       2.183  -1.450  -3.833  0.00  0.00    -0.066 S 
BRANCH   5   7
ATOM      7  N   UNL     1       3.395  -2.729  -5.944  0.00  0.00    -0.352 N 
ATOM      8  H   UNL     1       3.645  -3.560  -6.377  0.00  0.00    +0.143 HD
ATOM      9  H   UNL     1       3.623  -1.880  -6.354  0.00  0.00    +0.143 HD
ENDBRANCH   5   7
BRANCH   2  10
ATOM     10  C   UNL     1       0.776  -1.801  -1.335  0.00  0.00    +0.346 C 
ATOM     11  O   UNL     1       0.312  -2.553  -0.499  0.00  0.00    -0.244 OA
BRANCH  10  12
ATOM     12  O   UNL     1       0.671  -0.465  -1.174  0.00  0.00    -0.461 OA
BRANCH  12  14
ATOM     13  C   UNL     1      -0.019   1.526   0.010  0.00  0.00    +0.048 C 
ATOM     14  C   UNL     1       0.002  -0.004   0.002  0.00  0.00    +0.229 C 
ENDBRANCH  12  14
ENDBRANCH  10  12
ENDBRANCH   2  10
BRANCH   4  15
ATOM     15  C   UNL     1       2.575  -5.199  -4.477  0.00  0.00    +0.102 C 
ATOM     16  N   UNL     1       2.789  -6.253  -4.844  0.00  0.00    -0.191 NA
ENDBRANCH   4  15
ENDBRANCH   1   3
BRANCH   1  17
ATOM     17  O   UNL     1      -0.180  -5.148  -2.349  0.00  0.00    -0.455 OA
BRANCH  17  18
ATOM     18  C   UNL     1      -0.763  -6.155  -1.668  0.00  0.00    +0.356 C 
ATOM     19  O   UNL     1      -0.163  -6.709  -0.768  0.00  0.00    -0.243 OA
BRANCH  18  20
ATOM     20  C   UNL     1      -2.125  -6.584  -2.015  0.00  0.00    +0.125 A 
ATOM     21  C   UNL     1      -2.818  -7.579  -1.401  0.00  0.00    +0.043 A 
ATOM     22  C   UNL     1      -4.083  -7.675  -2.030  0.00  0.00    +0.003 A 
ATOM     23  C   UNL     1      -5.197  -8.501  -1.830  0.00  0.00    -0.041 A 
ATOM     24  C   UNL     1      -6.301  -8.353  -2.617  0.00  0.00    +0.007 A 
ATOM     25  C   UNL     1      -6.334  -7.389  -3.617  0.00  0.00    -0.048 A 
ATOM     26  C   UNL     1      -5.252  -6.565  -3.833  0.00  0.00    +0.029 A 
ATOM     27  C   UNL     1      -4.113  -6.697  -3.043  0.00  0.00    +0.048 A 
ATOM     28  N   UNL     1      -2.908  -6.036  -3.013  0.00  0.00    -0.349 N 
ATOM     29  H   UNL     1      -2.649  -5.307  -3.598  0.00  0.00    +0.166 HD
ATOM     30  C   UNL     1      -7.565  -7.244  -4.473  0.00  0.00    +0.044 C 
ATOM     31  C   UNL     1      -5.175  -9.551  -0.749  0.00  0.00    +0.044 C 
ENDBRANCH  18  20
ENDBRANCH  17  18
ENDBRANCH   1  17
TORSDOF 9
