REMARK  Name = ZINC06408759
REMARK  10 active torsions:
REMARK  status: ('A' for Active; 'I' for Inactive)
REMARK    1  A    between atoms: C_1  and  C_2
REMARK    2  A    between atoms: C_9  and  C_14
REMARK    3  A    between atoms: C_14  and  C_16
REMARK    4  A    between atoms: C_14  and  N_68
REMARK    5  A    between atoms: N_20  and  C_21
REMARK    6  A    between atoms: C_21  and  C_22
REMARK    7  A    between atoms: C_28  and  C_29
REMARK    8  A    between atoms: C_28  and  N_68
REMARK    9  A    between atoms: C_35  and  C_36
REMARK   10  A    between atoms: C_35  and  N_68
REMARK                            x       y       z     vdW  Elec       q    Type
REMARK                         _______ _______ _______ _____ _____    ______ ____
ROOT
ATOM      1  C   UNL     1       2.961   2.861  -1.843  0.00  0.00    +0.040 C 
ENDROOT
BRANCH   1  10
ATOM      2  C   UNL     1      -1.545  -2.967  -0.680  0.00  0.00    +0.044 C 
ATOM      3  C   UNL     1      -1.269  -1.623  -1.303  0.00  0.00    -0.050 A 
ATOM      4  C   UNL     1      -2.239  -1.018  -2.092  0.00  0.00    +0.005 A 
ATOM      5  C   UNL     1      -2.007   0.210  -2.672  0.00  0.00    +0.026 A 
ATOM      6  C   UNL     1      -0.791   0.853  -2.466  0.00  0.00    +0.049 A 
ATOM      7  C   UNL     1       0.189   0.237  -1.665  0.00  0.00    -0.001 A 
ATOM      8  C   UNL     1      -0.067  -1.010  -1.087  0.00  0.00    +0.013 A 
ATOM      9  C   UNL     1       1.466   0.921  -1.454  0.00  0.00    +0.017 A 
ATOM     10  C   UNL     1       1.658   2.129  -2.040  0.00  0.00    +0.011 A 
ATOM     11  C   UNL     1       0.640   2.707  -2.829  0.00  0.00    +0.251 A 
ATOM     12  O   UNL     1       0.832   3.796  -3.342  0.00  0.00    -0.268 OA
ATOM     13  N   UNL     1      -0.533   2.083  -3.033  0.00  0.00    -0.322 N 
ATOM     14  H   UNL     1      -1.210   2.507  -3.584  0.00  0.00    +0.169 HD
ENDBRANCH   1  10
BRANCH   1  15
ATOM     15  C   UNL     1       3.636   3.052  -3.176  0.00  0.00    +0.143 A 
ATOM     16  N   UNL     1       3.218   3.805  -4.164  0.00  0.00    -0.115 NA
ATOM     17  N   UNL     1       4.067   3.706  -5.128  0.00  0.00    -0.023 NA
ATOM     18  N   UNL     1       5.013   2.903  -4.783  0.00  0.00    -0.044 NA
ATOM     19  N   UNL     1       4.783   2.479  -3.586  0.00  0.00    -0.228 N 
BRANCH  19  20
ATOM     20  C   UNL     1       5.614   1.548  -2.818  0.00  0.00    +0.178 C 
BRANCH  20  21
ATOM     21  C   UNL     1       5.155   0.114  -3.089  0.00  0.00    +0.140 C 
ATOM     22  C   UNL     1       5.948  -0.866  -2.197  0.00  0.00    +0.035 C 
ATOM     23  C   UNL     1       6.190  -2.063  -3.157  0.00  0.00    +0.031 C 
ATOM     24  C   UNL     1       6.348  -1.327  -4.511  0.00  0.00    +0.160 C 
ATOM     25  O   UNL     1       5.420  -0.232  -4.453  0.00  0.00    -0.375 OA
ENDBRANCH  20  21
ENDBRANCH  19  20
ENDBRANCH   1  15
BRANCH   1  26
ATOM     26  N   UNL     1       2.681   4.185  -1.250  0.00  0.00    +0.395 N 
ATOM     27  H   UNL     1       2.012   4.684  -1.849  0.00  0.00    -0.079 HD
BRANCH  26  28
ATOM     28  C   UNL     1       3.928   4.974  -1.163  0.00  0.00    -0.041 C 
BRANCH  28  29
ATOM     29  C   UNL     1       4.125   5.706  -2.465  0.00  0.00    -0.064 A 
ATOM     30  C   UNL     1       5.122   5.309  -3.337  0.00  0.00    +0.002 A 
ATOM     31  C   UNL     1       5.299   5.977  -4.534  0.00  0.00    +0.000 A 
ATOM     32  C   UNL     1       4.487   7.049  -4.854  0.00  0.00    +0.000 A 
ATOM     33  C   UNL     1       3.494   7.449  -3.980  0.00  0.00    +0.000 A 
ATOM     34  C   UNL     1       3.313   6.778  -2.785  0.00  0.00    +0.002 A 
ENDBRANCH  28  29
ENDBRANCH  26  28
BRANCH  26  35
ATOM     35  C   UNL     1       2.091   4.022   0.096  0.00  0.00    -0.034 C 
BRANCH  35  36
ATOM     36  C   UNL     1       0.590   4.066  -0.031  0.00  0.00    -0.027 A 
ATOM     37  C   UNL     1      -0.286   3.039  -0.156  0.00  0.00    +0.009 A 
ATOM     38  C   UNL     1      -1.636   3.319  -0.258  0.00  0.00    +0.008 A 
ATOM     39  C   UNL     1      -2.043   4.611  -0.232  0.00  0.00    +0.045 A 
ATOM     40  S   UNL     1      -0.495   5.483  -0.056  0.00  0.00    -0.103 S 
ENDBRANCH  35  36
ENDBRANCH  26  35
ENDBRANCH   1  26
TORSDOF 9
