REMARK  Name = ZINC60248709
REMARK  8 active torsions:
REMARK  status: ('A' for Active; 'I' for Inactive)
REMARK    1  A    between atoms: C_1  and  C_2
REMARK    2  A    between atoms: C_5  and  C_11
REMARK    3  A    between atoms: C_6  and  C_10
REMARK    4  A    between atoms: C_7  and  O_8
REMARK    5  A    between atoms: O_8  and  C_9
REMARK    6  A    between atoms: C_11  and  N_12
REMARK    7  A    between atoms: C_13  and  C_15
REMARK    8  A    between atoms: C_15  and  C_21
REMARK                            x       y       z     vdW  Elec       q    Type
REMARK                         _______ _______ _______ _____ _____    ______ ____
ROOT
ATOM      1  N   UNL     1       0.865  -6.331  -1.272  0.00  0.00    -0.309 N 
ATOM      2  C   UNL     1       1.712  -6.017  -0.272  0.00  0.00    +0.224 C 
ATOM      3  O   UNL     1       1.355  -5.267   0.613  0.00  0.00    -0.275 OA
ATOM      4  H   UNL     1       1.173  -6.871  -2.016  0.00  0.00    +0.149 HD
ENDROOT
BRANCH   2   5
ATOM      5  C   UNL     1       3.103  -6.596  -0.253  0.00  0.00    +0.072 C 
ATOM      6  C   UNL     1       3.791  -6.227   1.063  0.00  0.00    +0.021 C 
ATOM      7  C   UNL     1       2.987  -6.794   2.235  0.00  0.00    +0.001 C 
ATOM      8  C   UNL     1       2.907  -8.317   2.110  0.00  0.00    +0.000 C 
ATOM      9  C   UNL     1       2.220  -8.685   0.794  0.00  0.00    +0.001 C 
ATOM     10  C   UNL     1       3.024  -8.118  -0.378  0.00  0.00    +0.021 C 
BRANCH   5  11
ATOM     11  C   UNL     1       3.896  -6.037  -1.407  0.00  0.00    -0.029 A 
ATOM     12  C   UNL     1       4.325  -6.876  -2.419  0.00  0.00    +0.008 A 
ATOM     13  C   UNL     1       5.051  -6.369  -3.480  0.00  0.00    +0.050 A 
ATOM     14  C   UNL     1       5.352  -5.017  -3.531  0.00  0.00    +0.166 A 
ATOM     15  C   UNL     1       4.920  -4.173  -2.511  0.00  0.00    +0.167 A 
ATOM     16  C   UNL     1       4.187  -4.687  -1.454  0.00  0.00    +0.054 A 
ATOM     17  O   UNL     1       5.338  -2.904  -2.790  0.00  0.00    -0.453 OA
ATOM     18  C   UNL     1       6.377  -3.049  -3.777  0.00  0.00    +0.466 C 
ATOM     19  O   UNL     1       6.041  -4.278  -4.448  0.00  0.00    -0.453 OA
ENDBRANCH   5  11
ENDBRANCH   2   5
BRANCH   1  20
ATOM     20  C   UNL     1      -0.521  -5.858  -1.234  0.00  0.00    +0.160 C 
BRANCH  20  25
ATOM     21  C   UNL     1      -3.333  -7.801  -5.842  0.00  0.00    +0.049 C 
ATOM     22  C   UNL     1      -2.584  -7.258  -4.652  0.00  0.00    +0.010 A 
ATOM     23  C   UNL     1      -2.530  -7.974  -3.473  0.00  0.00    +0.118 A 
ATOM     24  N   UNL     1      -1.877  -7.505  -2.427  0.00  0.00    -0.258 NA
ATOM     25  C   UNL     1      -1.251  -6.344  -2.459  0.00  0.00    +0.065 A 
ATOM     26  C   UNL     1      -1.258  -5.569  -3.600  0.00  0.00    +0.014 A 
ATOM     27  C   UNL     1      -1.933  -6.030  -4.728  0.00  0.00    +0.129 A 
ATOM     28  C   UNL     1      -0.541  -4.243  -3.627  0.00  0.00    +0.049 C 
BRANCH  27  29
ATOM     29  O   UNL     1      -1.958  -5.298  -5.871  0.00  0.00    -0.494 OA
ATOM     30  C   UNL     1      -3.028  -4.363  -6.019  0.00  0.00    +0.277 C 
ENDBRANCH  27  29
ENDBRANCH  20  25
ENDBRANCH   1  20
TORSDOF 5
