REMARK  Name = ZINC00970742
REMARK  5 active torsions:
REMARK  status: ('A' for Active; 'I' for Inactive)
REMARK    1  A    between atoms: C_1  and  N_2
REMARK    2  A    between atoms: C_13  and  C_16
REMARK    3  A    between atoms: C_19  and  O_22
REMARK    4  A    between atoms: O_22  and  C_23
REMARK    5  A    between atoms: C_23  and  C_25
REMARK                            x       y       z     vdW  Elec       q    Type
REMARK                         _______ _______ _______ _____ _____    ______ ____
ROOT
ATOM      1  C   UNL     1      -0.435   1.391  -0.448  0.00  0.00    -0.096 C 
ATOM      2  N   UNL     1      -0.338  -0.073  -0.368  0.00  0.00    +0.381 N 
ATOM      3  C   UNL     1      -1.688  -0.649  -0.302  0.00  0.00    -0.074 C 
ATOM      4  C   UNL     1      -1.628  -2.162  -0.532  0.00  0.00    +0.018 C 
ATOM      5  C   UNL     1      -0.597  -2.742   0.427  0.00  0.00    -0.027 A 
ATOM      6  C   UNL     1       0.306  -1.930   1.023  0.00  0.00    -0.021 A 
ATOM      7  S   UNL     1       1.283  -3.005   2.034  0.00  0.00    -0.080 S 
ATOM      8  C   UNL     1       0.547  -4.452   1.689  0.00  0.00    +0.080 A 
ATOM      9  C   UNL     1      -0.481  -4.143   0.786  0.00  0.00    +0.068 A 
ATOM     10  C   UNL     1      -1.331  -5.256   0.305  0.00  0.00    +0.248 C 
ATOM     11  O   UNL     1      -2.347  -5.049  -0.333  0.00  0.00    -0.270 OA
ATOM     12  N   UNL     1      -0.934  -6.511   0.604  0.00  0.00    -0.289 N 
ATOM     13  C   UNL     1       0.349  -6.823   1.226  0.00  0.00    +0.190 C 
ATOM     14  N   UNL     1       0.793  -5.735   2.115  0.00  0.00    -0.316 N 
ATOM     15  C   UNL     1       0.421  -0.450   0.838  0.00  0.00    -0.036 C 
ATOM     16  H   UNL     1      -1.533  -7.245   0.396  0.00  0.00    +0.151 HD
ATOM     17  H   UNL     1       1.236  -5.915   2.958  0.00  0.00    +0.149 HD
ATOM     18  H   UNL     1       0.136  -0.423  -1.187  0.00  0.00    -0.082 HD
ENDROOT
BRANCH  13  19
ATOM     19  C   UNL     1       1.381  -7.030   0.147  0.00  0.00    -0.009 A 
ATOM     20  C   UNL     1       2.708  -6.731   0.397  0.00  0.00    +0.010 A 
ATOM     21  C   UNL     1       3.657  -6.920  -0.590  0.00  0.00    +0.047 A 
ATOM     22  C   UNL     1       3.277  -7.410  -1.831  0.00  0.00    +0.132 A 
ATOM     23  C   UNL     1       1.945  -7.709  -2.078  0.00  0.00    +0.047 A 
ATOM     24  C   UNL     1       1.001  -7.523  -1.087  0.00  0.00    +0.010 A 
BRANCH  22  25
ATOM     25  O   UNL     1       4.208  -7.596  -2.804  0.00  0.00    -0.422 OA
BRANCH  25  26
ATOM     26  C   UNL     1       5.109  -8.584  -2.636  0.00  0.00    +0.344 C 
ATOM     27  O   UNL     1       5.010  -9.342  -1.692  0.00  0.00    -0.245 OA
BRANCH  26  28
ATOM     28  C   UNL     1       6.216  -8.745  -3.600  0.00  0.00    +0.059 A 
ATOM     29  C   UNL     1       6.336  -7.870  -4.682  0.00  0.00    +0.016 A 
ATOM     30  C   UNL     1       7.372  -8.025  -5.579  0.00  0.00    +0.021 A 
ATOM     31  C   UNL     1       8.293  -9.046  -5.407  0.00  0.00    +0.041 A 
ATOM     32  C   UNL     1       8.180  -9.916  -4.335  0.00  0.00    +0.021 A 
ATOM     33  C   UNL     1       7.151  -9.768  -3.429  0.00  0.00    +0.016 A 
ATOM     34 CL   UNL     1       9.595  -9.235  -6.540  0.00  0.00    -0.084 Cl
ENDBRANCH  26  28
ENDBRANCH  25  26
ENDBRANCH  22  25
ENDBRANCH  13  19
TORSDOF 4
