REMARK  Name = ZINC10079743
REMARK  9 active torsions:
REMARK  status: ('A' for Active; 'I' for Inactive)
REMARK    1  A    between atoms: C_1  and  C_2
REMARK    2  A    between atoms: C_4  and  C_34
REMARK    3  A    between atoms: C_5  and  N_9
REMARK    4  A    between atoms: C_6  and  C_8
REMARK    5  A    between atoms: C_10  and  C_12
REMARK    6  A    between atoms: C_12  and  C_14
REMARK    7  A    between atoms: C_12  and  S_15
REMARK    8  A    between atoms: S_15  and  C_16
REMARK    9  A    between atoms: N_26  and  C_27
REMARK                            x       y       z     vdW  Elec       q    Type
REMARK                         _______ _______ _______ _____ _____    ______ ____
ROOT
ATOM      1  C   UNL     1       2.629   5.738  -1.247  0.00  0.00    +0.177 A 
ATOM      2  N   UNL     1       3.917   5.500  -1.287  0.00  0.00    -0.223 NA
ATOM      3  C   UNL     1       4.692   5.622  -0.191  0.00  0.00    +0.079 A 
ATOM      4  C   UNL     1       6.066   5.368  -0.234  0.00  0.00    +0.028 A 
ATOM      5  C   UNL     1       6.815   5.504   0.901  0.00  0.00    +0.002 A 
ATOM      6  C   UNL     1       6.231   5.891   2.100  0.00  0.00    +0.001 A 
ATOM      7  C   UNL     1       4.890   6.147   2.174  0.00  0.00    +0.015 A 
ATOM      8  C   UNL     1       4.102   6.017   1.032  0.00  0.00    +0.065 A 
ATOM      9  C   UNL     1       2.658   6.283   1.051  0.00  0.00    +0.267 A 
ATOM     10  O   UNL     1       2.093   6.631   2.072  0.00  0.00    -0.267 OA
ATOM     11  N   UNL     1       1.977   6.123  -0.108  0.00  0.00    -0.253 N 
ENDROOT
BRANCH  11  12
ATOM     12  C   UNL     1       0.596   6.360  -0.142  0.00  0.00    +0.087 A 
ATOM     13  C   UNL     1      -0.294   5.325   0.113  0.00  0.00    +0.029 A 
ATOM     14  C   UNL     1      -1.654   5.561   0.079  0.00  0.00    +0.002 A 
ATOM     15  C   UNL     1      -2.132   6.825  -0.214  0.00  0.00    +0.003 A 
ATOM     16  C   UNL     1      -1.250   7.861  -0.465  0.00  0.00    +0.040 A 
ATOM     17  C   UNL     1       0.113   7.631  -0.432  0.00  0.00    +0.147 A 
ATOM     18  F   UNL     1       0.975   8.641  -0.682  0.00  0.00    -0.203 F 
ENDBRANCH  11  12
BRANCH   1  19
ATOM     19  S   UNL     1       1.694   5.553  -2.728  0.00  0.00    -0.075 S 
BRANCH  19  20
ATOM     20  C   UNL     1       3.007   5.051  -3.868  0.00  0.00    +0.137 C 
ATOM     21  C   UNL     1       3.561   3.691  -3.439  0.00  0.00    +0.029 C 
BRANCH  20  23
ATOM     22  N   UNL     1       3.277   4.989  -6.326  0.00  0.00    -0.284 N 
ATOM     23  C   UNL     1       2.448   4.948  -5.264  0.00  0.00    +0.230 C 
ATOM     24  O   UNL     1       1.253   4.829  -5.432  0.00  0.00    -0.274 OA
ATOM     25  H   UNL     1       4.224   5.155  -6.196  0.00  0.00    +0.155 HD
BRANCH  22  30
ATOM     26  C   UNL     1       1.228   4.192 -11.556  0.00  0.00    +0.044 C 
ATOM     27  C   UNL     1       1.772   4.404 -10.167  0.00  0.00    -0.050 A 
ATOM     28  C   UNL     1       1.491   3.489  -9.169  0.00  0.00    +0.008 A 
ATOM     29  C   UNL     1       1.989   3.680  -7.895  0.00  0.00    -0.029 A 
ATOM     30  C   UNL     1       2.771   4.793  -7.616  0.00  0.00    +0.039 A 
ATOM     31  C   UNL     1       3.047   5.713  -8.619  0.00  0.00    -0.029 A 
ATOM     32  C   UNL     1       2.551   5.513  -9.893  0.00  0.00    +0.008 A 
ATOM     33  C   UNL     1       3.890   6.925  -8.319  0.00  0.00    +0.045 C 
ATOM     34  C   UNL     1       1.682   2.682  -6.808  0.00  0.00    +0.045 C 
ENDBRANCH  22  30
ENDBRANCH  20  23
ENDBRANCH  19  20
ENDBRANCH   1  19
TORSDOF 5
