REMARK  Name = ZINC20238743
REMARK  5 active torsions:
REMARK  status: ('A' for Active; 'I' for Inactive)
REMARK    1  A    between atoms: C_5  and  C_7
REMARK    2  A    between atoms: C_13  and  C_14
REMARK    3  A    between atoms: C_17  and  S_19
REMARK    4  A    between atoms: S_19  and  C_20
REMARK    5  A    between atoms: C_20  and  C_21
REMARK                            x       y       z     vdW  Elec       q    Type
REMARK                         _______ _______ _______ _____ _____    ______ ____
ROOT
ATOM      1  C   UNL     1       1.248  -2.039  -0.918  0.00  0.00    +0.131 C 
ATOM      2  N   UNL     1       2.231  -2.837  -0.574  0.00  0.00    -0.164 NA
ATOM      3  N   UNL     1       2.106  -4.205  -0.685  0.00  0.00    -0.152 N 
ATOM      4  C   UNL     1       3.058  -5.157  -0.261  0.00  0.00    +0.153 C 
ATOM      5  N   UNL     1       3.966  -4.909   0.649  0.00  0.00    -0.283 NA
ATOM      6  C   UNL     1       2.928  -6.467  -0.948  0.00  0.00    +0.084 C 
ATOM      7  C   UNL     1       4.037  -7.262  -1.225  0.00  0.00    +0.063 C 
ATOM      8  C   UNL     1       1.560  -6.884  -1.322  0.00  0.00    +0.273 C 
ATOM      9  O   UNL     1       1.278  -8.065  -1.456  0.00  0.00    -0.268 OA
ATOM     10  N   UNL     1       0.632  -5.923  -1.512  0.00  0.00    -0.152 NA
ATOM     11  C   UNL     1       0.933  -4.680  -1.234  0.00  0.00    +0.181 C 
ATOM     12  S   UNL     1      -0.004  -3.193  -1.462  0.00  0.00    -0.033 S 
ATOM     13  H   UNL     1       4.488  -5.636   1.024  0.00  0.00    +0.188 HD
ENDROOT
BRANCH   1  18
ATOM     14  C   UNL     1      -0.012   1.487  -1.220  0.00  0.00    +0.001 A 
ATOM     15  C   UNL     1       1.079   2.204  -0.761  0.00  0.00    +0.001 A 
ATOM     16  C   UNL     1       2.224   1.546  -0.352  0.00  0.00    +0.020 A 
ATOM     17  C   UNL     1       2.286   0.167  -0.401  0.00  0.00    +0.051 A 
ATOM     18  C   UNL     1       1.189  -0.562  -0.863  0.00  0.00    +0.027 A 
ATOM     19  C   UNL     1       0.037   0.109  -1.273  0.00  0.00    +0.012 A 
ATOM     20 CL   UNL     1       3.725  -0.658   0.112  0.00  0.00    -0.083 Cl
ENDBRANCH   1  18
BRANCH   7  21
ATOM     21  C   UNL     1       5.322  -6.718  -1.153  0.00  0.00    +0.130 A 
ATOM     22  C   UNL     1       6.516  -7.424  -1.260  0.00  0.00    +0.050 A 
ATOM     23  C   UNL     1       7.544  -6.496  -1.132  0.00  0.00    +0.057 A 
ATOM     24  C   UNL     1       6.956  -5.260  -0.952  0.00  0.00    +0.162 A 
ATOM     25  O   UNL     1       5.623  -5.411  -0.972  0.00  0.00    -0.449 OA
BRANCH  24  26
ATOM     26  S   UNL     1       7.814  -3.736  -0.737  0.00  0.00    -0.080 S 
BRANCH  26  27
ATOM     27  C   UNL     1       6.491  -2.509  -0.555  0.00  0.00    +0.151 C 
BRANCH  27  28
ATOM     28  C   UNL     1       7.096  -1.143  -0.361  0.00  0.00    +0.115 A 
ATOM     29  C   UNL     1       7.402  -0.272  -1.340  0.00  0.00    +0.045 A 
ATOM     30  C   UNL     1       7.943   0.874  -0.715  0.00  0.00    +0.041 A 
ATOM     31  C   UNL     1       7.936   0.636   0.609  0.00  0.00    +0.195 A 
ATOM     32  O   UNL     1       7.417  -0.585   0.818  0.00  0.00    -0.467 OA
ENDBRANCH  27  28
ENDBRANCH  26  27
ENDBRANCH  24  26
ENDBRANCH   7  21
TORSDOF 5
