REMARK  Name = ZINC22837563
REMARK  12 active torsions:
REMARK  status: ('A' for Active; 'I' for Inactive)
REMARK    1  A    between atoms: C_1  and  C_2
REMARK    2  A    between atoms: C_2  and  C_3
REMARK    3  A    between atoms: C_3  and  C_4
REMARK    4  A    between atoms: C_4  and  N_5
REMARK    5  A    between atoms: C_6  and  N_35
REMARK    6  A    between atoms: C_7  and  N_14
REMARK    7  A    between atoms: N_14  and  C_15
REMARK    8  A    between atoms: C_15  and  C_16
REMARK    9  A    between atoms: C_17  and  C_19
REMARK   10  A    between atoms: C_19  and  N_20
REMARK   11  A    between atoms: N_24  and  C_27
REMARK   12  A    between atoms: C_27  and  C_28
REMARK                            x       y       z     vdW  Elec       q    Type
REMARK                         _______ _______ _______ _____ _____    ______ ____
ROOT
ATOM      1  N   UNL     1       0.161  -2.901  -2.315  0.00  0.00    -0.263 N 
ATOM      2  C   UNL     1       0.075  -2.293  -3.517  0.00  0.00    +0.234 C 
ATOM      3  O   UNL     1      -0.183  -1.109  -3.580  0.00  0.00    -0.274 OA
ENDROOT
BRANCH   1   6
ATOM      4  N   UNL     1       0.995  -1.264   0.867  0.00  0.00    -0.280 N 
ATOM      5  C   UNL     1       1.133  -2.007  -0.283  0.00  0.00    +0.127 A 
ATOM      6  C   UNL     1       0.053  -2.142  -1.131  0.00  0.00    +0.140 A 
ATOM      7  C   UNL     1      -1.157  -1.505  -0.797  0.00  0.00    +0.277 A 
ATOM      8  O   UNL     1      -2.126  -1.605  -1.531  0.00  0.00    -0.266 OA
ATOM      9  N   UNL     1      -1.238  -0.785   0.339  0.00  0.00    -0.273 N 
ATOM     10  H   UNL     1      -2.180  -0.284   0.607  0.00  0.00    +0.173 HD
ATOM     11  C   UNL     1      -0.176  -0.668   1.156  0.00  0.00    +0.331 A 
ATOM     12  O   UNL     1      -0.276  -0.012   2.175  0.00  0.00    -0.246 OA
BRANCH   5  13
ATOM     13  N   UNL     1       2.331  -2.611  -0.581  0.00  0.00    -0.343 N 
ATOM     14  H   UNL     1       2.434  -3.203  -1.502  0.00  0.00    +0.144 HD
ATOM     15  H   UNL     1       3.187  -2.501   0.101  0.00  0.00    +0.144 HD
ENDBRANCH   5  13
BRANCH   4  16
ATOM     16  C   UNL     1       2.132  -1.116   1.779  0.00  0.00    +0.128 C 
BRANCH  16  17
ATOM     17  C   UNL     1       2.106  -2.242   2.814  0.00  0.00    +0.021 C 
BRANCH  17  19
ATOM     18  C   UNL     1       3.268  -3.214   4.801  0.00  0.00    +0.004 C 
ATOM     19  C   UNL     1       3.294  -2.087   3.766  0.00  0.00    -0.002 C 
ENDBRANCH  17  19
ENDBRANCH  16  17
ENDBRANCH   4  16
ENDBRANCH   1   6
BRANCH   1  20
ATOM     20  C   UNL     1       0.367  -4.350  -2.240  0.00  0.00    +0.110 C 
ATOM     21  C   UNL     1      -0.987  -5.061  -2.297  0.00  0.00    +0.025 C 
ENDBRANCH   1  20
BRANCH   2  22
ATOM     22  C   UNL     1       0.299  -3.085  -4.779  0.00  0.00    +0.181 C 
BRANCH  22  23
ATOM     23  N   UNL     1       0.151  -2.201  -5.944  0.00  0.00    -0.296 NA
ATOM     24  C   UNL     1       1.164  -1.234  -5.972  0.00  0.00    +0.083 C 
ATOM     25  C   UNL     1       0.909  -0.178  -7.071  0.00  0.00    -0.003 C 
ATOM     26  C   UNL     1       1.246  -0.776  -8.412  0.00  0.00    -0.077 C 
ATOM     27  N   UNL     1       0.078  -1.392  -9.080  0.00  0.00    +0.383 N 
ATOM     28  C   UNL     1      -0.788  -2.169  -8.169  0.00  0.00    -0.063 C 
ATOM     29  C   UNL     1       0.015  -2.985  -7.188  0.00  0.00    +0.066 C 
ATOM     30  H   UNL     1      -0.540  -0.559  -9.448  0.00  0.00    -0.081 HD
BRANCH  27  31
ATOM     31  C   UNL     1       0.496  -2.206 -10.229  0.00  0.00    -0.043 C 
BRANCH  31  32
ATOM     32  C   UNL     1       1.085  -1.312 -11.290  0.00  0.00    -0.064 A 
ATOM     33  C   UNL     1       0.271  -0.773 -12.269  0.00  0.00    +0.004 A 
ATOM     34  C   UNL     1       0.809   0.051 -13.240  0.00  0.00    +0.038 A 
ATOM     35  C   UNL     1       2.166   0.328 -13.237  0.00  0.00    +0.123 A 
ATOM     36  C   UNL     1       2.981  -0.216 -12.259  0.00  0.00    +0.038 A 
ATOM     37  C   UNL     1       2.440  -1.035 -11.287  0.00  0.00    +0.004 A 
ATOM     38  F   UNL     1       2.693   1.130 -14.188  0.00  0.00    -0.205 F 
ENDBRANCH  31  32
ENDBRANCH  27  31
ENDBRANCH  22  23
ENDBRANCH   2  22
TORSDOF 10
