REMARK  Name = ZINC39029822
REMARK  6 active torsions:
REMARK  status: ('A' for Active; 'I' for Inactive)
REMARK    1  A    between atoms: C_4  and  S_24
REMARK    2  A    between atoms: C_5  and  C_7
REMARK    3  A    between atoms: N_12  and  C_13
REMARK    4  A    between atoms: N_15  and  C_16
REMARK    5  A    between atoms: S_24  and  C_25
REMARK    6  A    between atoms: C_25  and  C_26
REMARK                            x       y       z     vdW  Elec       q    Type
REMARK                         _______ _______ _______ _____ _____    ______ ____
ROOT
ATOM      1  C   UNL     1       1.234  -2.216  -0.003  0.00  0.00    +0.194 C 
ATOM      2  N   UNL     1      -0.064  -2.776  -0.447  0.00  0.00    -0.289 N 
ATOM      3  N   UNL     1      -0.090  -3.434  -1.462  0.00  0.00    -0.153 NA
ATOM      4  C   UNL     1       1.010  -3.706  -2.247  0.00  0.00    +0.203 C 
ATOM      5  N   UNL     1       1.084  -4.407  -3.363  0.00  0.00    -0.136 NA
ATOM      6  S   UNL     1       2.313  -2.857  -1.354  0.00  0.00    -0.056 S 
ATOM      7  H   UNL     1      -0.873  -2.619   0.064  0.00  0.00    +0.184 HD
ENDROOT
BRANCH   1  12
ATOM      8  C   UNL     1      -0.025   1.343   0.051  0.00  0.00    +0.000 A 
ATOM      9  C   UNL     1       1.157   2.060   0.041  0.00  0.00    +0.001 A 
ATOM     10  C   UNL     1       2.368   1.398   0.017  0.00  0.00    +0.015 A 
ATOM     11  C   UNL     1       2.398   0.008   0.003  0.00  0.00    +0.014 A 
ATOM     12  C   UNL     1       1.208  -0.709   0.013  0.00  0.00    -0.000 A 
ATOM     13  C   UNL     1       0.000  -0.039   0.037  0.00  0.00    +0.007 A 
BRANCH  11  14
ATOM     14  S   UNL     1       3.941  -0.842  -0.028  0.00  0.00    -0.120 S 
BRANCH  14  15
ATOM     15  C   UNL     1       5.175   0.488  -0.033  0.00  0.00    +0.109 C 
BRANCH  15  16
ATOM     16  C   UNL     1       6.558  -0.110  -0.059  0.00  0.00    -0.037 A 
ATOM     17  C   UNL     1       7.207  -0.402   1.127  0.00  0.00    +0.006 A 
ATOM     18  C   UNL     1       8.475  -0.950   1.103  0.00  0.00    +0.020 A 
ATOM     19  C   UNL     1       9.095  -1.208  -0.106  0.00  0.00    +0.041 A 
ATOM     20  C   UNL     1       8.445  -0.916  -1.292  0.00  0.00    +0.020 A 
ATOM     21  C   UNL     1       7.174  -0.373  -1.268  0.00  0.00    +0.006 A 
ATOM     22 CL   UNL     1      10.689  -1.896  -0.137  0.00  0.00    -0.084 Cl
ENDBRANCH  15  16
ENDBRANCH  14  15
ENDBRANCH  11  14
ENDBRANCH   1  12
BRANCH   5  23
ATOM     23  C   UNL     1       2.266  -4.556  -3.986  0.00  0.00    +0.330 C 
ATOM     24  O   UNL     1       3.268  -4.045  -3.520  0.00  0.00    -0.250 OA
ATOM     25  N   UNL     1       2.342  -5.272  -5.125  0.00  0.00    -0.265 N 
ATOM     26  H   UNL     1       1.557  -5.734  -5.461  0.00  0.00    +0.157 HD
BRANCH  25  27
ATOM     27  C   UNL     1       3.552  -5.350  -5.823  0.00  0.00    +0.070 A 
ATOM     28  C   UNL     1       4.755  -5.369  -5.131  0.00  0.00    +0.026 A 
ATOM     29  C   UNL     1       5.948  -5.446  -5.822  0.00  0.00    +0.002 A 
ATOM     30  C   UNL     1       5.947  -5.503  -7.204  0.00  0.00    +0.003 A 
ATOM     31  C   UNL     1       4.752  -5.484  -7.899  0.00  0.00    +0.040 A 
ATOM     32  C   UNL     1       3.553  -5.415  -7.213  0.00  0.00    +0.145 A 
ATOM     33  F   UNL     1       2.385  -5.402  -7.891  0.00  0.00    -0.204 F 
ENDBRANCH  25  27
ENDBRANCH   5  23
TORSDOF 6
