REMARK  Name = ZINC43232371
REMARK  6 active torsions:
REMARK  status: ('A' for Active; 'I' for Inactive)
REMARK    1  A    between atoms: C_1  and  C_2
REMARK    2  A    between atoms: C_2  and  N_3
REMARK    3  A    between atoms: C_4  and  C_6
REMARK    4  A    between atoms: C_6  and  C_8
REMARK    5  A    between atoms: C_6  and  N_9
REMARK    6  A    between atoms: N_12  and  C_13
REMARK                            x       y       z     vdW  Elec       q    Type
REMARK                         _______ _______ _______ _____ _____    ______ ____
ROOT
ATOM      1  N   UNL     1       1.535  -3.750  -2.674  0.00  0.00    -0.288 N 
ATOM      2  C   UNL     1       1.647  -4.416  -3.840  0.00  0.00    +0.305 C 
ATOM      3  O   UNL     1       1.728  -3.800  -4.886  0.00  0.00    -0.252 OA
ATOM      4  N   UNL     1       1.670  -5.763  -3.848  0.00  0.00    -0.267 N 
ATOM      5  H   UNL     1       1.470  -4.241  -1.840  0.00  0.00    +0.151 HD
ATOM      6  H   UNL     1       1.688  -6.253  -3.010  0.00  0.00    +0.156 HD
ENDROOT
BRANCH   4   7
ATOM      7  C   UNL     1       1.668  -6.458  -5.066  0.00  0.00    +0.073 A 
ATOM      8  C   UNL     1       1.141  -5.863  -6.204  0.00  0.00    +0.029 A 
ATOM      9  C   UNL     1       1.139  -6.548  -7.404  0.00  0.00    +0.043 A 
ATOM     10  C   UNL     1       1.662  -7.828  -7.473  0.00  0.00    +0.161 A 
ATOM     11  C   UNL     1       2.189  -8.426  -6.339  0.00  0.00    +0.195 A 
ATOM     12  C   UNL     1       2.199  -7.740  -5.136  0.00  0.00    +0.182 A 
ATOM     13  F   UNL     1       2.717  -8.319  -4.031  0.00  0.00    -0.200 F 
ATOM     14  F   UNL     1       2.699  -9.675  -6.409  0.00  0.00    -0.199 F 
ATOM     15  F   UNL     1       1.658  -8.495  -8.648  0.00  0.00    -0.202 F 
ENDBRANCH   4   7
BRANCH   1  16
ATOM     16  C   UNL     1       1.510  -2.285  -2.666  0.00  0.00    +0.157 C 
ATOM     17  C   UNL     1       2.944  -1.751  -2.663  0.00  0.00    +0.038 C 
BRANCH  16  19
ATOM     18  N   UNL     1       0.646  -0.480  -1.212  0.00  0.00    -0.314 N 
ATOM     19  C   UNL     1       0.792  -1.802  -1.432  0.00  0.00    +0.233 C 
ATOM     20  O   UNL     1       0.344  -2.602  -0.638  0.00  0.00    -0.274 OA
ATOM     21  H   UNL     1       1.004   0.160  -1.847  0.00  0.00    +0.149 HD
BRANCH  18  23
ATOM     22  C   UNL     1      -0.078   1.519  -0.004  0.00  0.00    +0.024 C 
ATOM     23  C   UNL     1      -0.052  -0.010  -0.013  0.00  0.00    +0.101 C 
ENDBRANCH  18  23
ENDBRANCH  16  19
ENDBRANCH   1  16
TORSDOF 4
