REMARK  Name = ZINC01819377
REMARK  6 active torsions:
REMARK  status: ('A' for Active; 'I' for Inactive)
REMARK    1  A    between atoms: C_1  and  O_2
REMARK    2  A    between atoms: O_2  and  C_3
REMARK    3  A    between atoms: C_8  and  N_9
REMARK    4  A    between atoms: C_19  and  S_20
REMARK    5  A    between atoms: S_20  and  C_21
REMARK    6  A    between atoms: C_21  and  C_22
REMARK                            x       y       z     vdW  Elec       q    Type
REMARK                         _______ _______ _______ _____ _____    ______ ____
ROOT
ATOM      1  C   UNL     1       3.151  -3.308   2.588  0.00  0.00    +0.151 C 
ENDROOT
BRANCH   1   2
ATOM      2  C   UNL     1       4.597  -2.924   2.770  0.00  0.00    +0.121 A 
ATOM      3  N   UNL     1       5.253  -3.346   3.869  0.00  0.00    -0.310 N 
ATOM      4  H   UNL     1       4.798  -3.904   4.519  0.00  0.00    +0.170 HD
ATOM      5  C   UNL     1       6.542  -2.996   4.072  0.00  0.00    +0.256 A 
ATOM      6  O   UNL     1       7.137  -3.353   5.076  0.00  0.00    -0.267 OA
ATOM      7  C   UNL     1       7.181  -2.210   3.098  0.00  0.00    +0.049 A 
ATOM      8  C   UNL     1       6.466  -1.834   1.977  0.00  0.00    +0.082 A 
ATOM      9  N   UNL     1       5.179  -2.197   1.855  0.00  0.00    -0.233 NA
ATOM     10  C   UNL     1       7.146  -1.063   0.913  0.00  0.00    +0.004 A 
ATOM     11  C   UNL     1       6.412  -0.406  -0.071  0.00  0.00    +0.010 A 
ATOM     12  C   UNL     1       7.068   0.323  -1.042  0.00  0.00    +0.001 A 
ATOM     13  C   UNL     1       8.450   0.403  -1.034  0.00  0.00    +0.000 A 
ATOM     14  C   UNL     1       9.183  -0.255  -0.063  0.00  0.00    +0.004 A 
ATOM     15  C   UNL     1       8.539  -0.997   0.906  0.00  0.00    -0.037 A 
ATOM     16  C   UNL     1       9.335  -1.757   1.933  0.00  0.00    +0.047 C 
ATOM     17  C   UNL     1       8.609  -1.773   3.277  0.00  0.00    +0.007 C 
ATOM     18  C   UNL     1       9.320  -2.744   4.224  0.00  0.00    +0.012 C 
ATOM     19  C   UNL     1      10.772  -2.301   4.411  0.00  0.00    +0.001 C 
ATOM     20  C   UNL     1      10.803  -0.894   5.013  0.00  0.00    +0.000 C 
ATOM     21  C   UNL     1      10.088   0.078   4.072  0.00  0.00    +0.001 C 
ATOM     22  C   UNL     1       8.637  -0.367   3.885  0.00  0.00    +0.012 C 
ENDBRANCH   1   2
BRANCH   1  23
ATOM     23  S   UNL     1       2.532  -2.615   1.031  0.00  0.00    -0.079 S 
BRANCH  23  34
ATOM     24  N   UNL     1       0.095  -2.778  -0.112  0.00  0.00    -0.252 N 
ATOM     25  C   UNL     1      -1.198  -3.167  -0.204  0.00  0.00    +0.267 A 
ATOM     26  O   UNL     1      -1.885  -2.853  -1.159  0.00  0.00    -0.267 OA
ATOM     27  C   UNL     1      -1.741  -3.984   0.889  0.00  0.00    +0.065 A 
ATOM     28  C   UNL     1      -3.060  -4.436   0.887  0.00  0.00    +0.015 A 
ATOM     29  C   UNL     1      -3.515  -5.194   1.930  0.00  0.00    +0.001 A 
ATOM     30  C   UNL     1      -2.678  -5.517   2.990  0.00  0.00    +0.002 A 
ATOM     31  C   UNL     1      -1.381  -5.088   3.018  0.00  0.00    +0.028 A 
ATOM     32  C   UNL     1      -0.886  -4.312   1.966  0.00  0.00    +0.079 A 
ATOM     33  N   UNL     1       0.388  -3.869   1.953  0.00  0.00    -0.223 NA
ATOM     34  C   UNL     1       0.853  -3.145   0.965  0.00  0.00    +0.177 A 
BRANCH  24  40
ATOM     35  C   UNL     1       0.606  -0.607  -1.056  0.00  0.00    +0.144 A 
ATOM     36  C   UNL     1       1.173   0.159  -2.062  0.00  0.00    +0.048 A 
ATOM     37  C   UNL     1       1.787  -0.456  -3.137  0.00  0.00    +0.004 A 
ATOM     38  C   UNL     1       1.838  -1.836  -3.212  0.00  0.00    +0.002 A 
ATOM     39  C   UNL     1       1.275  -2.607  -2.214  0.00  0.00    +0.030 A 
ATOM     40  C   UNL     1       0.662  -1.997  -1.129  0.00  0.00    +0.093 A 
BRANCH  35  42
ATOM     41  C   UNL     1      -0.017   1.425   0.010  0.00  0.00    +0.277 C 
ATOM     42  O   UNL     1       0.002  -0.004   0.002  0.00  0.00    -0.493 OA
ENDBRANCH  35  42
ENDBRANCH  24  40
ENDBRANCH  23  34
ENDBRANCH   1  23
TORSDOF 5
