REMARK  Name = ZINC37229604
REMARK  5 active torsions:
REMARK  status: ('A' for Active; 'I' for Inactive)
REMARK    1  A    between atoms: C_1  and  O_2
REMARK    2  A    between atoms: O_2  and  C_3
REMARK    3  A    between atoms: C_6  and  C_26
REMARK    4  A    between atoms: C_8  and  C_9
REMARK    5  A    between atoms: C_9  and  N_10
REMARK                            x       y       z     vdW  Elec       q    Type
REMARK                         _______ _______ _______ _____ _____    ______ ____
ROOT
ATOM      1  C   UNL     1      -1.200  -0.637   0.010  0.00  0.00    +0.121 A 
ATOM      2  C   UNL     1      -2.375   0.101   0.019  0.00  0.00    +0.046 A 
ATOM      3  C   UNL     1      -3.596  -0.545   0.027  0.00  0.00    +0.009 A 
ATOM      4  C   UNL     1      -3.648  -1.927   0.026  0.00  0.00    -0.024 A 
ATOM      5  C   UNL     1      -2.479  -2.665   0.017  0.00  0.00    +0.011 A 
ATOM      6  C   UNL     1      -1.255  -2.023   0.003  0.00  0.00    -0.022 A 
ENDROOT
BRANCH   4   7
ATOM      7  C   UNL     1      -4.981  -2.629   0.034  0.00  0.00    +0.131 C 
ATOM      8  C   UNL     1      -5.560  -2.636  -1.361  0.00  0.00    +0.042 A 
ATOM      9  C   UNL     1      -6.859  -2.365  -1.622  0.00  0.00    -0.016 A 
ATOM     10  C   UNL     1      -7.038  -2.465  -3.053  0.00  0.00    +0.003 A 
ATOM     11  C   UNL     1      -8.146  -2.293  -3.888  0.00  0.00    +0.010 A 
ATOM     12  C   UNL     1      -7.944  -2.470  -5.234  0.00  0.00    +0.001 A 
ATOM     13  C   UNL     1      -6.705  -2.804  -5.755  0.00  0.00    +0.002 A 
ATOM     14  C   UNL     1      -5.591  -2.981  -4.953  0.00  0.00    +0.026 A 
ATOM     15  C   UNL     1      -5.766  -2.808  -3.581  0.00  0.00    +0.047 A 
ATOM     16  N   UNL     1      -4.900  -2.903  -2.530  0.00  0.00    -0.356 N 
ATOM     17  H   UNL     1      -3.958  -3.127  -2.600  0.00  0.00    +0.166 HD
ATOM     18  C   UNL     1      -7.869  -2.032  -0.553  0.00  0.00    +0.052 C 
ATOM     19  C   UNL     1      -7.278  -2.442   0.803  0.00  0.00    +0.086 C 
ATOM     20  N   UNL     1      -5.910  -1.916   0.925  0.00  0.00    -0.304 NA
ATOM     21  H   UNL     1      -5.591  -1.949   1.882  0.00  0.00    +0.123 HD
ENDBRANCH   4   7
BRANCH   1  23
ATOM     22  C   UNL     1      -0.017   1.425   0.010  0.00  0.00    +0.277 C 
ATOM     23  O   UNL     1       0.002  -0.004   0.002  0.00  0.00    -0.495 OA
ENDBRANCH   1  23
BRANCH   6  24
ATOM     24  C   UNL     1       0.018  -2.829  -0.013  0.00  0.00    -0.039 C 
BRANCH  24  25
ATOM     25  N   UNL     1       0.611  -2.780  -1.356  0.00  0.00    +0.383 N 
ATOM     26  C   UNL     1       1.912  -3.455  -1.339  0.00  0.00    -0.073 C 
ATOM     27  C   UNL     1       2.563  -3.431  -2.713  0.00  0.00    -0.007 C 
ATOM     28  C   UNL     1       1.637  -4.056  -3.762  0.00  0.00    +0.011 C 
ATOM     29  C   UNL     1       0.311  -3.288  -3.719  0.00  0.00    +0.020 C 
ATOM     30  C   UNL     1      -0.285  -3.450  -2.310  0.00  0.00    -0.069 C 
ATOM     31  C   UNL     1       0.584  -1.817  -3.944  0.00  0.00    +0.023 A 
ATOM     32  C   UNL     1      -0.399  -1.078  -4.522  0.00  0.00    +0.022 A 
ATOM     33  C   UNL     1      -0.239   0.300  -4.702  0.00  0.00    +0.007 A 
ATOM     34  C   UNL     1       0.909   0.893  -4.264  0.00  0.00    +0.070 A 
ATOM     35  C   UNL     1       1.901   0.102  -3.668  0.00  0.00    +0.251 A 
ATOM     36  O   UNL     1       2.905   0.629  -3.217  0.00  0.00    -0.268 OA
ATOM     37  N   UNL     1       1.757  -1.244  -3.588  0.00  0.00    -0.312 N 
ATOM     38  C   UNL     1       2.914  -2.017  -3.147  0.00  0.00    +0.126 C 
ATOM     39  H   UNL     1       0.738  -1.818  -1.632  0.00  0.00    -0.081 HD
ENDBRANCH  24  25
ENDBRANCH   6  24
TORSDOF 4
