REMARK  Name = ZINC20186965
REMARK  5 active torsions:
REMARK  status: ('A' for Active; 'I' for Inactive)
REMARK    1  A    between atoms: C_3  and  C_20
REMARK    2  A    between atoms: C_6  and  C_7
REMARK    3  A    between atoms: C_7  and  N_8
REMARK    4  A    between atoms: N_8  and  C_9
REMARK    5  A    between atoms: C_12  and  C_15
REMARK                            x       y       z     vdW  Elec       q    Type
REMARK                         _______ _______ _______ _____ _____    ______ ____
ROOT
ATOM      1  N   UNL     1       3.616  -0.645  -0.036  0.00  0.00    -0.340 N 
ATOM      2  H   UNL     1       3.630  -1.745  -0.043  0.00  0.00    +0.146 HD
ENDROOT
BRANCH   1   3
ATOM      3  C   UNL     1       2.400   0.037  -0.021  0.00  0.00    +0.027 A 
ATOM      4  C   UNL     1       1.205  -0.675  -0.013  0.00  0.00    +0.023 A 
ATOM      5  C   UNL     1       0.002  -0.004   0.002  0.00  0.00    +0.015 A 
ATOM      6  C   UNL     1      -0.017   1.392   0.010  0.00  0.00    +0.039 A 
ATOM      7  C   UNL     1       1.185   2.104   0.002  0.00  0.00    +0.015 A 
ATOM      8  C   UNL     1       2.384   1.427  -0.013  0.00  0.00    +0.023 A 
BRANCH   6   9
ATOM      9  C   UNL     1      -1.305   2.115   0.020  0.00  0.00    +0.248 A 
ATOM     10  N   UNL     1      -2.502   1.574   0.017  0.00  0.00    -0.108 NA
ATOM     11  N   UNL     1      -3.389   2.506   0.032  0.00  0.00    -0.116 NA
ATOM     12  C   UNL     1      -2.799   3.669   0.035  0.00  0.00    +0.332 A 
ATOM     13  O   UNL     1      -1.472   3.453   0.028  0.00  0.00    -0.423 OA
ENDBRANCH   6   9
ENDBRANCH   1   3
BRANCH   1  14
ATOM     14  C   UNL     1       4.875   0.103  -0.044  0.00  0.00    +0.136 C 
BRANCH  14  20
ATOM     15  C   UNL     1       6.577  -1.306   1.131  0.00  0.00    +0.006 A 
ATOM     16  C   UNL     1       7.634  -2.193   1.123  0.00  0.00    +0.019 A 
ATOM     17  C   UNL     1       8.160  -2.635  -0.092  0.00  0.00    +0.052 A 
ATOM     18  C   UNL     1       7.609  -2.180  -1.292  0.00  0.00    +0.019 A 
ATOM     19  C   UNL     1       6.550  -1.296  -1.269  0.00  0.00    +0.006 A 
ATOM     20  C   UNL     1       6.033  -0.862  -0.061  0.00  0.00    -0.030 A 
BRANCH  17  21
ATOM     21  C   UNL     1       9.260  -3.552  -0.108  0.00  0.00    +0.099 C 
ATOM     22  N   UNL     1      10.132  -4.280  -0.121  0.00  0.00    -0.191 NA
ENDBRANCH  17  21
ENDBRANCH  14  20
ENDBRANCH   1  14
TORSDOF 5
