REMARK  Name = ZINC27578395
REMARK  10 active torsions:
REMARK  status: ('A' for Active; 'I' for Inactive)
REMARK    1  A    between atoms: C_1  and  C_2
REMARK    2  A    between atoms: C_2  and  C_4
REMARK    3  A    between atoms: C_2  and  O_28
REMARK    4  A    between atoms: C_4  and  N_5
REMARK    5  A    between atoms: C_6  and  C_8
REMARK    6  A    between atoms: C_8  and  C_9
REMARK    7  A    between atoms: C_9  and  C_11
REMARK    8  A    between atoms: C_9  and  C_20
REMARK    9  A    between atoms: C_14  and  N_17
REMARK   10  A    between atoms: C_25  and  O_26
REMARK                            x       y       z     vdW  Elec       q    Type
REMARK                         _______ _______ _______ _____ _____    ______ ____
ROOT
ATOM      1  C   UNL     1       2.555   4.187   0.000  0.00  0.00    +0.061 C 
ENDROOT
BRANCH   1   2
ATOM      2  C   UNL     1       3.299   3.692  -1.214  0.00  0.00    +0.003 A 
ATOM      3  C   UNL     1       2.817   3.966  -2.479  0.00  0.00    +0.023 A 
ATOM      4  C   UNL     1       3.499   3.512  -3.593  0.00  0.00    +0.018 A 
ATOM      5  C   UNL     1       4.664   2.781  -3.443  0.00  0.00    +0.019 A 
ATOM      6  C   UNL     1       5.149   2.505  -2.180  0.00  0.00    +0.047 A 
ATOM      7  C   UNL     1       4.470   2.965  -1.061  0.00  0.00    +0.121 A 
ATOM      8 BR   UNL     1       2.837   3.889  -5.324  0.00  0.00    -0.050 Br
BRANCH   7   9
ATOM      9  O   UNL     1       4.948   2.698   0.183  0.00  0.00    -0.506 OA
ATOM     10  H   UNL     1       5.877   2.122   0.303  0.00  0.00    +0.292 HD
ENDBRANCH   7   9
ENDBRANCH   1   2
BRANCH   1  11
ATOM     11  C   UNL     1       2.611   5.692   0.044  0.00  0.00    -0.039 A 
ATOM     12  C   UNL     1       1.938   6.437  -0.907  0.00  0.00    +0.006 A 
ATOM     13  C   UNL     1       1.985   7.817  -0.864  0.00  0.00    +0.033 A 
ATOM     14  C   UNL     1       2.713   8.454   0.124  0.00  0.00    +0.126 A 
ATOM     15  C   UNL     1       3.390   7.709   1.071  0.00  0.00    +0.033 A 
ATOM     16  C   UNL     1       3.339   6.329   1.032  0.00  0.00    +0.006 A 
BRANCH  14  17
ATOM     17  N   UNL     1       2.768   9.932   0.167  0.00  0.00    +0.056 N 
ATOM     18  O   UNL     1       3.409  10.493   1.037  0.00  0.00    -0.126 OA
ATOM     19  O   UNL     1       2.171  10.588  -0.668  0.00  0.00    -0.126 OA
ENDBRANCH  14  17
ENDBRANCH   1  11
BRANCH   1  20
ATOM     20  C   UNL     1       1.096   3.732  -0.075  0.00  0.00    +0.108 C 
BRANCH  20  22
ATOM     21  N   UNL     1      -0.158   1.601  -0.042  0.00  0.00    -0.313 N 
ATOM     22  C   UNL     1       1.033   2.229   0.005  0.00  0.00    +0.214 C 
ATOM     23  O   UNL     1       2.055   1.584   0.112  0.00  0.00    -0.276 OA
ATOM     24  H   UNL     1      -1.085   2.185  -0.139  0.00  0.00    +0.149 HD
BRANCH  21  25
ATOM     25  C   UNL     1      -0.219   0.139   0.036  0.00  0.00    +0.135 C 
BRANCH  25  27
ATOM     26  C   UNL     1      -1.752  -1.830   0.167  0.00  0.00    +0.039 C 
ATOM     27  C   UNL     1      -1.678  -0.316  -0.039  0.00  0.00    +0.128 C 
BRANCH  27  28
ATOM     28  O   UNL     1      -2.215   0.018  -1.321  0.00  0.00    -0.391 OA
ATOM     29  H   UNL     1      -2.246   1.067  -1.648  0.00  0.00    +0.210 HD
ENDBRANCH  27  28
ENDBRANCH  25  27
ENDBRANCH  21  25
ENDBRANCH  20  22
ENDBRANCH   1  20
TORSDOF 9
