REMARK  Name = ZINC55843085
REMARK  7 active torsions:
REMARK  status: ('A' for Active; 'I' for Inactive)
REMARK    1  A    between atoms: C_1  and  C_2
REMARK    2  A    between atoms: C_4  and  C_26
REMARK    3  A    between atoms: C_7  and  N_8
REMARK    4  A    between atoms: N_8  and  C_9
REMARK    5  A    between atoms: C_9  and  C_10
REMARK    6  A    between atoms: N_15  and  C_16
REMARK    7  A    between atoms: N_28  and  C_29
REMARK                            x       y       z     vdW  Elec       q    Type
REMARK                         _______ _______ _______ _____ _____    ______ ____
ROOT
ATOM      1  C   UNL     1       0.045   0.223   4.826  0.00  0.00    +0.237 C 
ATOM      2  O   UNL     1       0.026   1.416   4.609  0.00  0.00    -0.274 OA
ATOM      3  N   UNL     1       0.063  -0.230   6.095  0.00  0.00    -0.239 N 
ATOM      4  C   UNL     1       0.061   0.642   7.122  0.00  0.00    +0.306 C 
ATOM      5  O   UNL     1       0.042   1.837   6.905  0.00  0.00    -0.252 OA
ATOM      6  N   UNL     1       0.079   0.188   8.391  0.00  0.00    -0.294 N 
ATOM      7  H   UNL     1       0.077  -1.185   6.268  0.00  0.00    +0.159 HD
ATOM      8  H   UNL     1       0.094  -0.766   8.565  0.00  0.00    +0.151 HD
ENDROOT
BRANCH   6   9
ATOM      9  C   UNL     1       0.077   1.136   9.508  0.00  0.00    +0.037 C 
ATOM     10  C   UNL     1       1.313   2.033   9.418  0.00  0.00    +0.029 C 
ATOM     11  C   UNL     1       1.311   3.023  10.585  0.00  0.00    -0.008 C 
ATOM     12  C   UNL     1       1.334   2.253  11.907  0.00  0.00    +0.007 C 
ATOM     13  C   UNL     1       0.097   1.356  11.997  0.00  0.00    -0.008 C 
ATOM     14  C   UNL     1       0.100   0.366  10.830  0.00  0.00    +0.029 C 
ATOM     15  C   UNL     1      -1.165   2.219  11.931  0.00  0.00    +0.007 C 
ATOM     16  C   UNL     1      -1.188   2.989  10.609  0.00  0.00    -0.008 C 
ATOM     17  C   UNL     1       0.049   3.885  10.519  0.00  0.00    +0.007 C 
ATOM     18  C   UNL     1      -1.185   1.999   9.442  0.00  0.00    +0.029 C 
ENDBRANCH   6   9
BRANCH   1  19
ATOM     19  C   UNL     1       0.047  -0.752   3.677  0.00  0.00    +0.198 C 
BRANCH  19  20
ATOM     20  N   UNL     1       0.025  -0.015   2.411  0.00  0.00    -0.335 N 
ATOM     21  H   UNL     1       0.012   0.955   2.414  0.00  0.00    +0.147 HD
BRANCH  20  28
ATOM     22  C   UNL     1      -0.018   1.503   0.010  0.00  0.00    +0.045 C 
ATOM     23  C   UNL     1       0.002  -0.004   0.002  0.00  0.00    -0.029 A 
ATOM     24  C   UNL     1       0.006  -0.685  -1.194  0.00  0.00    +0.018 A 
ATOM     25  C   UNL     1       0.025  -2.083  -1.201  0.00  0.00    +0.037 A 
ATOM     26  C   UNL     1       0.041  -2.784   0.008  0.00  0.00    +0.015 A 
ATOM     27  C   UNL     1       0.037  -2.098   1.201  0.00  0.00    +0.024 A 
ATOM     28  C   UNL     1       0.023  -0.706   1.204  0.00  0.00    +0.030 A 
BRANCH  25  29
ATOM     29  C   UNL     1       0.029  -2.815  -2.481  0.00  0.00    +0.244 C 
ATOM     30  O   UNL     1       0.015  -2.204  -3.532  0.00  0.00    -0.270 OA
ATOM     31  N   UNL     1       0.047  -4.163  -2.486  0.00  0.00    -0.314 N 
ATOM     32  C   UNL     1       0.051  -4.891  -3.758  0.00  0.00    +0.128 C 
ATOM     33  H   UNL     1       0.059  -4.651  -1.648  0.00  0.00    +0.149 HD
ENDBRANCH  25  29
ENDBRANCH  20  28
ENDBRANCH  19  20
ENDBRANCH   1  19
TORSDOF 5
