REMARK  Name = ZINC43085021
REMARK  9 active torsions:
REMARK  status: ('A' for Active; 'I' for Inactive)
REMARK    1  A    between atoms: C_1  and  C_2
REMARK    2  A    between atoms: N_8  and  C_9
REMARK    3  A    between atoms: C_9  and  C_11
REMARK    4  A    between atoms: C_9  and  C_12
REMARK    5  A    between atoms: C_12  and  N_13
REMARK    6  A    between atoms: C_14  and  C_16
REMARK    7  A    between atoms: C_16  and  C_18
REMARK    8  A    between atoms: C_16  and  N_29
REMARK    9  A    between atoms: C_18  and  C_19
REMARK                            x       y       z     vdW  Elec       q    Type
REMARK                         _______ _______ _______ _____ _____    ______ ____
ROOT
ATOM      1  C   UNL     1       2.901  -4.472   3.292  0.00  0.00    +0.165 C 
ENDROOT
BRANCH   1   2
ATOM      2  N   UNL     1       3.000  -5.081   4.621  0.00  0.00    -0.288 N 
ATOM      3  C   UNL     1       4.141  -4.968   5.329  0.00  0.00    +0.298 C 
ATOM      4  O   UNL     1       5.088  -4.362   4.865  0.00  0.00    -0.253 OA
ATOM      5  N   UNL     1       4.233  -5.528   6.552  0.00  0.00    -0.313 N 
ATOM      6  H   UNL     1       2.245  -5.564   4.991  0.00  0.00    +0.151 HD
ATOM      7  H   UNL     1       3.478  -6.012   6.922  0.00  0.00    +0.146 HD
ATOM      8  H   UNL     1       5.055  -5.447   7.062  0.00  0.00    +0.146 HD
ENDBRANCH   1   2
BRANCH   1  10
ATOM      9  N   UNL     1       2.684  -2.167   2.422  0.00  0.00    -0.315 N 
ATOM     10  C   UNL     1       3.115  -2.985   3.403  0.00  0.00    +0.234 C 
ATOM     11  O   UNL     1       3.675  -2.524   4.375  0.00  0.00    -0.274 OA
ATOM     12  H   UNL     1       2.236  -2.535   1.645  0.00  0.00    +0.149 HD
BRANCH   9  13
ATOM     13  C   UNL     1       2.893  -0.721   2.530  0.00  0.00    +0.089 C 
BRANCH  13  14
ATOM     14  C   UNL     1       2.158  -0.013   1.391  0.00  0.00    -0.054 C 
ATOM     15  C   UNL     1       2.533   1.471   1.385  0.00  0.00    -0.012 C 
BRANCH  14  22
ATOM     16  C   UNL     1       0.766  -2.018   0.002  0.00  0.00    -0.013 C 
ATOM     17  C   UNL     1       0.321  -1.553   1.390  0.00  0.00    -0.071 C 
ATOM     18  C   UNL     1      -1.198  -1.688   1.510  0.00  0.00    -0.016 C 
ATOM     19  C   UNL     1      -1.639  -1.222   2.901  0.00  0.00    -0.003 C 
ATOM     20  C   UNL     1      -1.165   0.217   3.120  0.00  0.00    -0.019 C 
ATOM     21  C   UNL     1       0.354   0.281   2.941  0.00  0.00    -0.078 C 
ATOM     22  N   UNL     1       0.708  -0.150   1.584  0.00  0.00    +0.384 N 
ATOM     23  H   UNL     1       0.225   0.426   0.911  0.00  0.00    -0.081 HD
ENDBRANCH  14  22
ENDBRANCH  13  14
ENDBRANCH   9  13
ENDBRANCH   1  10
BRANCH   1  24
ATOM     24  C   UNL     1       3.966  -5.074   2.374  0.00  0.00    +0.069 C 
BRANCH  24  25
ATOM     25  C   UNL     1       3.680  -6.539   2.164  0.00  0.00    -0.020 A 
ATOM     26  C   UNL     1       4.202  -7.562   2.859  0.00  0.00    +0.087 A 
ATOM     27  N   UNL     1       3.709  -8.747   2.385  0.00  0.00    -0.360 N 
ATOM     28  H   UNL     1       3.941  -9.624   2.729  0.00  0.00    +0.165 HD
ATOM     29  C   UNL     1       2.836  -8.510   1.348  0.00  0.00    +0.047 A 
ATOM     30  C   UNL     1       2.774  -7.116   1.168  0.00  0.00    +0.003 A 
ATOM     31  C   UNL     1       1.952  -6.577   0.176  0.00  0.00    +0.010 A 
ATOM     32  C   UNL     1       1.208  -7.408  -0.614  0.00  0.00    +0.001 A 
ATOM     33  C   UNL     1       1.262  -8.783  -0.437  0.00  0.00    +0.002 A 
ATOM     34  C   UNL     1       2.074  -9.337   0.529  0.00  0.00    +0.026 A 
ENDBRANCH  24  25
ENDBRANCH   1  24
TORSDOF 7
