REMARK  Name = ZINC17082823
REMARK  8 active torsions:
REMARK  status: ('A' for Active; 'I' for Inactive)
REMARK    1  A    between atoms: C_1  and  C_2
REMARK    2  A    between atoms: C_2  and  C_3
REMARK    3  A    between atoms: C_2  and  C_4
REMARK    4  A    between atoms: N_6  and  C_7
REMARK    5  A    between atoms: C_7  and  N_9
REMARK    6  A    between atoms: N_12  and  C_15
REMARK    7  A    between atoms: C_18  and  C_24
REMARK    8  A    between atoms: C_20  and  N_21
REMARK                            x       y       z     vdW  Elec       q    Type
REMARK                         _______ _______ _______ _____ _____    ______ ____
ROOT
ATOM      1  N   UNL     1       3.871  -0.155  -2.845  0.00  0.00    -0.309 N 
ATOM      2  C   UNL     1       4.601   0.689  -1.890  0.00  0.00    +0.125 C 
ATOM      3  C   UNL     1       5.940   0.016  -1.565  0.00  0.00    +0.124 C 
ATOM      4  N   UNL     1       6.597  -0.357  -2.825  0.00  0.00    -0.325 N 
ATOM      5  C   UNL     1       5.867  -1.202  -3.781  0.00  0.00    +0.124 C 
ATOM      6  C   UNL     1       4.530  -0.533  -4.104  0.00  0.00    +0.125 C 
ENDROOT
BRANCH   4   7
ATOM      7  C   UNL     1       7.891   0.084  -3.110  0.00  0.00    +0.060 A 
ATOM      8  C   UNL     1       8.987  -0.683  -2.732  0.00  0.00    +0.026 A 
ATOM      9  C   UNL     1      10.265  -0.245  -3.016  0.00  0.00    +0.014 A 
ATOM     10  C   UNL     1      10.456   0.956  -3.676  0.00  0.00    +0.057 A 
ATOM     11  C   UNL     1       9.368   1.721  -4.053  0.00  0.00    +0.047 A 
ATOM     12  C   UNL     1       8.086   1.286  -3.778  0.00  0.00    +0.148 A 
BRANCH  10  13
ATOM     13  C   UNL     1      11.852   1.431  -3.984  0.00  0.00    +0.417 C 
ATOM     14  F   UNL     1      12.778   0.496  -3.508  0.00  0.00    -0.166 F 
ATOM     15  F   UNL     1      12.002   1.573  -5.368  0.00  0.00    -0.166 F 
ATOM     16  F   UNL     1      12.073   2.664  -3.362  0.00  0.00    -0.166 F 
ENDBRANCH  10  13
BRANCH  12  17
ATOM     17  N   UNL     1       6.922   2.103  -4.188  0.00  0.00    +0.058 N 
ATOM     18  O   UNL     1       7.093   3.149  -4.769  0.00  0.00    -0.126 OA
ATOM     19  O   UNL     1       5.801   1.724  -3.942  0.00  0.00    -0.126 OA
ENDBRANCH  12  17
ENDBRANCH   4   7
BRANCH   1  20
ATOM     20  C   UNL     1       2.622  -0.580  -2.570  0.00  0.00    +0.139 C 
ATOM     21  S   UNL     1       1.839  -1.677  -3.627  0.00  0.00    -0.018 S 
BRANCH  20  24
ATOM     22  C   UNL     1       0.704  -0.483  -1.243  0.00  0.00    +0.221 C 
ATOM     23  O   UNL     1       0.117  -1.183  -2.040  0.00  0.00    -0.275 OA
ATOM     24  N   UNL     1       1.990  -0.142  -1.464  0.00  0.00    -0.267 N 
ATOM     25  H   UNL     1       2.459   0.418  -0.826  0.00  0.00    +0.156 HD
BRANCH  22  27
ATOM     26  C   UNL     1      -0.019   1.537   0.001  0.00  0.00    +0.017 C 
ATOM     27  C   UNL     1      -0.003   0.007  -0.005  0.00  0.00    +0.069 C 
ATOM     28  C   UNL     1      -1.440  -0.519   0.003  0.00  0.00    +0.017 C 
ENDBRANCH  22  27
ENDBRANCH  20  24
ENDBRANCH   1  20
TORSDOF 6
