REMARK  Name = ZINC20985608
REMARK  8 active torsions:
REMARK  status: ('A' for Active; 'I' for Inactive)
REMARK    1  A    between atoms: C_1  and  C_2
REMARK    2  A    between atoms: C_2  and  C_3
REMARK    3  A    between atoms: C_3  and  C_4
REMARK    4  A    between atoms: C_4  and  N_5
REMARK    5  A    between atoms: C_6  and  C_8
REMARK    6  A    between atoms: C_11  and  N_13
REMARK    7  A    between atoms: C_19  and  O_28
REMARK    8  A    between atoms: O_28  and  C_29
REMARK                            x       y       z     vdW  Elec       q    Type
REMARK                         _______ _______ _______ _____ _____    ______ ____
ROOT
ATOM      1  N   UNL     1      -2.348   3.907  -0.042  0.00  0.00    -0.286 N 
ATOM      2  C   UNL     1      -2.623   4.731  -1.204  0.00  0.00    +0.150 C 
ATOM      3  C   UNL     1      -1.628   5.844  -1.406  0.00  0.00    +0.016 A 
ATOM      4  C   UNL     1      -1.993   6.801  -2.356  0.00  0.00    +0.009 A 
ATOM      5  C   UNL     1      -1.178   7.871  -2.644  0.00  0.00    +0.004 A 
ATOM      6  C   UNL     1       0.031   8.011  -1.986  0.00  0.00    +0.049 A 
ATOM      7  C   UNL     1       0.402   7.072  -1.045  0.00  0.00    +0.163 A 
ATOM      8  C   UNL     1      -0.429   5.980  -0.747  0.00  0.00    +0.176 A 
ATOM      9  O   UNL     1       0.038   5.138   0.198  0.00  0.00    -0.432 OA
ATOM     10  C   UNL     1       0.045   3.797   0.064  0.00  0.00    +0.242 A 
ATOM     11  C   UNL     1      -1.181   3.147   0.033  0.00  0.00    +0.097 A 
ATOM     12  C   UNL     1      -1.222   1.761   0.017  0.00  0.00    +0.030 A 
ATOM     13  C   UNL     1      -0.013   1.076   0.008  0.00  0.00    +0.022 A 
ATOM     14  C   UNL     1       1.169   1.789   0.001  0.00  0.00    +0.115 A 
ATOM     15  N   UNL     1       1.173   3.110   0.027  0.00  0.00    -0.219 NA
ENDROOT
BRANCH   1  19
ATOM     16  C   UNL     1      -5.253   4.117   2.759  0.00  0.00    +0.076 A 
ATOM     17  C   UNL     1      -4.196   3.280   3.092  0.00  0.00    +0.022 A 
ATOM     18  C   UNL     1      -3.178   3.164   2.186  0.00  0.00    +0.032 A 
ATOM     19  C   UNL     1      -3.255   3.875   1.006  0.00  0.00    +0.073 A 
ATOM     20  S   UNL     1      -4.758   4.725   1.156  0.00  0.00    -0.069 S 
BRANCH  16  22
ATOM     21  N   UNL     1      -7.341   5.265   3.001  0.00  0.00    -0.311 N 
ATOM     22  C   UNL     1      -6.421   4.417   3.503  0.00  0.00    +0.251 C 
ATOM     23  O   UNL     1      -6.593   3.909   4.596  0.00  0.00    -0.270 OA
ATOM     24  H   UNL     1      -7.185   5.724   2.014  0.00  0.00    +0.149 HD
BRANCH  21  25
ATOM     25  C   UNL     1      -8.548   5.574   3.771  0.00  0.00    +0.104 C 
BRANCH  25  26
ATOM     26  C   UNL     1      -9.419   6.554   2.981  0.00  0.00    +0.018 C 
BRANCH  26  28
ATOM     27  C   UNL     1     -11.550   7.857   2.996  0.00  0.00    +0.004 C 
ATOM     28  C   UNL     1     -10.680   6.878   3.785  0.00  0.00    -0.002 C 
ENDBRANCH  26  28
ENDBRANCH  25  26
ENDBRANCH  21  25
ENDBRANCH  16  22
ENDBRANCH   1  19
BRANCH   7  29
ATOM     29  O   UNL     1       1.590   7.207  -0.397  0.00  0.00    -0.491 OA
ATOM     30  C   UNL     1       2.393   8.338  -0.743  0.00  0.00    +0.277 C 
ENDBRANCH   7  29
TORSDOF 6
