REMARK  Name = ZINC35968374
REMARK  11 active torsions:
REMARK  status: ('A' for Active; 'I' for Inactive)
REMARK    1  A    between atoms: C_1  and  C_2
REMARK    2  A    between atoms: C_2  and  C_3
REMARK    3  A    between atoms: C_2  and  C_4
REMARK    4  A    between atoms: C_4  and  C_6
REMARK    5  A    between atoms: C_4  and  N_15
REMARK    6  A    between atoms: N_8  and  C_9
REMARK    7  A    between atoms: C_9  and  C_10
REMARK    8  A    between atoms: C_21  and  C_28
REMARK    9  A    between atoms: N_26  and  C_27
REMARK   10  A    between atoms: C_32  and  O_34
REMARK   11  A    between atoms: O_34  and  C_35
REMARK                            x       y       z     vdW  Elec       q    Type
REMARK                         _______ _______ _______ _____ _____    ______ ____
ROOT
ATOM      1  N   UNL     1      -1.961  -2.044   0.710  0.00  0.00    -0.280 N 
ATOM      2  C   UNL     1      -2.595  -2.554   1.935  0.00  0.00    +0.160 C 
ATOM      3  C   UNL     1      -2.679  -4.051   1.736  0.00  0.00    +0.042 C 
ATOM      4  C   UNL     1      -2.142  -4.303   0.525  0.00  0.00    +0.058 C 
ATOM      5  C   UNL     1      -1.720  -3.103  -0.084  0.00  0.00    +0.247 C 
ATOM      6  O   UNL     1      -1.203  -3.035  -1.184  0.00  0.00    -0.270 OA
ATOM      7  C   UNL     1      -2.095  -5.745   0.061  0.00  0.00    +0.142 C 
ATOM      8  N   UNL     1      -2.644  -6.758   0.978  0.00  0.00    -0.288 N 
ATOM      9  C   UNL     1      -3.148  -6.349   2.159  0.00  0.00    +0.307 C 
ATOM     10  O   UNL     1      -3.603  -7.178   2.923  0.00  0.00    -0.252 OA
ATOM     11  N   UNL     1      -3.164  -5.059   2.518  0.00  0.00    -0.260 N 
ATOM     12  C   UNL     1      -3.733  -4.710   3.823  0.00  0.00    +0.139 C 
ATOM     13  H   UNL     1      -2.642  -7.698   0.738  0.00  0.00    +0.151 HD
ENDROOT
BRANCH   7  14
ATOM     14  C   UNL     1      -0.656  -6.098  -0.213  0.00  0.00    -0.019 A 
ATOM     15  C   UNL     1       0.186  -6.429   0.833  0.00  0.00    +0.006 A 
ATOM     16  C   UNL     1       1.507  -6.754   0.585  0.00  0.00    +0.004 A 
ATOM     17  C   UNL     1       1.989  -6.749  -0.710  0.00  0.00    +0.046 A 
ATOM     18  C   UNL     1       1.147  -6.418  -1.762  0.00  0.00    +0.129 A 
ATOM     19  C   UNL     1      -0.180  -6.097  -1.510  0.00  0.00    +0.052 A 
BRANCH  18  20
ATOM     20  O   UNL     1       1.618  -6.412  -3.036  0.00  0.00    -0.456 OA
BRANCH  20  21
ATOM     21  C   UNL     1       0.776  -6.016  -4.026  0.00  0.00    +0.128 A 
ATOM     22  C   UNL     1       0.536  -4.665  -4.235  0.00  0.00    +0.046 A 
ATOM     23  C   UNL     1      -0.320  -4.265  -5.242  0.00  0.00    +0.004 A 
ATOM     24  C   UNL     1      -0.938  -5.209  -6.042  0.00  0.00    +0.000 A 
ATOM     25  C   UNL     1      -0.701  -6.556  -5.835  0.00  0.00    +0.004 A 
ATOM     26  C   UNL     1       0.160  -6.961  -4.833  0.00  0.00    +0.046 A 
ENDBRANCH  20  21
ENDBRANCH  18  20
ENDBRANCH   7  14
BRANCH   1  27
ATOM     27  C   UNL     1      -1.655  -0.644   0.408  0.00  0.00    +0.165 C 
BRANCH  27  28
ATOM     28  C   UNL     1      -2.392  -0.226  -0.838  0.00  0.00    +0.234 C 
ATOM     29  O   UNL     1      -2.905  -1.064  -1.549  0.00  0.00    -0.274 OA
ATOM     30  N   UNL     1      -2.481   1.079  -1.162  0.00  0.00    -0.307 N 
ATOM     31  H   UNL     1      -2.115   1.753  -0.568  0.00  0.00    +0.149 HD
BRANCH  30  32
ATOM     32  C   UNL     1      -3.132   1.481  -2.412  0.00  0.00    +0.178 C 
BRANCH  32  33
ATOM     33  C   UNL     1      -3.099   2.982  -2.535  0.00  0.00    +0.122 A 
ATOM     34  C   UNL     1      -2.127   3.703  -3.123  0.00  0.00    +0.046 A 
ATOM     35  C   UNL     1      -2.500   5.062  -3.012  0.00  0.00    +0.041 A 
ATOM     36  C   UNL     1      -3.678   5.091  -2.363  0.00  0.00    +0.195 A 
ATOM     37  O   UNL     1      -4.039   3.828  -2.082  0.00  0.00    -0.466 OA
ENDBRANCH  32  33
ENDBRANCH  30  32
ENDBRANCH  27  28
BRANCH  27  39
ATOM     38  C   UNL     1       0.187   0.992  -0.013  0.00  0.00    +0.009 C 
ATOM     39  C   UNL     1      -0.149  -0.488   0.186  0.00  0.00    +0.012 C 
ATOM     40  C   UNL     1       0.605  -1.022   1.406  0.00  0.00    +0.009 C 
ENDBRANCH  27  39
ENDBRANCH   1  27
TORSDOF 8
