REMARK  Name = ZINC08825081
REMARK  5 active torsions:
REMARK  status: ('A' for Active; 'I' for Inactive)
REMARK    1  A    between atoms: C_2  and  C_26
REMARK    2  A    between atoms: C_10  and  S_11
REMARK    3  A    between atoms: S_11  and  C_12
REMARK    4  A    between atoms: C_12  and  C_13
REMARK    5  A    between atoms: N_15  and  C_16
REMARK                            x       y       z     vdW  Elec       q    Type
REMARK                         _______ _______ _______ _____ _____    ______ ____
ROOT
ATOM      1  S   UNL     1       0.290   4.712   0.024  0.00  0.00    -0.076 S 
ENDROOT
BRANCH   1  11
ATOM      2  C   UNL     1       1.225  -0.701  -0.013  0.00  0.00    +0.037 A 
ATOM      3  C   UNL     1       0.002  -0.004   0.002  0.00  0.00    +0.073 A 
ATOM      4  C   UNL     1      -0.016   1.344   0.009  0.00  0.00    +0.107 A 
ATOM      5  N   UNL     1       1.153   2.054   0.002  0.00  0.00    -0.276 N 
ATOM      6  C   UNL     1       2.366   1.399  -0.013  0.00  0.00    +0.180 A 
ATOM      7  C   UNL     1       2.397  -0.011  -0.020  0.00  0.00    +0.086 A 
ATOM      8 CL   UNL     1       3.913  -0.856  -0.039  0.00  0.00    -0.080 Cl
ATOM      9  N   UNL     1       3.303   2.329  -0.017  0.00  0.00    -0.127 NA
ATOM     10  N   UNL     1       2.758   3.494  -0.005  0.00  0.00    -0.122 NA
ATOM     11  C   UNL     1       1.449   3.385   0.006  0.00  0.00    +0.196 A 
BRANCH   3  12
ATOM     12  C   UNL     1      -1.296  -0.770   0.010  0.00  0.00    +0.419 C 
ATOM     13  F   UNL     1      -1.710  -1.000  -1.306  0.00  0.00    -0.166 F 
ATOM     14  F   UNL     1      -1.110  -1.994   0.661  0.00  0.00    -0.166 F 
ATOM     15  F   UNL     1      -2.272  -0.027   0.683  0.00  0.00    -0.166 F 
ENDBRANCH   3  12
ENDBRANCH   1  11
BRANCH   1  16
ATOM     16  C   UNL     1       1.327   6.200   0.023  0.00  0.00    +0.173 C 
BRANCH  16  17
ATOM     17  C   UNL     1       0.448   7.424   0.038  0.00  0.00    +0.224 C 
ATOM     18  O   UNL     1      -0.759   7.305   0.048  0.00  0.00    -0.275 OA
ATOM     19  N   UNL     1       1.004   8.652   0.040  0.00  0.00    -0.309 N 
ATOM     20  H   UNL     1       1.969   8.748   0.032  0.00  0.00    +0.149 HD
BRANCH  19  21
ATOM     21  C   UNL     1       0.150   9.842   0.054  0.00  0.00    +0.035 C 
ATOM     22  C   UNL     1      -0.745   9.844  -1.188  0.00  0.00    +0.029 C 
ATOM     23  C   UNL     1      -1.636  11.087  -1.173  0.00  0.00    -0.008 C 
ATOM     24  C   UNL     1      -0.762  12.342  -1.173  0.00  0.00    +0.007 C 
ATOM     25  C   UNL     1       0.133  12.341   0.068  0.00  0.00    -0.008 C 
ATOM     26  C   UNL     1       1.025  11.098   0.053  0.00  0.00    +0.029 C 
ATOM     27  C   UNL     1      -0.740  12.328   1.325  0.00  0.00    +0.007 C 
ATOM     28  C   UNL     1      -1.614  11.072   1.326  0.00  0.00    -0.008 C 
ATOM     29  C   UNL     1      -2.509  11.073   0.084  0.00  0.00    +0.007 C 
ATOM     30  C   UNL     1      -0.722   9.829   1.311  0.00  0.00    +0.029 C 
ENDBRANCH  19  21
ENDBRANCH  16  17
ENDBRANCH   1  16
TORSDOF 5
