REMARK  Name = ZINC49708030
REMARK  7 active torsions:
REMARK  status: ('A' for Active; 'I' for Inactive)
REMARK    1  A    between atoms: C_5  and  S_15
REMARK    2  A    between atoms: C_6  and  N_7
REMARK    3  A    between atoms: N_7  and  C_8
REMARK    4  A    between atoms: S_15  and  N_18
REMARK    5  A    between atoms: C_19  and  C_20
REMARK    6  A    between atoms: C_20  and  N_21
REMARK    7  A    between atoms: N_24  and  C_25
REMARK                            x       y       z     vdW  Elec       q    Type
REMARK                         _______ _______ _______ _____ _____    ______ ____
ROOT
ATOM      1  S   UNL     1       0.760  -2.424  -0.156  0.00  0.00    +0.103 S 
ATOM      2  O   UNL     1      -0.267  -2.995  -0.953  0.00  0.00    -0.146 OA
ATOM      3  O   UNL     1       2.139  -2.603  -0.447  0.00  0.00    -0.146 OA
ENDROOT
BRANCH   1   8
ATOM      4  C   UNL     1      -0.973   1.201   0.155  0.00  0.00    +0.042 A 
ATOM      5  C   UNL     1       0.106   2.015  -0.119  0.00  0.00    +0.084 A 
ATOM      6  N   UNL     1       1.292   1.500  -0.383  0.00  0.00    -0.365 N 
ATOM      7  C   UNL     1       1.499   0.196  -0.397  0.00  0.00    +0.113 A 
ATOM      8  C   UNL     1       0.473  -0.685  -0.134  0.00  0.00    +0.149 A 
ATOM      9  C   UNL     1      -0.797  -0.182   0.150  0.00  0.00    +0.057 A 
ATOM     10  H   UNL     1       2.033   2.097  -0.573  0.00  0.00    +0.165 HD
BRANCH   9  11
ATOM     11  N   UNL     1      -1.860  -1.038   0.422  0.00  0.00    -0.339 N 
ATOM     12  H   UNL     1      -1.723  -1.998   0.416  0.00  0.00    +0.146 HD
BRANCH  11  13
ATOM     13  C   UNL     1      -3.185  -0.489   0.719  0.00  0.00    +0.070 C 
ATOM     14  C   UNL     1      -3.235  -0.079   2.205  0.00  0.00    +0.022 C 
ATOM     15  C   UNL     1      -4.347   0.918   2.388  0.00  0.00    +0.002 C 
ATOM     16  C   UNL     1      -5.668   0.254   2.823  0.00  0.00    +0.000 C 
ATOM     17  C   UNL     1      -5.953  -1.059   2.069  0.00  0.00    +0.000 C 
ATOM     18  C   UNL     1      -5.629  -0.963   0.603  0.00  0.00    +0.002 C 
ATOM     19  C   UNL     1      -4.193  -1.484   0.384  0.00  0.00    +0.022 C 
ENDBRANCH  11  13
ENDBRANCH   9  11
ENDBRANCH   1   8
BRANCH   1  20
ATOM     20  N   UNL     1       0.526  -2.978   1.387  0.00  0.00    -0.116 NA
ATOM     21  C   UNL     1       0.636  -4.241   1.644  0.00  0.00    +0.144 C 
ATOM     22  N   UNL     1       0.320  -4.717   2.889  0.00  0.00    -0.327 N 
ATOM     23  H   UNL     1       0.465  -5.652   3.102  0.00  0.00    +0.148 HD
BRANCH  22  24
ATOM     24  C   UNL     1      -0.238  -3.813   3.899  0.00  0.00    +0.072 C 
ATOM     25  C   UNL     1       0.901  -3.093   4.624  0.00  0.00    +0.022 C 
ATOM     26  C   UNL     1       0.319  -2.150   5.678  0.00  0.00    +0.002 C 
ATOM     27  C   UNL     1      -0.499  -2.957   6.688  0.00  0.00    +0.000 C 
ATOM     28  C   UNL     1      -1.638  -3.677   5.963  0.00  0.00    +0.002 C 
ATOM     29  C   UNL     1      -1.056  -4.620   4.909  0.00  0.00    +0.022 C 
ENDBRANCH  22  24
BRANCH  21  30
ATOM     30  C   UNL     1       1.112  -5.189   0.574  0.00  0.00    +0.283 C 
BRANCH  30  31
ATOM     31  N   UNL     1       0.994  -6.568   1.055  0.00  0.00    +0.030 N 
ATOM     32  O   UNL     1      -0.058  -6.966   1.497  0.00  0.00    -0.131 OA
ATOM     33  O   UNL     1       1.949  -7.307   1.010  0.00  0.00    -0.131 OA
ENDBRANCH  30  31
ENDBRANCH  21  30
ENDBRANCH   1  20
TORSDOF 7
