REMARK  Name = ZINC19295330
REMARK  13 active torsions:
REMARK  status: ('A' for Active; 'I' for Inactive)
REMARK    1  A    between atoms: C_1  and  C_2
REMARK    2  A    between atoms: C_2  and  C_3
REMARK    3  A    between atoms: C_3  and  C_4
REMARK    4  A    between atoms: C_4  and  N_5
REMARK    5  A    between atoms: C_6  and  N_34
REMARK    6  A    between atoms: C_7  and  N_14
REMARK    7  A    between atoms: N_14  and  C_15
REMARK    8  A    between atoms: C_15  and  C_16
REMARK    9  A    between atoms: C_16  and  C_17
REMARK   10  A    between atoms: C_16  and  C_18
REMARK   11  A    between atoms: C_19  and  C_21
REMARK   12  A    between atoms: C_21  and  C_22
REMARK   13  A    between atoms: C_25  and  C_27
REMARK                            x       y       z     vdW  Elec       q    Type
REMARK                         _______ _______ _______ _____ _____    ______ ____
ROOT
ATOM      1  N   UNL     1       5.536  -1.083   1.020  0.00  0.00    -0.264 N 
ATOM      2  C   UNL     1       4.274  -0.782   0.652  0.00  0.00    +0.226 C 
ATOM      3  O   UNL     1       3.345  -1.436   1.079  0.00  0.00    -0.275 OA
ENDROOT
BRANCH   1   6
ATOM      4  N   UNL     1       5.506  -2.991   4.160  0.00  0.00    -0.280 N 
ATOM      5  C   UNL     1       5.265  -1.984   3.254  0.00  0.00    +0.127 A 
ATOM      6  C   UNL     1       5.771  -2.095   1.974  0.00  0.00    +0.140 A 
ATOM      7  C   UNL     1       6.528  -3.233   1.640  0.00  0.00    +0.277 A 
ATOM      8  O   UNL     1       6.990  -3.354   0.518  0.00  0.00    -0.266 OA
ATOM      9  N   UNL     1       6.739  -4.188   2.567  0.00  0.00    -0.273 N 
ATOM     10  H   UNL     1       7.330  -5.080   2.313  0.00  0.00    +0.173 HD
ATOM     11  C   UNL     1       6.235  -4.065   3.807  0.00  0.00    +0.331 A 
ATOM     12  O   UNL     1       6.441  -4.941   4.625  0.00  0.00    -0.246 OA
BRANCH   5  13
ATOM     13  N   UNL     1       4.527  -0.884   3.616  0.00  0.00    -0.343 N 
ATOM     14  H   UNL     1       4.338  -0.083   2.886  0.00  0.00    +0.144 HD
ATOM     15  H   UNL     1       4.123  -0.804   4.637  0.00  0.00    +0.144 HD
ENDBRANCH   5  13
BRANCH   4  16
ATOM     16  C   UNL     1       4.971  -2.889   5.520  0.00  0.00    +0.128 C 
BRANCH  16  17
ATOM     17  C   UNL     1       5.986  -2.177   6.416  0.00  0.00    +0.021 C 
BRANCH  17  19
ATOM     18  C   UNL     1       6.443  -1.358   8.732  0.00  0.00    +0.004 C 
ATOM     19  C   UNL     1       5.427  -2.070   7.836  0.00  0.00    -0.002 C 
ENDBRANCH  17  19
ENDBRANCH  16  17
ENDBRANCH   4  16
ENDBRANCH   1   6
BRANCH   1  20
ATOM     20  C   UNL     1       6.664  -0.358   0.429  0.00  0.00    +0.117 C 
BRANCH  20  21
ATOM     21  C   UNL     1       6.919   0.924   1.224  0.00  0.00    +0.001 C 
ATOM     22  C   UNL     1       7.378   0.565   2.639  0.00  0.00    +0.009 C 
ATOM     23  C   UNL     1       8.006   1.747   0.529  0.00  0.00    +0.009 C 
ENDBRANCH  20  21
ENDBRANCH   1  20
BRANCH   2  24
ATOM     24  C   UNL     1       4.017   0.366  -0.290  0.00  0.00    +0.152 C 
BRANCH  24  25
ATOM     25  C   UNL     1       2.536   0.490  -0.539  0.00  0.00    +0.058 A 
ATOM     26  C   UNL     1       1.903   1.671  -0.308  0.00  0.00    +0.071 A 
ATOM     27  S   UNL     1       0.227   1.241  -0.761  0.00  0.00    -0.075 S 
ATOM     28  C   UNL     1       0.551  -0.460  -1.207  0.00  0.00    +0.110 A 
ATOM     29  N   UNL     1       1.855  -0.542  -0.980  0.00  0.00    -0.243 NA
BRANCH  28  30
ATOM     30  C   UNL     1      -0.382  -1.496  -1.698  0.00  0.00    +0.025 A 
ATOM     31  C   UNL     1      -1.735  -1.196  -1.869  0.00  0.00    +0.012 A 
ATOM     32  C   UNL     1      -2.601  -2.168  -2.327  0.00  0.00    +0.001 A 
ATOM     33  C   UNL     1      -2.132  -3.437  -2.616  0.00  0.00    +0.001 A 
ATOM     34  C   UNL     1      -0.794  -3.742  -2.448  0.00  0.00    +0.020 A 
ATOM     35  C   UNL     1       0.086  -2.777  -1.996  0.00  0.00    +0.051 A 
ATOM     36 CL   UNL     1       1.767  -3.159  -1.793  0.00  0.00    -0.083 Cl
ENDBRANCH  28  30
ENDBRANCH  24  25
ENDBRANCH   2  24
TORSDOF 10
