REMARK  Name = ZINC59117739
REMARK  10 active torsions:
REMARK  status: ('A' for Active; 'I' for Inactive)
REMARK    1  A    between atoms: C_1  and  C_2
REMARK    2  A    between atoms: C_2  and  N_3
REMARK    3  A    between atoms: N_3  and  C_4
REMARK    4  A    between atoms: N_3  and  S_6
REMARK    5  A    between atoms: C_4  and  C_5
REMARK    6  A    between atoms: S_6  and  C_9
REMARK    7  A    between atoms: C_13  and  C_15
REMARK    8  A    between atoms: N_17  and  C_18
REMARK    9  A    between atoms: C_18  and  C_19
REMARK   10  A    between atoms: C_28  and  C_31
REMARK                            x       y       z     vdW  Elec       q    Type
REMARK                         _______ _______ _______ _____ _____    ______ ____
ROOT
ATOM      1  C   UNL     1       1.529   2.363  -6.261  0.00  0.00    +0.244 C 
ATOM      2  O   UNL     1       2.459   1.604  -6.452  0.00  0.00    -0.270 OA
ATOM      3  N   UNL     1       1.406   3.479  -7.007  0.00  0.00    -0.307 N 
ATOM      4  H   UNL     1       0.663   4.085  -6.855  0.00  0.00    +0.149 HD
ENDROOT
BRANCH   1   9
ATOM      5  C   UNL     1      -0.277   0.632  -3.459  0.00  0.00    +0.106 A 
ATOM      6  C   UNL     1      -1.335   1.499  -3.245  0.00  0.00    +0.028 A 
ATOM      7  C   UNL     1      -1.463   2.645  -4.009  0.00  0.00    +0.003 A 
ATOM      8  C   UNL     1      -0.537   2.932  -4.990  0.00  0.00    +0.013 A 
ATOM      9  C   UNL     1       0.532   2.063  -5.211  0.00  0.00    +0.039 A 
ATOM     10  C   UNL     1       0.660   0.910  -4.434  0.00  0.00    +0.041 A 
BRANCH   5  11
ATOM     11  S   UNL     1      -0.122  -0.825  -2.481  0.00  0.00    +0.061 S 
ATOM     12  O   UNL     1       0.652  -1.743  -3.240  0.00  0.00    -0.153 OA
ATOM     13  O   UNL     1      -1.425  -1.136  -2.007  0.00  0.00    -0.153 OA
BRANCH  11  14
ATOM     14  N   UNL     1       0.783  -0.428  -1.152  0.00  0.00    -0.177 NA
BRANCH  14  16
ATOM     15  C   UNL     1       0.119   1.586   0.065  0.00  0.00    +0.022 C 
ATOM     16  C   UNL     1       0.125   0.056   0.064  0.00  0.00    +0.106 C 
ENDBRANCH  14  16
BRANCH  14  17
ATOM     17  C   UNL     1       2.241  -0.562  -1.192  0.00  0.00    +0.106 C 
ATOM     18  C   UNL     1       2.645  -1.918  -0.610  0.00  0.00    +0.022 C 
ENDBRANCH  14  17
ENDBRANCH  11  14
ENDBRANCH   5  11
ENDBRANCH   1   9
BRANCH   3  19
ATOM     19  C   UNL     1       2.393   3.777  -8.048  0.00  0.00    +0.141 C 
BRANCH  19  20
ATOM     20  C   UNL     1       2.029   5.071  -8.730  0.00  0.00    -0.014 A 
ATOM     21  C   UNL     1       1.197   5.067  -9.842  0.00  0.00    +0.010 A 
ATOM     22  C   UNL     1       0.887   6.276 -10.439  0.00  0.00    +0.042 A 
ATOM     23  C   UNL     1       1.417   7.448  -9.908  0.00  0.00    +0.099 A 
ATOM     24  N   UNL     1       2.207   7.409  -8.846  0.00  0.00    -0.349 N 
ATOM     25  C   UNL     1       2.514   6.271  -8.253  0.00  0.00    +0.089 A 
ATOM     26  N   UNL     1       1.115   8.669 -10.497  0.00  0.00    -0.317 N 
ATOM     27  C   UNL     1       0.350   8.727 -11.751  0.00  0.00    +0.107 C 
ATOM     28  C   UNL     1       1.135   9.558 -12.770  0.00  0.00    +0.022 C 
ATOM     29  C   UNL     1       1.457  10.927 -12.167  0.00  0.00    -0.011 C 
ATOM     30  C   UNL     1       2.325  10.745 -10.920  0.00  0.00    +0.022 C 
ATOM     31  C   UNL     1       1.548   9.928  -9.876  0.00  0.00    +0.107 C 
ATOM     32  C   UNL     1       2.211  11.772 -13.195  0.00  0.00    +0.007 C 
ATOM     33  H   UNL     1       2.565   8.239  -8.492  0.00  0.00    +0.167 HD
ENDBRANCH  19  20
ENDBRANCH   3  19
TORSDOF 7
