REMARK  Name = ZINC14611142
REMARK  7 active torsions:
REMARK  status: ('A' for Active; 'I' for Inactive)
REMARK    1  A    between atoms: C_1  and  C_2
REMARK    2  A    between atoms: C_2  and  C_3
REMARK    3  A    between atoms: C_2  and  C_4
REMARK    4  A    between atoms: C_7  and  C_10
REMARK    5  A    between atoms: C_10  and  N_11
REMARK    6  A    between atoms: C_14  and  C_25
REMARK    7  A    between atoms: C_17  and  C_19
REMARK                            x       y       z     vdW  Elec       q    Type
REMARK                         _______ _______ _______ _____ _____    ______ ____
ROOT
ATOM      1  N   UNL     1       1.222  -2.667  -1.405  0.00  0.00    -0.309 N 
ATOM      2  C   UNL     1       1.238  -4.022  -1.664  0.00  0.00    +0.222 A 
ATOM      3  N   UNL     1       1.259  -4.980  -0.766  0.00  0.00    -0.190 NA
ATOM      4  C   UNL     1       1.269  -6.176  -1.380  0.00  0.00    +0.219 A 
ATOM      5  N   UNL     1       1.254  -5.992  -2.682  0.00  0.00    -0.138 NA
ATOM      6  N   UNL     1       1.228  -4.604  -2.899  0.00  0.00    -0.166 N 
ATOM      7  C   UNL     1       1.202  -3.973  -4.090  0.00  0.00    +0.253 C 
ATOM      8  O   UNL     1       1.184  -2.762  -4.134  0.00  0.00    -0.270 OA
ATOM      9  H   UNL     1       1.204  -1.948  -2.237  0.00  0.00    +0.149 HD
ENDROOT
BRANCH   7  10
ATOM     10  C   UNL     1       1.195  -4.774  -5.367  0.00  0.00    +0.080 C 
ATOM     11  C   UNL     1       2.632  -5.130  -5.753  0.00  0.00    +0.013 C 
ATOM     12  C   UNL     1       2.625  -5.943  -7.049  0.00  0.00    +0.001 C 
ATOM     13  C   UNL     1       1.987  -5.115  -8.167  0.00  0.00    +0.000 C 
ATOM     14  C   UNL     1       0.550  -4.758  -7.781  0.00  0.00    +0.001 C 
ATOM     15  C   UNL     1       0.557  -3.946  -6.484  0.00  0.00    +0.013 C 
ENDBRANCH   7  10
BRANCH   4  16
ATOM     16  C   UNL     1       1.292  -7.487  -0.700  0.00  0.00    +0.173 A 
ATOM     17  C   UNL     1       1.308  -7.689   0.645  0.00  0.00    +0.053 A 
ATOM     18  C   UNL     1       1.328  -9.083   0.845  0.00  0.00    +0.042 A 
ATOM     19  C   UNL     1       1.323  -9.658  -0.374  0.00  0.00    +0.196 A 
ATOM     20  O   UNL     1       1.296  -8.691  -1.305  0.00  0.00    -0.460 OA
ENDBRANCH   4  16
BRANCH   1  21
ATOM     21  C   UNL     1       1.229  -2.186  -0.021  0.00  0.00    +0.139 C 
BRANCH  21  25
ATOM     22  C   UNL     1       1.171   2.086   0.002  0.00  0.00    -0.045 A 
ATOM     23  C   UNL     1      -0.017   1.378   0.010  0.00  0.00    +0.004 A 
ATOM     24  C   UNL     1       0.002  -0.004   0.002  0.00  0.00    +0.005 A 
ATOM     25  C   UNL     1       1.208  -0.679  -0.013  0.00  0.00    -0.030 A 
ATOM     26  C   UNL     1       2.396   0.029  -0.022  0.00  0.00    +0.005 A 
ATOM     27  C   UNL     1       2.377   1.411  -0.015  0.00  0.00    +0.004 A 
BRANCH  22  29
ATOM     28  C   UNL     1       1.876   4.106   1.255  0.00  0.00    +0.012 C 
ATOM     29  C   UNL     1       1.151   3.592   0.010  0.00  0.00    +0.013 C 
ATOM     30  C   UNL     1       1.853   4.119  -1.243  0.00  0.00    +0.012 C 
ENDBRANCH  22  29
ENDBRANCH  21  25
ENDBRANCH   1  21
TORSDOF 5
