REMARK  Name = ZINC23953640
REMARK  6 active torsions:
REMARK  status: ('A' for Active; 'I' for Inactive)
REMARK    1  A    between atoms: C_1  and  C_2
REMARK    2  A    between atoms: C_2  and  C_3
REMARK    3  A    between atoms: C_3  and  C_20
REMARK    4  A    between atoms: N_6  and  N_10
REMARK    5  A    between atoms: C_11  and  C_13
REMARK    6  A    between atoms: C_13  and  C_14
REMARK                            x       y       z     vdW  Elec       q    Type
REMARK                         _______ _______ _______ _____ _____    ______ ____
ROOT
ATOM      1  C   UNL     1      -3.878   8.271   4.532  0.00  0.00    +0.139 C 
ATOM      2  C   UNL     1      -2.700   7.929   3.642  0.00  0.00    +0.268 C 
ATOM      3  O   UNL     1      -1.524   8.095   3.887  0.00  0.00    -0.271 OA
ATOM      4  N   UNL     1      -3.232   7.403   2.520  0.00  0.00    -0.137 N 
ATOM      5  C   UNL     1      -4.568   7.371   2.576  0.00  0.00    +0.327 C 
ATOM      6  O   UNL     1      -5.271   6.944   1.681  0.00  0.00    -0.251 OA
ATOM      7  N   UNL     1      -5.046   7.860   3.735  0.00  0.00    -0.280 N 
ATOM      8  H   UNL     1      -6.061   7.988   4.139  0.00  0.00    +0.152 HD
ENDROOT
BRANCH   1   9
ATOM      9  C   UNL     1      -3.918   9.751   4.814  0.00  0.00    -0.015 A 
ATOM     10  C   UNL     1      -3.269  10.262   5.922  0.00  0.00    +0.006 A 
ATOM     11  C   UNL     1      -3.302  11.620   6.177  0.00  0.00    +0.000 A 
ATOM     12  C   UNL     1      -3.993  12.466   5.329  0.00  0.00    +0.000 A 
ATOM     13  C   UNL     1      -4.646  11.954   4.224  0.00  0.00    +0.000 A 
ATOM     14  C   UNL     1      -4.609  10.597   3.966  0.00  0.00    +0.006 A 
ENDBRANCH   1   9
BRANCH   4  15
ATOM     15  N   UNL     1      -2.478   6.953   1.429  0.00  0.00    -0.224 N 
ATOM     16  C   UNL     1      -2.321   5.631   1.218  0.00  0.00    +0.230 C 
ATOM     17  O   UNL     1      -2.832   4.831   1.974  0.00  0.00    -0.274 OA
ATOM     18  H   UNL     1      -2.015   7.678   0.743  0.00  0.00    +0.174 HD
BRANCH  16  19
ATOM     19  C   UNL     1      -1.510   5.146   0.044  0.00  0.00    +0.101 C 
BRANCH  19  20
ATOM     20  C   UNL     1      -1.490   3.616   0.036  0.00  0.00    -0.002 C 
ATOM     21  C   UNL     1      -0.773   3.123  -1.223  0.00  0.00    +0.004 C 
ATOM     22  C   UNL     1      -0.753   1.593  -1.232  0.00  0.00    +0.000 C 
ATOM     23  C   UNL     1      -0.013   1.086   0.008  0.00  0.00    +0.000 C 
ATOM     24  C   UNL     1      -0.729   1.579   1.267  0.00  0.00    +0.000 C 
ATOM     25  C   UNL     1      -0.750   3.109   1.275  0.00  0.00    +0.004 C 
ENDBRANCH  19  20
ENDBRANCH  16  19
ENDBRANCH   4  15
BRANCH   1  27
ATOM     26  C   UNL     1      -3.827   5.980   5.528  0.00  0.00    +0.007 C 
ATOM     27  C   UNL     1      -3.813   7.478   5.839  0.00  0.00    +0.037 C 
ENDBRANCH   1  27
TORSDOF 5
