REMARK  Name = ZINC59208341
REMARK  6 active torsions:
REMARK  status: ('A' for Active; 'I' for Inactive)
REMARK    1  A    between atoms: C_1  and  C_2
REMARK    2  A    between atoms: C_2  and  C_4
REMARK    3  A    between atoms: C_2  and  N_13
REMARK    4  A    between atoms: N_13  and  C_14
REMARK    5  A    between atoms: C_14  and  C_15
REMARK    6  A    between atoms: C_18  and  O_22
REMARK                            x       y       z     vdW  Elec       q    Type
REMARK                         _______ _______ _______ _____ _____    ______ ____
ROOT
ATOM      1  N   UNL     1      -1.376  -0.512   0.012  0.00  0.00    +0.388 N 
ATOM      2  H   UNL     1      -1.363  -1.518   0.090  0.00  0.00    -0.084 HD
ATOM      3  H   UNL     1      -1.873  -0.121   0.799  0.00  0.00    -0.084 HD
ENDROOT
BRANCH   1   5
ATOM      4  C   UNL     1      -0.019   1.526   0.010  0.00  0.00    -0.006 C 
ATOM      5  C   UNL     1       0.002  -0.004   0.002  0.00  0.00    -0.005 C 
BRANCH   5   6
ATOM      6  C   UNL     1       0.731  -0.503   1.223  0.00  0.00    +0.123 A 
ATOM      7  N   UNL     1       0.268  -0.522   2.446  0.00  0.00    -0.135 NA
ATOM      8  N   UNL     1       1.147  -1.012   3.248  0.00  0.00    -0.129 NA
ATOM      9  C   UNL     1       2.234  -1.337   2.567  0.00  0.00    +0.161 A 
ATOM     10  N   UNL     1       1.988  -1.022   1.253  0.00  0.00    -0.288 N 
ATOM     11  C   UNL     1       2.935  -1.252   0.299  0.00  0.00    +0.094 A 
ATOM     12  C   UNL     1       4.126  -1.794   0.631  0.00  0.00    +0.018 A 
ATOM     13  C   UNL     1       4.405  -2.129   1.967  0.00  0.00    +0.005 A 
ATOM     14  C   UNL     1       3.473  -1.898   2.931  0.00  0.00    +0.048 A 
ENDBRANCH   5   6
ENDBRANCH   1   5
BRANCH   1  15
ATOM     15  C   UNL     1      -2.050  -0.126  -1.234  0.00  0.00    -0.046 C 
BRANCH  15  16
ATOM     16  C   UNL     1      -3.464  -0.648  -1.224  0.00  0.00    -0.063 A 
ATOM     17  C   UNL     1      -3.739  -1.905  -1.729  0.00  0.00    +0.005 A 
ATOM     18  C   UNL     1      -5.035  -2.386  -1.721  0.00  0.00    +0.047 A 
ATOM     19  C   UNL     1      -6.059  -1.606  -1.205  0.00  0.00    +0.131 A 
ATOM     20  C   UNL     1      -5.781  -0.345  -0.698  0.00  0.00    +0.059 A 
ATOM     21  C   UNL     1      -4.482   0.129  -0.704  0.00  0.00    +0.020 A 
ATOM     22 BR   UNL     1      -7.175   0.722   0.006  0.00  0.00    -0.047 Br
BRANCH  19  23
ATOM     23  O   UNL     1      -7.335  -2.077  -1.196  0.00  0.00    -0.506 OA
ATOM     24  H   UNL     1      -7.568  -2.565  -0.395  0.00  0.00    +0.292 HD
ENDBRANCH  19  23
ENDBRANCH  15  16
ENDBRANCH   1  15
TORSDOF 5
