REMARK  Name = ZINC06198462
REMARK  9 active torsions:
REMARK  status: ('A' for Active; 'I' for Inactive)
REMARK    1  A    between atoms: C_1  and  C_2
REMARK    2  A    between atoms: C_5  and  N_9
REMARK    3  A    between atoms: C_7  and  C_8
REMARK    4  A    between atoms: C_13  and  N_14
REMARK    5  A    between atoms: N_14  and  C_15
REMARK    6  A    between atoms: C_18  and  S_21
REMARK    7  A    between atoms: S_21  and  N_24
REMARK    8  A    between atoms: N_24  and  C_25
REMARK    9  A    between atoms: C_32  and  C_34
REMARK                            x       y       z     vdW  Elec       q    Type
REMARK                         _______ _______ _______ _____ _____    ______ ____
ROOT
ATOM      1  N   UNL     1       1.214  -8.380  -1.670  0.00  0.00    -0.320 N 
ATOM      2  H   UNL     1       1.259  -8.484  -0.706  0.00  0.00    +0.152 HD
ENDROOT
BRANCH   1   7
ATOM      3  N   UNL     1      -0.140  -4.116  -0.632  0.00  0.00    -0.156 N 
ATOM      4  C   UNL     1       0.206  -4.757  -1.768  0.00  0.00    +0.273 C 
ATOM      5  O   UNL     1       0.273  -4.279  -2.888  0.00  0.00    -0.268 OA
ATOM      6  C   UNL     1       0.486  -6.145  -1.381  0.00  0.00    +0.075 C 
ATOM      7  C   UNL     1       0.880  -7.186  -2.204  0.00  0.00    +0.087 C 
ATOM      8  C   UNL     1       0.257  -6.188   0.071  0.00  0.00    +0.070 C 
ATOM      9  N   UNL     1      -0.095  -4.997   0.448  0.00  0.00    -0.176 NA
ATOM     10  C   UNL     1       0.408  -7.395   0.961  0.00  0.00    +0.068 C 
BRANCH   3  15
ATOM     11  C   UNL     1      -1.553   1.369  -0.296  0.00  0.00    +0.044 C 
ATOM     12  C   UNL     1      -1.177  -0.087  -0.386  0.00  0.00    -0.047 A 
ATOM     13  C   UNL     1      -0.844  -0.641  -1.609  0.00  0.00    +0.005 A 
ATOM     14  C   UNL     1      -0.500  -1.975  -1.694  0.00  0.00    +0.026 A 
ATOM     15  C   UNL     1      -0.488  -2.762  -0.549  0.00  0.00    +0.061 A 
ATOM     16  C   UNL     1      -0.824  -2.204   0.677  0.00  0.00    +0.029 A 
ATOM     17  C   UNL     1      -1.162  -0.867   0.756  0.00  0.00    -0.046 A 
ATOM     18  C   UNL     1      -1.520  -0.259   2.088  0.00  0.00    +0.044 C 
ENDBRANCH   3  15
ENDBRANCH   1   7
BRANCH   1  19
ATOM     19  C   UNL     1       1.497  -9.465  -2.504  0.00  0.00    +0.031 A 
ATOM     20  C   UNL     1       1.440  -9.315  -3.884  0.00  0.00    +0.025 A 
ATOM     21  C   UNL     1       1.719 -10.389  -4.705  0.00  0.00    +0.030 A 
ATOM     22  C   UNL     1       2.056 -11.613  -4.156  0.00  0.00    +0.109 A 
ATOM     23  C   UNL     1       2.114 -11.765  -2.783  0.00  0.00    +0.030 A 
ATOM     24  C   UNL     1       1.841 -10.694  -1.955  0.00  0.00    +0.025 A 
BRANCH  22  25
ATOM     25  S   UNL     1       2.412 -12.981  -5.208  0.00  0.00    +0.072 S 
ATOM     26  O   UNL     1       2.046 -14.151  -4.490  0.00  0.00    -0.150 OA
ATOM     27  O   UNL     1       1.866 -12.667  -6.481  0.00  0.00    -0.150 OA
BRANCH  25  28
ATOM     28  N   UNL     1       4.056 -13.037  -5.399  0.00  0.00    -0.216 N 
ATOM     29  H   UNL     1       4.552 -13.817  -5.104  0.00  0.00    +0.174 HD
BRANCH  28  30
ATOM     30  C   UNL     1       4.729 -11.961  -5.984  0.00  0.00    +0.048 A 
ATOM     31  C   UNL     1       4.230 -11.375  -7.140  0.00  0.00    +0.026 A 
ATOM     32  C   UNL     1       4.896 -10.311  -7.716  0.00  0.00    +0.022 A 
ATOM     33  C   UNL     1       6.060  -9.830  -7.144  0.00  0.00    +0.041 A 
ATOM     34  C   UNL     1       6.560 -10.412  -5.992  0.00  0.00    +0.022 A 
ATOM     35  C   UNL     1       5.894 -11.473  -5.408  0.00  0.00    +0.026 A 
ATOM     36 CL   UNL     1       6.896  -8.494  -7.871  0.00  0.00    -0.084 Cl
ENDBRANCH  28  30
ENDBRANCH  25  28
ENDBRANCH  22  25
ENDBRANCH   1  19
TORSDOF 6
