REMARK  Name = ZINC18063642
REMARK  7 active torsions:
REMARK  status: ('A' for Active; 'I' for Inactive)
REMARK    1  A    between atoms: C_1  and  C_2
REMARK    2  A    between atoms: C_4  and  C_35
REMARK    3  A    between atoms: N_10  and  S_11
REMARK    4  A    between atoms: S_11  and  C_14
REMARK    5  A    between atoms: N_21  and  C_22
REMARK    6  A    between atoms: C_22  and  C_23
REMARK    7  A    between atoms: C_23  and  C_24
REMARK                            x       y       z     vdW  Elec       q    Type
REMARK                         _______ _______ _______ _____ _____    ______ ____
ROOT
ATOM      1  C   UNL     1       1.157   0.031  -4.486  0.00  0.00    +0.066 C 
ATOM      2  C   UNL     1       1.172  -1.430  -4.857  0.00  0.00    +0.044 A 
ATOM      3  C   UNL     1       1.165  -1.816  -6.188  0.00  0.00    +0.046 A 
ATOM      4  C   UNL     1       1.181  -3.170  -6.485  0.00  0.00    +0.044 A 
ATOM      5  N   UNL     1       1.202  -4.047  -5.495  0.00  0.00    -0.217 NA
ATOM      6  C   UNL     1       1.208  -3.644  -4.233  0.00  0.00    +0.231 A 
ATOM      7  N   UNL     1       1.189  -2.359  -3.915  0.00  0.00    -0.217 NA
ATOM      8  N   UNL     1       1.230  -4.592  -3.220  0.00  0.00    -0.294 N 
ATOM      9  C   UNL     1       1.237  -4.191  -1.901  0.00  0.00    +0.224 C 
ATOM     10  N   UNL     1       1.223  -2.923  -1.606  0.00  0.00    -0.093 NA
ATOM     11  N   UNL     1       1.259  -5.131  -0.898  0.00  0.00    -0.354 N 
ATOM     12  C   UNL     1       1.174  -3.636  -7.918  0.00  0.00    +0.066 C 
ATOM     13  H   UNL     1       1.240  -5.537  -3.440  0.00  0.00    +0.172 HD
ATOM     14  H   UNL     1       1.264  -4.848   0.030  0.00  0.00    +0.163 HD
ENDROOT
BRANCH  10  15
ATOM     15  S   UNL     1       1.231  -2.441  -0.022  0.00  0.00    +0.102 S 
ATOM     16  O   UNL     1       2.487  -2.833   0.515  0.00  0.00    -0.146 OA
ATOM     17  O   UNL     1      -0.003  -2.866   0.538  0.00  0.00    -0.146 OA
BRANCH  15  18
ATOM     18  C   UNL     1       1.208  -0.679  -0.013  0.00  0.00    +0.113 A 
ATOM     19  C   UNL     1       0.002  -0.004   0.002  0.00  0.00    +0.030 A 
ATOM     20  C   UNL     1      -0.017   1.378   0.010  0.00  0.00    +0.022 A 
ATOM     21  C   UNL     1       1.172   2.086   0.002  0.00  0.00    +0.041 A 
ATOM     22  C   UNL     1       2.379   1.409  -0.013  0.00  0.00    +0.022 A 
ATOM     23  C   UNL     1       2.397   0.027  -0.020  0.00  0.00    +0.030 A 
ATOM     24 CL   UNL     1       1.149   3.821   0.011  0.00  0.00    -0.084 Cl
ENDBRANCH  15  18
ENDBRANCH  10  15
BRANCH  11  25
ATOM     25  C   UNL     1       1.274  -6.557  -1.230  0.00  0.00    +0.120 C 
BRANCH  25  26
ATOM     26  C   UNL     1       1.297  -7.381   0.060  0.00  0.00    +0.058 C 
BRANCH  26  27
ATOM     27  C   UNL     1       1.313  -8.848  -0.282  0.00  0.00    -0.021 A 
ATOM     28  C   UNL     1       0.248  -9.662  -0.362  0.00  0.00    +0.087 A 
ATOM     29  N   UNL     1       0.650 -10.926  -0.696  0.00  0.00    -0.360 N 
ATOM     30  H   UNL     1       0.059 -11.686  -0.812  0.00  0.00    +0.165 HD
ATOM     31  C   UNL     1       2.019 -10.958  -0.843  0.00  0.00    +0.047 A 
ATOM     32  C   UNL     1       2.494  -9.657  -0.596  0.00  0.00    +0.004 A 
ATOM     33  C   UNL     1       3.862  -9.389  -0.668  0.00  0.00    +0.030 A 
ATOM     34  C   UNL     1       4.739 -10.400  -0.992  0.00  0.00    +0.042 A 
ATOM     35  C   UNL     1       4.269 -11.683  -1.241  0.00  0.00    +0.022 A 
ATOM     36  C   UNL     1       2.922 -11.965  -1.169  0.00  0.00    +0.027 A 
ATOM     37 CL   UNL     1       6.440 -10.070  -1.089  0.00  0.00    -0.084 Cl
ENDBRANCH  26  27
ENDBRANCH  25  26
ENDBRANCH  11  25
TORSDOF 5
