REMARK  Name = ZINC20276603
REMARK  9 active torsions:
REMARK  status: ('A' for Active; 'I' for Inactive)
REMARK    1  A    between atoms: C_1  and  C_2
REMARK    2  A    between atoms: C_2  and  C_3
REMARK    3  A    between atoms: C_3  and  C_4
REMARK    4  A    between atoms: C_4  and  N_5
REMARK    5  A    between atoms: C_8  and  C_20
REMARK    6  A    between atoms: C_13  and  C_17
REMARK    7  A    between atoms: C_17  and  C_18
REMARK    8  A    between atoms: C_17  and  C_19
REMARK    9  A    between atoms: C_20  and  C_22
REMARK                            x       y       z     vdW  Elec       q    Type
REMARK                         _______ _______ _______ _____ _____    ______ ____
ROOT
ATOM      1  N   UNL     1      -2.410  -0.144   1.835  0.00  0.00    -0.265 N 
ATOM      2  C   UNL     1      -1.362  -0.865   2.427  0.00  0.00    +0.079 A 
ATOM      3  C   UNL     1      -1.509  -2.206   2.718  0.00  0.00    +0.038 A 
ATOM      4  C   UNL     1      -0.450  -2.908   3.309  0.00  0.00    +0.021 A 
ATOM      5  C   UNL     1       0.748  -2.244   3.600  0.00  0.00    +0.015 A 
ATOM      6  C   UNL     1       0.886  -0.906   3.306  0.00  0.00    +0.048 A 
ATOM      7  C   UNL     1      -0.163  -0.211   2.720  0.00  0.00    +0.143 A 
ATOM      8  O   UNL     1      -0.034   1.109   2.425  0.00  0.00    -0.477 OA
ATOM      9  C   UNL     1      -0.729   1.579   1.267  0.00  0.00    +0.262 C 
ATOM     10  C   UNL     1      -2.143   1.057   1.277  0.00  0.00    +0.261 C 
ATOM     11  O   UNL     1      -3.038   1.713   0.786  0.00  0.00    -0.271 OA
ENDROOT
BRANCH   9  12
ATOM     12  C   UNL     1      -0.013   1.086   0.008  0.00  0.00    +0.033 C 
ATOM     13  C   UNL     1       1.423   1.615  -0.003  0.00  0.00    +0.011 C 
ATOM     14  C   UNL     1      -0.753   1.593  -1.232  0.00  0.00    +0.011 C 
ENDBRANCH   9  12
BRANCH   4  15
ATOM     15  C   UNL     1      -0.597  -4.335   3.622  0.00  0.00    +0.178 C 
ATOM     16  O   UNL     1      -1.635  -4.908   3.369  0.00  0.00    -0.291 OA
BRANCH  15  17
ATOM     17  C   UNL     1       0.543  -5.088   4.258  0.00  0.00    +0.188 C 
ATOM     18 CL   UNL     1       0.060  -6.805   4.516  0.00  0.00    -0.117 Cl
ENDBRANCH  15  17
ENDBRANCH   4  15
BRANCH   1  19
ATOM     19  C   UNL     1      -3.771  -0.684   1.823  0.00  0.00    +0.114 C 
BRANCH  19  20
ATOM     20  C   UNL     1      -3.978  -1.518   0.557  0.00  0.00    +0.019 C 
BRANCH  20  22
ATOM     21  C   UNL     1      -5.607  -2.916  -0.721  0.00  0.00    +0.004 C 
ATOM     22  C   UNL     1      -5.400  -2.082   0.545  0.00  0.00    -0.002 C 
ENDBRANCH  20  22
ENDBRANCH  19  20
ENDBRANCH   1  19
TORSDOF 6
