REMARK  Name = ZINC38814839
REMARK  4 active torsions:
REMARK  status: ('A' for Active; 'I' for Inactive)
REMARK    1  A    between atoms: C_1  and  C_2
REMARK    2  A    between atoms: C_2  and  C_21
REMARK    3  A    between atoms: N_3  and  N_4
REMARK    4  A    between atoms: C_5  and  C_7
REMARK                            x       y       z     vdW  Elec       q    Type
REMARK                         _______ _______ _______ _____ _____    ______ ____
ROOT
ATOM      1  N   UNL     1       0.024   0.035   2.339  0.00  0.00    -0.205 N 
ATOM      2  C   UNL     1       0.044  -0.645   3.503  0.00  0.00    +0.263 C 
ATOM      3  O   UNL     1       0.060  -1.858   3.496  0.00  0.00    -0.271 OA
ATOM      4  H   UNL     1       0.011   1.005   2.345  0.00  0.00    +0.177 HD
ENDROOT
BRANCH   2   5
ATOM      5  C   UNL     1       0.046   0.101   4.812  0.00  0.00    +0.243 C 
ATOM      6  C   UNL     1       1.436   0.543   5.170  0.00  0.00    -0.007 C 
ATOM      7  C   UNL     1       1.702  -0.081   6.345  0.00  0.00    +0.095 C 
ATOM      8  C   UNL     1       3.010   0.142   7.011  0.00  0.00    +0.005 A 
ATOM      9  C   UNL     1       3.444  -0.668   8.050  0.00  0.00    +0.010 A 
ATOM     10  C   UNL     1       4.684  -0.442   8.618  0.00  0.00    +0.001 A 
ATOM     11  C   UNL     1       5.481   0.585   8.146  0.00  0.00    +0.000 A 
ATOM     12  C   UNL     1       5.044   1.401   7.119  0.00  0.00    +0.004 A 
ATOM     13  C   UNL     1       3.799   1.198   6.552  0.00  0.00    -0.038 A 
ATOM     14  C   UNL     1       3.297   2.142   5.493  0.00  0.00    +0.040 C 
ATOM     15  C   UNL     1       2.407   1.439   4.467  0.00  0.00    +0.040 C 
ATOM     16  N   UNL     1       0.647  -0.839   6.712  0.00  0.00    -0.153 NA
ATOM     17  N   UNL     1      -0.314  -0.797   5.927  0.00  0.00    -0.170 NA
ENDBRANCH   2   5
BRANCH   1  20
ATOM     18  C   UNL     1      -0.018   1.503   0.010  0.00  0.00    +0.068 C 
ATOM     19  C   UNL     1       0.002  -0.004   0.002  0.00  0.00    +0.063 C 
ATOM     20  N   UNL     1       0.022  -0.659   1.122  0.00  0.00    -0.184 NA
BRANCH  19  21
ATOM     21  C   UNL     1      -0.000  -0.735  -1.279  0.00  0.00    -0.003 A 
ATOM     22  C   UNL     1      -0.015  -0.033  -2.487  0.00  0.00    +0.010 A 
ATOM     23  C   UNL     1      -0.017  -0.723  -3.682  0.00  0.00    +0.001 A 
ATOM     24  C   UNL     1      -0.005  -2.106  -3.685  0.00  0.00    +0.000 A 
ATOM     25  C   UNL     1       0.010  -2.808  -2.493  0.00  0.00    +0.001 A 
ATOM     26  C   UNL     1       0.019  -2.131  -1.291  0.00  0.00    +0.010 A 
ENDBRANCH  19  21
ENDBRANCH   1  20
TORSDOF 3
