REMARK  Name = ZINC33051203
REMARK  9 active torsions:
REMARK  status: ('A' for Active; 'I' for Inactive)
REMARK    1  A    between atoms: C_1  and  C_2
REMARK    2  A    between atoms: C_5  and  C_41
REMARK    3  A    between atoms: C_6  and  N_8
REMARK    4  A    between atoms: C_14  and  C_40
REMARK    5  A    between atoms: N_16  and  C_34
REMARK    6  A    between atoms: C_23  and  C_25
REMARK    7  A    between atoms: C_28  and  N_31
REMARK    8  A    between atoms: N_31  and  C_32
REMARK    9  A    between atoms: N_31  and  C_33
REMARK                            x       y       z     vdW  Elec       q    Type
REMARK                         _______ _______ _______ _____ _____    ______ ____
ROOT
ATOM      1  N   UNL     1       6.037   1.600   1.236  0.00  0.00    -0.269 N 
ATOM      2  C   UNL     1       5.384   0.642   1.924  0.00  0.00    +0.308 C 
ATOM      3  O   UNL     1       5.885   0.162   2.922  0.00  0.00    -0.252 OA
ATOM      4  N   UNL     1       4.175   0.218   1.505  0.00  0.00    -0.268 N 
ATOM      5  C   UNL     1       3.525   0.773   0.294  0.00  0.00    +0.151 C 
ATOM      6  C   UNL     1       2.049   0.950   0.493  0.00  0.00    +0.035 A 
ATOM      7  C   UNL     1       1.314   2.125   0.622  0.00  0.00    +0.067 A 
ATOM      8  N   UNL     1       0.045   1.809   0.730  0.00  0.00    -0.169 NA
ATOM      9  N   UNL     1      -0.073   0.410   0.674  0.00  0.00    -0.215 N 
ATOM     10  C   UNL     1       1.170  -0.094   0.554  0.00  0.00    +0.146 A 
ATOM     11  N   UNL     1       1.631  -1.415   0.539  0.00  0.00    -0.303 N 
ATOM     12  C   UNL     1       1.182  -2.498  -0.137  0.00  0.00    +0.093 A 
ATOM     13  C   UNL     1       2.019  -3.527   0.126  0.00  0.00    +0.020 A 
ATOM     14  C   UNL     1       3.006  -3.056   1.019  0.00  0.00    +0.025 A 
ATOM     15  C   UNL     1       2.732  -1.768   1.279  0.00  0.00    +0.050 A 
ATOM     16  C   UNL     1       3.420  -0.831   2.228  0.00  0.00    +0.155 C 
ATOM     17  C   UNL     1       1.880   3.522   0.635  0.00  0.00    +0.068 C 
ATOM     18  H   UNL     1       5.556   2.082   0.372  0.00  0.00    +0.156 HD
ENDROOT
BRANCH   1  24
ATOM     19  C   UNL     1       9.340   2.362   4.797  0.00  0.00    +0.044 C 
ATOM     20  C   UNL     1       8.955   2.360   3.340  0.00  0.00    -0.049 A 
ATOM     21  C   UNL     1       9.879   2.735   2.381  0.00  0.00    +0.004 A 
ATOM     22  C   UNL     1       9.530   2.733   1.043  0.00  0.00    +0.005 A 
ATOM     23  C   UNL     1       8.257   2.358   0.660  0.00  0.00    -0.029 A 
ATOM     24  C   UNL     1       7.328   1.981   1.621  0.00  0.00    +0.038 A 
ATOM     25  C   UNL     1       7.679   1.988   2.964  0.00  0.00    +0.027 A 
ATOM     26  C   UNL     1       7.878   2.356  -0.798  0.00  0.00    +0.045 C 
ENDBRANCH   1  24
BRANCH  16  27
ATOM     27  C   UNL     1       2.387  -0.176   3.109  0.00  0.00    -0.021 A 
ATOM     28  C   UNL     1       2.599   1.105   3.584  0.00  0.00    +0.007 A 
ATOM     29  C   UNL     1       1.652   1.711   4.386  0.00  0.00    +0.023 A 
ATOM     30  C   UNL     1       0.491   1.027   4.725  0.00  0.00    +0.029 A 
ATOM     31  C   UNL     1       0.285  -0.262   4.251  0.00  0.00    +0.023 A 
ATOM     32  C   UNL     1       1.233  -0.860   3.445  0.00  0.00    +0.007 A 
BRANCH  30  33
ATOM     33  N   UNL     1      -0.466   1.634   5.542  0.00  0.00    -0.336 N 
ATOM     34  C   UNL     1      -1.630   0.870   5.999  0.00  0.00    +0.129 C 
ATOM     35  C   UNL     1      -0.306   3.034   5.941  0.00  0.00    +0.129 C 
ENDBRANCH  30  33
ENDBRANCH  16  27
BRANCH   9  36
ATOM     36  C   UNL     1      -1.264  -0.325   0.732  0.00  0.00    +0.068 A 
ATOM     37  C   UNL     1      -1.291  -1.557   1.373  0.00  0.00    +0.028 A 
ATOM     38  C   UNL     1      -2.468  -2.277   1.433  0.00  0.00    +0.002 A 
ATOM     39  C   UNL     1      -3.616  -1.778   0.847  0.00  0.00    +0.000 A 
ATOM     40  C   UNL     1      -3.592  -0.554   0.203  0.00  0.00    +0.002 A 
ATOM     41  C   UNL     1      -2.419   0.173   0.144  0.00  0.00    +0.028 A 
ENDBRANCH   9  36
TORSDOF 4
