REMARK  Name = ZINC28526878
REMARK  11 active torsions:
REMARK  status: ('A' for Active; 'I' for Inactive)
REMARK    1  A    between atoms: C_1  and  C_2
REMARK    2  A    between atoms: C_2  and  C_3
REMARK    3  A    between atoms: C_2  and  C_4
REMARK    4  A    between atoms: C_7  and  C_10
REMARK    5  A    between atoms: C_10  and  C_11
REMARK    6  A    between atoms: N_18  and  C_19
REMARK    7  A    between atoms: C_19  and  C_20
REMARK    8  A    between atoms: C_20  and  C_22
REMARK    9  A    between atoms: C_20  and  N_30
REMARK   10  A    between atoms: C_25  and  O_28
REMARK   11  A    between atoms: O_28  and  C_29
REMARK                            x       y       z     vdW  Elec       q    Type
REMARK                         _______ _______ _______ _____ _____    ______ ____
ROOT
ATOM      1  C   UNL     1      -5.644   2.632  -5.557  0.00  0.00    +0.132 A 
ATOM      2  C   UNL     1      -6.021   2.279  -4.243  0.00  0.00    +0.296 A 
ATOM      3  O   UNL     1      -7.188   2.329  -3.890  0.00  0.00    -0.264 OA
ATOM      4  N   UNL     1      -5.053   1.882  -3.385  0.00  0.00    -0.175 NA
ATOM      5  C   UNL     1      -3.766   1.844  -3.830  0.00  0.00    +0.213 A 
ATOM      6  N   UNL     1      -3.476   2.193  -5.071  0.00  0.00    -0.248 N 
ATOM      7  N   UNL     1      -4.380   2.567  -5.903  0.00  0.00    -0.170 NA
ATOM      8  N   UNL     1      -2.767   1.447  -2.984  0.00  0.00    -0.315 N 
ATOM      9  H   UNL     1      -3.004   1.160  -1.949  0.00  0.00    +0.149 HD
ATOM     10  H   UNL     1      -2.433   2.169  -5.420  0.00  0.00    +0.192 HD
ENDROOT
BRANCH   1  11
ATOM     11  C   UNL     1      -6.683   3.081  -6.551  0.00  0.00    +0.098 C 
BRANCH  11  15
ATOM     12  C   UNL     1      -4.796   3.973 -10.278  0.00  0.00    -0.045 A 
ATOM     13  C   UNL     1      -5.256   2.694 -10.025  0.00  0.00    +0.004 A 
ATOM     14  C   UNL     1      -5.867   2.406  -8.819  0.00  0.00    +0.004 A 
ATOM     15  C   UNL     1      -6.017   3.396  -7.866  0.00  0.00    -0.041 A 
ATOM     16  C   UNL     1      -5.562   4.676  -8.121  0.00  0.00    +0.004 A 
ATOM     17  C   UNL     1      -4.947   4.963  -9.326  0.00  0.00    +0.004 A 
BRANCH  12  19
ATOM     18  C   UNL     1      -4.919   5.379 -12.317  0.00  0.00    +0.012 C 
ATOM     19  C   UNL     1      -4.129   4.287 -11.593  0.00  0.00    +0.013 C 
ATOM     20  C   UNL     1      -2.702   4.776 -11.337  0.00  0.00    +0.012 C 
ENDBRANCH  12  19
ENDBRANCH  11  15
ENDBRANCH   1  11
BRANCH   8  21
ATOM     21  C   UNL     1      -1.381   1.404  -3.457  0.00  0.00    +0.093 C 
BRANCH  21  22
ATOM     22  C   UNL     1      -0.489   0.804  -2.368  0.00  0.00    -0.020 C 
BRANCH  22  23
ATOM     23  C   UNL     1      -0.878  -0.632  -2.135  0.00  0.00    -0.059 A 
ATOM     24  C   UNL     1      -0.436  -1.617  -3.000  0.00  0.00    +0.005 A 
ATOM     25  C   UNL     1      -0.788  -2.935  -2.785  0.00  0.00    +0.046 A 
ATOM     26  C   UNL     1      -1.594  -3.270  -1.707  0.00  0.00    +0.120 A 
ATOM     27  C   UNL     1      -2.041  -2.280  -0.844  0.00  0.00    +0.046 A 
ATOM     28  C   UNL     1      -1.682  -0.964  -1.060  0.00  0.00    +0.005 A 
BRANCH  26  29
ATOM     29  O   UNL     1      -1.947  -4.566  -1.497  0.00  0.00    -0.495 OA
ATOM     30  C   UNL     1      -1.450  -5.532  -2.425  0.00  0.00    +0.277 C 
ENDBRANCH  26  29
ENDBRANCH  22  23
BRANCH  22  31
ATOM     31  N   UNL     1       0.915   0.868  -2.796  0.00  0.00    +0.385 N 
ATOM     32  C   UNL     1       1.821   0.384  -1.722  0.00  0.00    -0.078 C 
ATOM     33  C   UNL     1       3.198   0.991  -2.068  0.00  0.00    -0.020 C 
ATOM     34  C   UNL     1       2.879   2.236  -2.927  0.00  0.00    -0.020 C 
ATOM     35  C   UNL     1       1.339   2.273  -3.025  0.00  0.00    -0.078 C 
ATOM     36  H   UNL     1       0.969   0.253  -3.707  0.00  0.00    -0.081 HD
ENDBRANCH  22  31
ENDBRANCH  21  22
ENDBRANCH   8  21
TORSDOF 8
