REMARK  Name = ZINC15004984
REMARK  8 active torsions:
REMARK  status: ('A' for Active; 'I' for Inactive)
REMARK    1  A    between atoms: C_1  and  C_2
REMARK    2  A    between atoms: C_9  and  C_19
REMARK    3  A    between atoms: C_10  and  N_12
REMARK    4  A    between atoms: C_15  and  O_18
REMARK    5  A    between atoms: C_19  and  N_20
REMARK    6  A    between atoms: N_20  and  C_21
REMARK    7  A    between atoms: C_21  and  C_22
REMARK    8  A    between atoms: C_33  and  C_35
REMARK                            x       y       z     vdW  Elec       q    Type
REMARK                         _______ _______ _______ _____ _____    ______ ____
ROOT
ATOM      1  C   UNL     1       0.479  -5.162   2.443  0.00  0.00    +0.146 C 
ENDROOT
BRANCH   1  10
ATOM      2  C   UNL     1      -3.102  -5.409   8.936  0.00  0.00    +0.044 C 
ATOM      3  C   UNL     1      -2.948  -4.878   7.534  0.00  0.00    -0.050 A 
ATOM      4  C   UNL     1      -3.862  -3.947   7.047  0.00  0.00    +0.005 A 
ATOM      5  C   UNL     1      -3.751  -3.449   5.785  0.00  0.00    +0.028 A 
ATOM      6  C   UNL     1      -2.700  -3.875   4.956  0.00  0.00    +0.073 A 
ATOM      7  C   UNL     1      -1.771  -4.822   5.454  0.00  0.00    +0.001 A 
ATOM      8  C   UNL     1      -1.913  -5.311   6.761  0.00  0.00    +0.013 A 
ATOM      9  C   UNL     1      -0.716  -5.250   4.623  0.00  0.00    +0.018 A 
ATOM     10  C   UNL     1      -0.633  -4.732   3.365  0.00  0.00    +0.010 A 
ATOM     11  C   UNL     1      -1.584  -3.797   2.931  0.00  0.00    +0.127 A 
ATOM     12  N   UNL     1      -2.567  -3.401   3.713  0.00  0.00    -0.232 NA
BRANCH  11  13
ATOM     13  N   UNL     1      -1.487  -3.279   1.649  0.00  0.00    -0.315 N 
ATOM     14  C   UNL     1      -2.060  -4.000   0.504  0.00  0.00    +0.109 C 
ATOM     15  C   UNL     1      -2.995  -3.055  -0.257  0.00  0.00    +0.050 C 
ATOM     16  C   UNL     1      -2.232  -1.783  -0.633  0.00  0.00    +0.118 C 
ATOM     17  C   UNL     1      -1.758  -1.074   0.638  0.00  0.00    +0.050 C 
ATOM     18  C   UNL     1      -0.815  -1.994   1.410  0.00  0.00    +0.109 C 
BRANCH  16  19
ATOM     19  O   UNL     1      -3.092  -0.912  -1.371  0.00  0.00    -0.392 OA
ATOM     20  H   UNL     1      -2.646  -0.135  -1.736  0.00  0.00    +0.210 HD
ENDBRANCH  16  19
ENDBRANCH  11  13
ENDBRANCH   1  10
BRANCH   1  21
ATOM     21  N   UNL     1       1.509  -5.863   3.214  0.00  0.00    -0.293 N 
ATOM     22  C   UNL     1       1.467  -7.205   3.329  0.00  0.00    +0.219 C 
ATOM     23  O   UNL     1       2.245  -7.775   4.066  0.00  0.00    -0.275 OA
BRANCH  22  24
ATOM     24  C   UNL     1       0.456  -7.998   2.543  0.00  0.00    +0.075 C 
ATOM     25  C   UNL     1      -0.874  -8.021   3.299  0.00  0.00    +0.013 C 
ATOM     26  C   UNL     1      -1.901  -8.826   2.501  0.00  0.00    +0.001 C 
ATOM     27  C   UNL     1      -1.395 -10.258   2.316  0.00  0.00    +0.000 C 
ATOM     28  C   UNL     1      -0.065 -10.235   1.559  0.00  0.00    +0.001 C 
ATOM     29  C   UNL     1       0.962  -9.430   2.357  0.00  0.00    +0.013 C 
ENDBRANCH  22  24
BRANCH  21  30
ATOM     30  C   UNL     1       2.583  -5.105   3.860  0.00  0.00    +0.156 C 
BRANCH  30  31
ATOM     31  C   UNL     1       2.153  -4.714   5.275  0.00  0.00    +0.228 C 
ATOM     32  C   UNL     1       3.228  -3.827   5.917  0.00  0.00    +0.275 C 
ATOM     33  O   UNL     1       2.801  -3.493   7.242  0.00  0.00    -0.485 OA
ATOM     34  C   UNL     1       2.320  -4.512   8.005  0.00  0.00    +0.162 A 
ATOM     35  C   UNL     1       2.232  -4.350   9.380  0.00  0.00    +0.049 A 
ATOM     36  C   UNL     1       1.743  -5.375  10.168  0.00  0.00    +0.004 A 
ATOM     37  C   UNL     1       1.339  -6.563   9.588  0.00  0.00    +0.004 A 
ATOM     38  C   UNL     1       1.426  -6.731   8.219  0.00  0.00    +0.049 A 
ATOM     39  C   UNL     1       1.918  -5.708   7.423  0.00  0.00    +0.163 A 
ATOM     40  O   UNL     1       2.004  -5.891   6.077  0.00  0.00    -0.480 OA
ENDBRANCH  30  31
ENDBRANCH  21  30
ENDBRANCH   1  21
TORSDOF 7
