REMARK  Name = ZINC39617804
REMARK  13 active torsions:
REMARK  status: ('A' for Active; 'I' for Inactive)
REMARK    1  A    between atoms: C_1  and  C_2
REMARK    2  A    between atoms: C_4  and  C_34
REMARK    3  A    between atoms: C_5  and  C_33
REMARK    4  A    between atoms: C_6  and  C_8
REMARK    5  A    between atoms: C_8  and  C_10
REMARK    6  A    between atoms: C_10  and  C_12
REMARK    7  A    between atoms: C_10  and  O_13
REMARK    8  A    between atoms: O_13  and  C_14
REMARK    9  A    between atoms: C_14  and  C_16
REMARK   10  A    between atoms: C_16  and  C_17
REMARK   11  A    between atoms: C_17  and  C_18
REMARK   12  A    between atoms: C_34  and  O_36
REMARK   13  A    between atoms: O_36  and  C_37
REMARK                            x       y       z     vdW  Elec       q    Type
REMARK                         _______ _______ _______ _____ _____    ______ ____
ROOT
ATOM      1  C   UNL     1       3.114  -3.253   4.856  0.00  0.00    +0.308 C 
ATOM      2  O   UNL     1       2.091  -2.861   5.367  0.00  0.00    -0.251 OA
ENDROOT
BRANCH   1   3
ATOM      3  O   UNL     1       3.503  -2.760   3.670  0.00  0.00    -0.453 OA
BRANCH   3   4
ATOM      4  C   UNL     1       2.661  -1.774   3.069  0.00  0.00    +0.245 C 
ATOM      5  C   UNL     1       3.097  -0.382   3.530  0.00  0.00    +0.061 C 
BRANCH   4   6
ATOM      6  C   UNL     1       2.773  -1.865   1.569  0.00  0.00    +0.221 C 
ATOM      7  O   UNL     1       3.681  -2.485   1.067  0.00  0.00    -0.286 OA
BRANCH   6  12
ATOM      8  C   UNL     1      -0.019   1.526   0.010  0.00  0.00    +0.038 C 
ATOM      9  C   UNL     1       0.002  -0.004   0.002  0.00  0.00    +0.140 C 
ATOM     10  C   UNL     1       0.731  -0.510  -1.223  0.00  0.00    +0.065 C 
ATOM     11  C   UNL     1       1.782  -1.217  -0.761  0.00  0.00    -0.010 C 
ATOM     12  C   UNL     1       1.770  -1.193   0.709  0.00  0.00    +0.109 C 
ATOM     13  N   UNL     1       0.761  -0.507   1.153  0.00  0.00    -0.272 NA
ATOM     14  C   UNL     1       2.806  -1.919  -1.615  0.00  0.00    +0.046 C 
BRANCH  10  15
ATOM     15  C   UNL     1       0.368  -0.279  -2.628  0.00  0.00    +0.337 C 
ATOM     16  O   UNL     1       1.050  -0.750  -3.517  0.00  0.00    -0.245 OA
BRANCH  15  17
ATOM     17  O   UNL     1      -0.722   0.455  -2.930  0.00  0.00    -0.465 OA
ATOM     18  C   UNL     1      -1.015   0.639  -4.317  0.00  0.00    +0.280 C 
ENDBRANCH  15  17
ENDBRANCH  10  15
ENDBRANCH   6  12
ENDBRANCH   4   6
ENDBRANCH   3   4
ENDBRANCH   1   3
BRANCH   1  19
ATOM     19  C   UNL     1       3.951  -4.296   5.550  0.00  0.00    +0.128 C 
BRANCH  19  20
ATOM     20  C   UNL     1       3.288  -4.685   6.873  0.00  0.00    +0.085 C 
BRANCH  20  21
ATOM     21  C   UNL     1       4.125  -5.728   7.567  0.00  0.00    +0.124 C 
ATOM     22  N   UNL     1       5.231  -6.126   6.985  0.00  0.00    -0.161 NA
ATOM     23  C   UNL     1       6.039  -7.047   7.519  0.00  0.00    +0.271 C 
ATOM     24  O   UNL     1       7.063  -7.391   6.952  0.00  0.00    -0.268 OA
ATOM     25  C   UNL     1       5.647  -7.644   8.835  0.00  0.00    +0.071 C 
ATOM     26  C   UNL     1       6.269  -8.623   9.518  0.00  0.00    -0.042 C 
ATOM     27  C   UNL     1       7.438  -9.436   8.967  0.00  0.00    +0.033 C 
ATOM     28  C   UNL     1       7.037 -10.913   9.073  0.00  0.00    +0.004 C 
ATOM     29  C   UNL     1       6.602 -11.243  10.499  0.00  0.00    +0.002 C 
ATOM     30  C   UNL     1       5.352 -10.447  10.885  0.00  0.00    +0.019 C 
ATOM     31  C   UNL     1       5.705  -8.957  10.895  0.00  0.00    +0.079 C 
ATOM     32  S   UNL     1       4.174  -7.950  10.934  0.00  0.00    -0.097 S 
ATOM     33  C   UNL     1       4.387  -7.105   9.388  0.00  0.00    +0.111 C 
ATOM     34  N   UNL     1       3.709  -6.191   8.735  0.00  0.00    -0.227 NA
ENDBRANCH  20  21
ENDBRANCH  19  20
ENDBRANCH   1  19
TORSDOF 9
