REMARK  Name = ZINC35745926
REMARK  16 active torsions:
REMARK  status: ('A' for Active; 'I' for Inactive)
REMARK    1  A    between atoms: C_1  and  C_2
REMARK    2  A    between atoms: C_2  and  C_3
REMARK    3  A    between atoms: C_2  and  O_4
REMARK    4  A    between atoms: O_4  and  C_5
REMARK    5  A    between atoms: C_5  and  C_6
REMARK    6  A    between atoms: C_6  and  C_8
REMARK    7  A    between atoms: C_6  and  O_35
REMARK    8  A    between atoms: C_8  and  N_9
REMARK    9  A    between atoms: N_9  and  C_10
REMARK   10  A    between atoms: N_9  and  C_32
REMARK   11  A    between atoms: C_10  and  C_11
REMARK   12  A    between atoms: C_17  and  C_22
REMARK   13  A    between atoms: C_25  and  O_30
REMARK   14  A    between atoms: C_26  and  O_28
REMARK   15  A    between atoms: O_28  and  C_29
REMARK   16  A    between atoms: O_30  and  C_31
REMARK                            x       y       z     vdW  Elec       q    Type
REMARK                         _______ _______ _______ _____ _____    ______ ____
ROOT
ATOM      1  C   UNL     1       6.371  -3.018  -4.628  0.00  0.00    +0.094 A 
ATOM      2  N   UNL     1       7.598  -3.594  -4.706  0.00  0.00    -0.312 N 
ATOM      3  H   UNL     1       8.198  -3.541  -3.946  0.00  0.00    +0.170 HD
ATOM      4  C   UNL     1       7.998  -4.239  -5.818  0.00  0.00    +0.260 A 
ATOM      5  O   UNL     1       9.103  -4.752  -5.872  0.00  0.00    -0.267 OA
ATOM      6  C   UNL     1       7.106  -4.314  -6.935  0.00  0.00    +0.080 A 
ATOM      7  C   UNL     1       7.305  -4.948  -8.233  0.00  0.00    +0.004 A 
ATOM      8  C   UNL     1       6.306  -4.889  -9.146  0.00  0.00    +0.056 A 
ATOM      9  S   UNL     1       5.031  -3.971  -8.305  0.00  0.00    -0.076 S 
ATOM     10  C   UNL     1       5.861  -3.689  -6.762  0.00  0.00    +0.116 A 
ATOM     11  N   UNL     1       5.534  -3.074  -5.628  0.00  0.00    -0.229 NA
ENDROOT
BRANCH   7  12
ATOM     12  C   UNL     1       8.576  -5.643  -8.547  0.00  0.00    -0.013 A 
ATOM     13  C   UNL     1       9.795  -5.006  -8.318  0.00  0.00    +0.012 A 
ATOM     14  C   UNL     1      10.978  -5.654  -8.611  0.00  0.00    +0.050 A 
ATOM     15  C   UNL     1      10.957  -6.938  -9.134  0.00  0.00    +0.162 A 
ATOM     16  C   UNL     1       9.743  -7.578  -9.366  0.00  0.00    +0.162 A 
ATOM     17  C   UNL     1       8.555  -6.935  -9.069  0.00  0.00    +0.058 A 
BRANCH  16  18
ATOM     18  O   UNL     1       9.725  -8.837  -9.879  0.00  0.00    -0.491 OA
ATOM     19  C   UNL     1       8.444  -9.434 -10.091  0.00  0.00    +0.277 C 
ENDBRANCH  16  18
BRANCH  15  20
ATOM     20  O   UNL     1      12.125  -7.572  -9.423  0.00  0.00    -0.491 OA
ATOM     21  C   UNL     1      13.334  -6.856  -9.161  0.00  0.00    +0.277 C 
ENDBRANCH  15  20
ENDBRANCH   7  12
BRANCH   1  22
ATOM     22  C   UNL     1       5.966  -2.307  -3.362  0.00  0.00    -0.003 C 
BRANCH  22  23
ATOM     23  N   UNL     1       4.561  -1.891  -3.462  0.00  0.00    +0.388 N 
ATOM     24  H   UNL     1       4.426  -1.364  -4.312  0.00  0.00    -0.081 HD
BRANCH  23  25
ATOM     25  C   UNL     1       4.215  -1.053  -2.306  0.00  0.00    -0.068 C 
ATOM     26  C   UNL     1       3.493   0.267  -2.582  0.00  0.00    -0.017 C 
ATOM     27  C   UNL     1       4.960   0.274  -2.147  0.00  0.00    -0.017 C 
ENDBRANCH  23  25
BRANCH  23  28
ATOM     28  C   UNL     1       3.699  -3.080  -3.481  0.00  0.00    -0.044 C 
BRANCH  28  29
ATOM     29  C   UNL     1       2.247  -2.654  -3.710  0.00  0.00    +0.124 C 
BRANCH  29  30
ATOM     30  O   UNL     1       1.834  -1.782  -2.655  0.00  0.00    -0.391 OA
ATOM     31  H   UNL     1       1.879  -2.181  -1.776  0.00  0.00    +0.210 HD
ENDBRANCH  29  30
BRANCH  29  32
ATOM     32  C   UNL     1       1.349  -3.892  -3.730  0.00  0.00    +0.189 C 
BRANCH  32  33
ATOM     33  O   UNL     1       0.013  -3.506  -4.059  0.00  0.00    -0.375 OA
BRANCH  33  35
ATOM     34  C   UNL     1      -1.533  -4.794  -2.721  0.00  0.00    +0.037 C 
ATOM     35  C   UNL     1      -0.912  -4.594  -4.105  0.00  0.00    +0.112 C 
ATOM     36  C   UNL     1      -2.015  -4.284  -5.119  0.00  0.00    +0.037 C 
ENDBRANCH  33  35
ENDBRANCH  32  33
ENDBRANCH  29  32
ENDBRANCH  28  29
ENDBRANCH  23  28
ENDBRANCH  22  23
ENDBRANCH   1  22
TORSDOF 12
