REMARK  Name = ZINC08598801
REMARK  12 active torsions:
REMARK  status: ('A' for Active; 'I' for Inactive)
REMARK    1  A    between atoms: C_1  and  C_2
REMARK    2  A    between atoms: C_5  and  C_36
REMARK    3  A    between atoms: C_6  and  N_8
REMARK    4  A    between atoms: C_14  and  C_16
REMARK    5  A    between atoms: C_16  and  C_18
REMARK    6  A    between atoms: C_16  and  N_22
REMARK    7  A    between atoms: C_18  and  C_19
REMARK    8  A    between atoms: C_19  and  C_20
REMARK    9  A    between atoms: C_19  and  C_21
REMARK   10  A    between atoms: N_22  and  S_23
REMARK   11  A    between atoms: S_23  and  C_26
REMARK   12  A    between atoms: C_33  and  C_35
REMARK                            x       y       z     vdW  Elec       q    Type
REMARK                         _______ _______ _______ _____ _____    ______ ____
ROOT
ATOM      1  C   UNL     1      -1.526  -3.955   7.038  0.00  0.00    +0.162 C 
ENDROOT
BRANCH   1   8
ATOM      2  N   UNL     1      -0.976  -2.075   2.521  0.00  0.00    -0.327 N 
ATOM      3  C   UNL     1       0.339  -2.653   2.832  0.00  0.00    +0.124 C 
ATOM      4  C   UNL     1       0.658  -2.380   4.307  0.00  0.00    +0.126 C 
ATOM      5  N   UNL     1      -0.501  -2.778   5.119  0.00  0.00    -0.297 N 
ATOM      6  C   UNL     1      -1.816  -2.200   4.808  0.00  0.00    +0.126 C 
ATOM      7  C   UNL     1      -2.134  -2.469   3.336  0.00  0.00    +0.124 C 
ATOM      8  C   UNL     1      -0.360  -3.657   6.131  0.00  0.00    +0.234 C 
ATOM      9  O   UNL     1       0.705  -4.208   6.311  0.00  0.00    -0.274 OA
BRANCH   2  15
ATOM     10  C   UNL     1      -0.951   2.571   0.921  0.00  0.00    +0.044 C 
ATOM     11  C   UNL     1      -1.115   1.095   0.668  0.00  0.00    -0.049 A 
ATOM     12  C   UNL     1      -1.411   0.641  -0.605  0.00  0.00    +0.004 A 
ATOM     13  C   UNL     1      -1.563  -0.713  -0.841  0.00  0.00    +0.005 A 
ATOM     14  C   UNL     1      -1.419  -1.617   0.193  0.00  0.00    -0.029 A 
ATOM     15  C   UNL     1      -1.122  -1.164   1.472  0.00  0.00    +0.033 A 
ATOM     16  C   UNL     1      -0.965   0.197   1.705  0.00  0.00    +0.026 A 
ATOM     17  C   UNL     1      -1.586  -3.092  -0.065  0.00  0.00    +0.045 C 
ENDBRANCH   2  15
ENDBRANCH   1   8
BRANCH   1  18
ATOM     18  N   UNL     1      -1.039  -4.579   8.271  0.00  0.00    -0.178 NA
ATOM     19  H   UNL     1      -0.900  -5.538   8.307  0.00  0.00    +0.149 HD
BRANCH  18  20
ATOM     20  S   UNL     1      -0.726  -3.646   9.603  0.00  0.00    +0.059 S 
ATOM     21  O   UNL     1      -0.321  -4.535  10.635  0.00  0.00    -0.153 OA
ATOM     22  O   UNL     1       0.090  -2.569   9.162  0.00  0.00    -0.153 OA
BRANCH  20  23
ATOM     23  C   UNL     1      -2.256  -2.941  10.117  0.00  0.00    +0.106 A 
ATOM     24  C   UNL     1      -2.720  -1.772   9.530  0.00  0.00    +0.030 A 
ATOM     25  C   UNL     1      -3.898  -1.204   9.905  0.00  0.00    +0.031 A 
ATOM     26  C   UNL     1      -4.689  -1.793  10.914  0.00  0.00    +0.079 A 
ATOM     27  C   UNL     1      -4.194  -2.982  11.495  0.00  0.00    +0.041 A 
ATOM     28  C   UNL     1      -3.007  -3.551  11.104  0.00  0.00    +0.045 A 
ATOM     29  S   UNL     1      -5.461  -3.369  12.675  0.00  0.00    -0.072 S 
ATOM     30  C   UNL     1      -6.478  -2.065  12.366  0.00  0.00    +0.076 A 
ATOM     31  N   UNL     1      -5.872  -1.398  11.427  0.00  0.00    -0.244 NA
ATOM     32  C   UNL     1      -7.793  -1.742  13.027  0.00  0.00    +0.073 C 
ENDBRANCH  20  23
ENDBRANCH  18  20
ENDBRANCH   1  18
BRANCH   1  33
ATOM     33  C   UNL     1      -2.491  -4.909   6.331  0.00  0.00    +0.032 C 
BRANCH  33  34
ATOM     34  C   UNL     1      -3.749  -5.086   7.184  0.00  0.00    -0.015 C 
ATOM     35  C   UNL     1      -4.786  -5.895   6.402  0.00  0.00    +0.007 C 
ATOM     36  C   UNL     1      -3.390  -5.828   8.473  0.00  0.00    +0.007 C 
ENDBRANCH  33  34
ENDBRANCH   1  33
TORSDOF 7
