REMARK  Name = ZINC67427383
REMARK  5 active torsions:
REMARK  status: ('A' for Active; 'I' for Inactive)
REMARK    1  A    between atoms: C_6  and  C_7
REMARK    2  A    between atoms: C_7  and  C_9
REMARK    3  A    between atoms: C_7  and  O_24
REMARK    4  A    between atoms: N_17  and  C_18
REMARK    5  A    between atoms: C_18  and  C_19
REMARK                            x       y       z     vdW  Elec       q    Type
REMARK                         _______ _______ _______ _____ _____    ______ ____
ROOT
ATOM      1  C   UNL     1      -1.655  -1.149   1.447  0.00  0.00    +0.025 C 
ATOM      2  C   UNL     1      -1.811   0.123   2.284  0.00  0.00    +0.025 C 
ATOM      3  C   UNL     1      -2.136  -0.260   3.731  0.00  0.00    +0.109 C 
ATOM      4  N   UNL     1      -3.317  -1.134   3.736  0.00  0.00    -0.286 N 
ATOM      5  C   UNL     1      -3.307  -2.338   2.894  0.00  0.00    +0.109 C 
ATOM      6  C   UNL     1      -2.970  -1.932   1.456  0.00  0.00    +0.025 C 
ATOM      7  C   UNL     1      -4.388  -0.837   4.498  0.00  0.00    +0.302 C 
ATOM      8  O   UNL     1      -4.349   0.110   5.259  0.00  0.00    -0.253 OA
ATOM      9  N   UNL     1      -5.502  -1.590   4.416  0.00  0.00    -0.299 N 
ATOM     10  H   UNL     1      -5.509  -2.389   3.865  0.00  0.00    +0.150 HD
ENDROOT
BRANCH   1  11
ATOM     11  C   UNL     1      -1.297  -0.771   0.008  0.00  0.00    +0.148 C 
BRANCH  11  17
ATOM     12  C   UNL     1      -0.021   1.383   0.007  0.00  0.00    +0.007 A 
ATOM     13  C   UNL     1       1.165   2.091  -0.001  0.00  0.00    +0.020 A 
ATOM     14  C   UNL     1       2.373   1.416  -0.018  0.00  0.00    +0.041 A 
ATOM     15  C   UNL     1       2.392   0.033  -0.026  0.00  0.00    +0.020 A 
ATOM     16  C   UNL     1       1.204  -0.674  -0.018  0.00  0.00    +0.007 A 
ATOM     17  C   UNL     1      -0.002   0.000  -0.001  0.00  0.00    -0.019 A 
ATOM     18 CL   UNL     1       3.864   2.304  -0.028  0.00  0.00    -0.084 Cl
ENDBRANCH  11  17
BRANCH  11  19
ATOM     19  O   UNL     1      -1.149  -1.958  -0.773  0.00  0.00    -0.387 OA
ATOM     20  H   UNL     1      -0.459  -2.556  -0.455  0.00  0.00    +0.210 HD
ENDBRANCH  11  19
ENDBRANCH   1  11
BRANCH   9  21
ATOM     21  C   UNL     1      -6.704  -1.204   5.160  0.00  0.00    +0.109 C 
BRANCH  21  22
ATOM     22  C   UNL     1      -7.817  -2.220   4.895  0.00  0.00    +0.006 C 
ATOM     23  C   UNL     1      -7.488  -3.573   5.574  0.00  0.00    +0.005 C 
ATOM     24  C   UNL     1      -8.885  -4.221   5.738  0.00  0.00    +0.000 C 
ATOM     25  C   UNL     1      -9.809  -3.042   6.102  0.00  0.00    +0.000 C 
ATOM     26  C   UNL     1      -9.130  -1.769   5.567  0.00  0.00    +0.005 C 
ENDBRANCH  21  22
ENDBRANCH   9  21
TORSDOF 5
