REMARK  Name = ZINC59795118
REMARK  8 active torsions:
REMARK  status: ('A' for Active; 'I' for Inactive)
REMARK    1  A    between atoms: C_1  and  C_2
REMARK    2  A    between atoms: C_2  and  C_3
REMARK    3  A    between atoms: C_2  and  C_4
REMARK    4  A    between atoms: C_4  and  C_5
REMARK    5  A    between atoms: C_5  and  S_6
REMARK    6  A    between atoms: S_6  and  C_7
REMARK    7  A    between atoms: C_10  and  C_13
REMARK    8  A    between atoms: N_11  and  N_12
REMARK                            x       y       z     vdW  Elec       q    Type
REMARK                         _______ _______ _______ _____ _____    ______ ____
ROOT
ATOM      1  C   UNL     1       4.694  -0.098  -2.494  0.00  0.00    +0.209 A 
ATOM      2  N   UNL     1       5.167   0.581  -1.473  0.00  0.00    -0.121 NA
ATOM      3  N   UNL     1       6.416   0.826  -1.646  0.00  0.00    -0.127 NA
ATOM      4  C   UNL     1       6.818   0.319  -2.788  0.00  0.00    +0.182 A 
ATOM      5  N   UNL     1       5.729  -0.292  -3.364  0.00  0.00    -0.224 N 
ENDROOT
BRANCH   4   6
ATOM      6  C   UNL     1       8.185   0.388  -3.347  0.00  0.00    +0.021 A 
ATOM      7  C   UNL     1       8.407   0.094  -4.694  0.00  0.00    +0.013 A 
ATOM      8  C   UNL     1       9.684   0.159  -5.210  0.00  0.00    +0.021 A 
ATOM      9  C   UNL     1      10.746   0.516  -4.395  0.00  0.00    +0.041 A 
ATOM     10  C   UNL     1      10.532   0.808  -3.058  0.00  0.00    +0.021 A 
ATOM     11  C   UNL     1       9.258   0.752  -2.533  0.00  0.00    +0.013 A 
ATOM     12 CL   UNL     1      12.351   0.597  -5.052  0.00  0.00    -0.084 Cl
ENDBRANCH   4   6
BRANCH   5  13
ATOM     13  N   UNL     1       5.690  -0.955  -4.559  0.00  0.00    -0.295 N 
ATOM     14  H   UNL     1       5.462  -0.325  -5.314  0.00  0.00    +0.163 HD
ATOM     15  H   UNL     1       6.561  -1.432  -4.736  0.00  0.00    +0.163 HD
ENDBRANCH   5  13
BRANCH   1  16
ATOM     16  S   UNL     1       3.036  -0.658  -2.700  0.00  0.00    -0.084 S 
BRANCH  16  17
ATOM     17  C   UNL     1       2.187  -0.073  -1.207  0.00  0.00    +0.078 C 
BRANCH  17  18
ATOM     18  C   UNL     1       0.718  -0.497  -1.257  0.00  0.00    +0.014 C 
BRANCH  18  20
ATOM     19  C   UNL     1      -0.019   1.526   0.010  0.00  0.00    +0.007 C 
ATOM     20  C   UNL     1       0.002  -0.004   0.002  0.00  0.00    -0.016 C 
ATOM     21  C   UNL     1      -1.433  -0.534   0.013  0.00  0.00    +0.007 C 
ENDBRANCH  18  20
ENDBRANCH  17  18
ENDBRANCH  16  17
ENDBRANCH   1  16
TORSDOF 6
