REMARK  Name = ZINC09546820
REMARK  6 active torsions:
REMARK  status: ('A' for Active; 'I' for Inactive)
REMARK    1  A    between atoms: C_1  and  C_2
REMARK    2  A    between atoms: C_2  and  N_3
REMARK    3  A    between atoms: N_3  and  C_4
REMARK    4  A    between atoms: C_12  and  C_14
REMARK    5  A    between atoms: C_14  and  C_16
REMARK    6  A    between atoms: C_14  and  C_17
REMARK                            x       y       z     vdW  Elec       q    Type
REMARK                         _______ _______ _______ _____ _____    ______ ____
ROOT
ATOM      1  C   UNL     1      -1.682   7.766  -0.187  0.00  0.00    -0.034 A 
ATOM      2  C   UNL     1      -0.307   7.596  -0.241  0.00  0.00    +0.005 A 
ATOM      3  C   UNL     1       0.231   6.335  -0.390  0.00  0.00    +0.011 A 
ATOM      4  C   UNL     1      -0.613   5.231  -0.486  0.00  0.00    +0.007 A 
ATOM      5  C   UNL     1      -0.374   3.784  -0.647  0.00  0.00    +0.009 A 
ATOM      6  C   UNL     1       0.778   3.010  -0.760  0.00  0.00    +0.030 A 
ATOM      7  C   UNL     1       0.673   1.643  -0.904  0.00  0.00    +0.042 A 
ATOM      8  C   UNL     1      -0.575   1.038  -0.937  0.00  0.00    +0.022 A 
ATOM      9  C   UNL     1      -1.723   1.794  -0.832  0.00  0.00    +0.027 A 
ATOM     10  C   UNL     1      -1.637   3.174  -0.680  0.00  0.00    +0.048 A 
ATOM     11  N   UNL     1      -2.601   4.159  -0.549  0.00  0.00    -0.354 N 
ATOM     12  H   UNL     1      -3.558   4.001  -0.542  0.00  0.00    +0.166 HD
ATOM     13  C   UNL     1      -2.004   5.402  -0.432  0.00  0.00    +0.048 A 
ATOM     14  C   UNL     1      -2.527   6.682  -0.281  0.00  0.00    +0.030 A 
ATOM     15 CL   UNL     1       2.107   0.675  -1.045  0.00  0.00    -0.084 Cl
ENDROOT
BRANCH   1  16
ATOM     16  C   UNL     1      -2.257   9.150  -0.024  0.00  0.00    +0.102 C 
ATOM     17  C   UNL     1      -1.752   9.761   1.285  0.00  0.00    +0.022 C 
BRANCH  16  19
ATOM     18  N   UNL     1      -2.363  11.237  -1.347  0.00  0.00    -0.297 N 
ATOM     19  C   UNL     1      -1.823  10.013  -1.180  0.00  0.00    +0.223 C 
ATOM     20  O   UNL     1      -0.990   9.607  -1.962  0.00  0.00    -0.275 OA
BRANCH  18  21
ATOM     21  C   UNL     1      -3.281  11.776  -0.340  0.00  0.00    +0.098 C 
ATOM     22  C   UNL     1      -4.655  12.040  -0.979  0.00  0.00    +0.046 C 
ATOM     23  C   UNL     1      -5.524  12.896  -0.027  0.00  0.00    +0.168 C 
ATOM     24  S   UNL     1      -4.268  13.851   0.917  0.00  0.00    -0.029 S 
ATOM     25  O   UNL     1      -4.352  13.495   2.290  0.00  0.00    -0.174 OA
ATOM     26  O   UNL     1      -4.350  15.220   0.543  0.00  0.00    -0.174 OA
ATOM     27  C   UNL     1      -2.732  13.126   0.203  0.00  0.00    +0.188 C 
ENDBRANCH  18  21
BRANCH  18  29
ATOM     28  C   UNL     1      -2.943  11.620  -3.692  0.00  0.00    +0.024 C 
ATOM     29  C   UNL     1      -2.031  12.029  -2.534  0.00  0.00    +0.105 C 
ENDBRANCH  18  29
ENDBRANCH  16  19
ENDBRANCH   1  16
TORSDOF 4
