REMARK  Name = ZINC07747963
REMARK  6 active torsions:
REMARK  status: ('A' for Active; 'I' for Inactive)
REMARK    1  A    between atoms: C_1  and  C_2
REMARK    2  A    between atoms: C_3  and  C_17
REMARK    3  A    between atoms: C_4  and  C_11
REMARK    4  A    between atoms: N_9  and  C_10
REMARK    5  A    between atoms: C_17  and  O_19
REMARK    6  A    between atoms: O_19  and  C_20
REMARK                            x       y       z     vdW  Elec       q    Type
REMARK                         _______ _______ _______ _____ _____    ______ ____
ROOT
ATOM      1  C   UNL     1       2.535   6.818  -2.937  0.00  0.00    +0.061 C 
ATOM      2  C   UNL     1       2.356   6.175  -1.586  0.00  0.00    +0.024 C 
ATOM      3  C   UNL     1       1.112   5.878  -1.152  0.00  0.00    +0.079 C 
ATOM      4  C   UNL     1       0.976   5.232   0.212  0.00  0.00    +0.150 C 
ATOM      5  N   UNL     1       2.221   4.980   0.957  0.00  0.00    -0.287 N 
ATOM      6  C   UNL     1       3.391   5.333   0.390  0.00  0.00    +0.307 C 
ATOM      7  O   UNL     1       4.424   5.129   0.997  0.00  0.00    -0.252 OA
ATOM      8  N   UNL     1       3.453   5.902  -0.820  0.00  0.00    -0.262 N 
ATOM      9  C   UNL     1       4.772   6.252  -1.353  0.00  0.00    +0.139 C 
ATOM     10  H   UNL     1       2.199   4.569   1.836  0.00  0.00    +0.151 HD
ENDROOT
BRANCH   4  11
ATOM     11  C   UNL     1       0.267   3.914   0.033  0.00  0.00    +0.016 A 
ATOM     12  C   UNL     1      -1.038   3.611   0.246  0.00  0.00    +0.028 A 
ATOM     13  C   UNL     1      -1.474   2.321   0.009  0.00  0.00    +0.025 A 
ATOM     14  C   UNL     1      -0.581   1.394  -0.420  0.00  0.00    +0.060 A 
ATOM     15  S   UNL     1       0.925   2.347  -0.512  0.00  0.00    -0.098 S 
ATOM     16 BR   UNL     1      -3.285   1.854   0.282  0.00  0.00    -0.050 Br
ENDBRANCH   4  11
BRANCH   3  17
ATOM     17  C   UNL     1      -0.026   6.159  -1.944  0.00  0.00    +0.339 C 
ATOM     18  O   UNL     1       0.105   6.703  -3.025  0.00  0.00    -0.245 OA
BRANCH  17  19
ATOM     19  O   UNL     1      -1.256   5.825  -1.502  0.00  0.00    -0.465 OA
ATOM     20  C   UNL     1      -2.360   6.139  -2.353  0.00  0.00    +0.280 C 
ENDBRANCH  17  19
ENDBRANCH   3  17
TORSDOF 3
