REMARK  Name = ZINC09387145
REMARK  14 active torsions:
REMARK  status: ('A' for Active; 'I' for Inactive)
REMARK    1  A    between atoms: C_1  and  C_2
REMARK    2  A    between atoms: C_2  and  N_62
REMARK    3  A    between atoms: C_3  and  C_4
REMARK    4  A    between atoms: C_3  and  N_62
REMARK    5  A    between atoms: C_5  and  C_6
REMARK    6  A    between atoms: C_5  and  N_62
REMARK    7  A    between atoms: C_6  and  N_7
REMARK    8  A    between atoms: C_11  and  O_19
REMARK    9  A    between atoms: C_14  and  O_17
REMARK   10  A    between atoms: O_17  and  C_18
REMARK   11  A    between atoms: O_19  and  C_20
REMARK   12  A    between atoms: C_21  and  C_23
REMARK   13  A    between atoms: C_23  and  S_24
REMARK   14  A    between atoms: S_24  and  C_27
REMARK                            x       y       z     vdW  Elec       q    Type
REMARK                         _______ _______ _______ _____ _____    ______ ____
ROOT
ATOM      1  N   UNL     1       4.936   5.511   0.138  0.00  0.00    -0.251 N 
ATOM      2  C   UNL     1       3.724   4.851   0.268  0.00  0.00    +0.168 A 
ATOM      3  N   UNL     1       3.490   3.561   0.325  0.00  0.00    -0.221 NA
ATOM      4  C   UNL     1       2.245   3.054   0.453  0.00  0.00    +0.125 A 
ATOM      5  C   UNL     1       1.858   1.690   0.528  0.00  0.00    +0.147 A 
ATOM      6  C   UNL     1       0.536   1.342   0.658  0.00  0.00    +0.051 A 
ATOM      7  C   UNL     1      -0.465   2.302   0.721  0.00  0.00    +0.050 A 
ATOM      8  C   UNL     1      -0.122   3.643   0.651  0.00  0.00    +0.136 A 
ATOM      9  C   UNL     1       1.202   4.002   0.521  0.00  0.00    +0.086 A 
ATOM     10  S   UNL     1       2.080   5.541   0.397  0.00  0.00    -0.048 S 
ATOM     11  C   UNL     1       4.970   6.857   0.095  0.00  0.00    +0.243 C 
ATOM     12  O   UNL     1       3.939   7.492   0.171  0.00  0.00    -0.273 OA
ENDROOT
BRANCH   8  13
ATOM     13  O   UNL     1      -1.088   4.600   0.706  0.00  0.00    -0.494 OA
ATOM     14  C   UNL     1      -2.439   4.152   0.836  0.00  0.00    +0.277 C 
ENDBRANCH   8  13
BRANCH   5  15
ATOM     15  O   UNL     1       2.808   0.718   0.469  0.00  0.00    -0.493 OA
ATOM     16  C   UNL     1       2.356  -0.635   0.548  0.00  0.00    +0.277 C 
ENDBRANCH   5  15
BRANCH   1  17
ATOM     17  C   UNL     1       6.181   4.744   0.047  0.00  0.00    +0.097 C 
BRANCH  17  18
ATOM     18  C   UNL     1       6.484   4.435  -1.421  0.00  0.00    -0.059 C 
BRANCH  18  19
ATOM     19  N   UNL     1       7.753   3.680  -1.497  0.00  0.00    +0.380 N 
ATOM     20  H   UNL     1       8.475   4.188  -0.973  0.00  0.00    -0.082 HD
BRANCH  19  22
ATOM     21  C   UNL     1       6.493   1.558  -1.641  0.00  0.00    -0.017 C 
ATOM     22  C   UNL     1       7.580   2.339  -0.899  0.00  0.00    -0.082 C 
ENDBRANCH  19  22
BRANCH  19  23
ATOM     23  C   UNL     1       8.181   3.554  -2.906  0.00  0.00    -0.082 C 
ATOM     24  C   UNL     1       9.644   3.106  -2.936  0.00  0.00    -0.017 C 
ENDBRANCH  19  23
ENDBRANCH  18  19
ENDBRANCH  17  18
ENDBRANCH   1  17
BRANCH  11  25
ATOM     25  C   UNL     1       6.288   7.574  -0.046  0.00  0.00    +0.267 C 
BRANCH  25  26
ATOM     26  S   UNL     1       6.002   9.366  -0.072  0.00  0.00    +0.005 S 
ATOM     27  O   UNL     1       5.316   9.734  -1.261  0.00  0.00    -0.169 OA
ATOM     28  O   UNL     1       5.540   9.806   1.197  0.00  0.00    -0.169 OA
BRANCH  26  29
ATOM     29  C   UNL     1       7.605  10.078  -0.239  0.00  0.00    +0.089 A 
ATOM     30  C   UNL     1       8.339  10.397   0.888  0.00  0.00    +0.030 A 
ATOM     31  C   UNL     1       9.599  10.951   0.758  0.00  0.00    +0.040 A 
ATOM     32  C   UNL     1      10.121  11.196  -0.500  0.00  0.00    +0.124 A 
ATOM     33  C   UNL     1       9.382  10.880  -1.628  0.00  0.00    +0.040 A 
ATOM     34  C   UNL     1       8.125  10.322  -1.496  0.00  0.00    +0.030 A 
ATOM     35  F   UNL     1      11.350  11.742  -0.628  0.00  0.00    -0.205 F 
ENDBRANCH  26  29
ENDBRANCH  25  26
ENDBRANCH  11  25
TORSDOF 10
