REMARK  Name = ZINC66783466
REMARK  7 active torsions:
REMARK  status: ('A' for Active; 'I' for Inactive)
REMARK    1  A    between atoms: C_1  and  C_2
REMARK    2  A    between atoms: C_6  and  C_7
REMARK    3  A    between atoms: N_9  and  N_10
REMARK    4  A    between atoms: C_11  and  C_13
REMARK    5  A    between atoms: C_13  and  C_15
REMARK    6  A    between atoms: C_13  and  N_26
REMARK    7  A    between atoms: C_15  and  C_16
REMARK                            x       y       z     vdW  Elec       q    Type
REMARK                         _______ _______ _______ _____ _____    ______ ____
ROOT
ATOM      1  C   UNL     1       0.088  -1.147   7.338  0.00  0.00    +0.166 C 
ENDROOT
BRANCH   1   2
ATOM      2  N   UNL     1      -0.361  -2.229   8.217  0.00  0.00    -0.288 N 
ATOM      3  C   UNL     1       0.321  -3.391   8.259  0.00  0.00    +0.298 C 
ATOM      4  O   UNL     1       1.309  -3.541   7.567  0.00  0.00    -0.253 OA
ATOM      5  N   UNL     1      -0.093  -4.386   9.068  0.00  0.00    -0.313 N 
ATOM      6  H   UNL     1      -1.150  -2.110   8.770  0.00  0.00    +0.151 HD
ATOM      7  H   UNL     1      -0.881  -4.267   9.620  0.00  0.00    +0.146 HD
ATOM      8  H   UNL     1       0.398  -5.223   9.098  0.00  0.00    +0.146 HD
ENDBRANCH   1   2
BRANCH   1  10
ATOM      9  N   UNL     1       0.059  -0.732   4.900  0.00  0.00    -0.233 N 
ATOM     10  C   UNL     1       0.081  -1.625   5.909  0.00  0.00    +0.250 C 
ATOM     11  O   UNL     1       0.094  -2.813   5.667  0.00  0.00    -0.272 OA
ATOM     12  H   UNL     1       0.048   0.219   5.094  0.00  0.00    +0.173 HD
BRANCH   9  15
ATOM     13  C   UNL     1       0.031  -0.283   2.562  0.00  0.00    +0.267 C 
ATOM     14  O   UNL     1       0.017   0.910   2.805  0.00  0.00    -0.268 OA
ATOM     15  N   UNL     1       0.052  -1.176   3.571  0.00  0.00    -0.230 N 
ATOM     16  H   UNL     1       0.063  -2.126   3.378  0.00  0.00    +0.173 HD
BRANCH  13  22
ATOM     17  C   UNL     1      -0.018   1.503   0.010  0.00  0.00    +0.045 C 
ATOM     18  C   UNL     1       0.002  -0.004   0.002  0.00  0.00    -0.031 A 
ATOM     19  C   UNL     1       0.007  -0.729  -1.166  0.00  0.00    +0.011 A 
ATOM     20  C   UNL     1       0.025  -2.083  -1.101  0.00  0.00    +0.046 A 
ATOM     21  S   UNL     1       0.037  -2.416   0.545  0.00  0.00    -0.092 S 
ATOM     22  C   UNL     1       0.023  -0.748   1.172  0.00  0.00    +0.078 A 
ENDBRANCH  13  22
ENDBRANCH   9  15
ENDBRANCH   1  10
BRANCH   1  23
ATOM     23  C   UNL     1       1.507  -0.729   7.729  0.00  0.00    +0.069 C 
BRANCH  23  24
ATOM     24  C   UNL     1       1.493  -0.137   9.115  0.00  0.00    -0.020 A 
ATOM     25  C   UNL     1       1.400   1.166   9.426  0.00  0.00    +0.087 A 
ATOM     26  N   UNL     1       1.419   1.323  10.785  0.00  0.00    -0.360 N 
ATOM     27  H   UNL     1       1.364   2.174  11.248  0.00  0.00    +0.165 HD
ATOM     28  C   UNL     1       1.527   0.095  11.397  0.00  0.00    +0.047 A 
ATOM     29  C   UNL     1       1.571  -0.874  10.378  0.00  0.00    +0.003 A 
ATOM     30  C   UNL     1       1.675  -2.227  10.707  0.00  0.00    +0.010 A 
ATOM     31  C   UNL     1       1.729  -2.603  12.020  0.00  0.00    +0.001 A 
ATOM     32  C   UNL     1       1.681  -1.651  13.029  0.00  0.00    +0.002 A 
ATOM     33  C   UNL     1       1.588  -0.310  12.726  0.00  0.00    +0.026 A 
ENDBRANCH  23  24
ENDBRANCH   1  23
TORSDOF 6
