REMARK  Name = ZINC08296397
REMARK  7 active torsions:
REMARK  status: ('A' for Active; 'I' for Inactive)
REMARK    1  A    between atoms: C_1  and  C_2
REMARK    2  A    between atoms: N_4  and  C_5
REMARK    3  A    between atoms: C_8  and  S_11
REMARK    4  A    between atoms: S_11  and  N_14
REMARK    5  A    between atoms: C_25  and  C_30
REMARK    6  A    between atoms: C_35  and  C_36
REMARK    7  A    between atoms: C_36  and  N_74
REMARK                            x       y       z     vdW  Elec       q    Type
REMARK                         _______ _______ _______ _____ _____    ______ ____
ROOT
ATOM      1  N   UNL     1       2.156   5.407   1.907  0.00  0.00    -0.176 NA
ATOM      2  C   UNL     1       3.518   5.703   1.446  0.00  0.00    +0.114 C 
ATOM      3  C   UNL     1       3.634   5.454  -0.051  0.00  0.00    +0.025 C 
ATOM      4  C   UNL     1       2.505   6.148  -0.813  0.00  0.00    +0.017 C 
ATOM      5  C   UNL     1       1.170   5.605  -0.299  0.00  0.00    +0.052 C 
ATOM      6  C   UNL     1       1.023   6.002   1.180  0.00  0.00    +0.119 C 
ATOM      7  C   UNL     1       1.171   4.095  -0.371  0.00  0.00    +0.026 A 
ATOM      8  C   UNL     1      -0.040   3.478  -0.469  0.00  0.00    +0.022 A 
ATOM      9  C   UNL     1      -0.137   2.086  -0.438  0.00  0.00    +0.015 A 
ATOM     10  C   UNL     1       1.023   1.342  -0.286  0.00  0.00    +0.047 A 
ATOM     11  C   UNL     1       2.259   2.021  -0.206  0.00  0.00    +0.259 A 
ATOM     12  O   UNL     1       3.287   1.385  -0.043  0.00  0.00    -0.267 OA
ATOM     13  N   UNL     1       2.313   3.372  -0.308  0.00  0.00    -0.311 N 
ATOM     14  C   UNL     1       3.646   3.973  -0.383  0.00  0.00    +0.130 C 
ENDROOT
BRANCH  10  15
ATOM     15  C   UNL     1       0.968  -0.137  -0.216  0.00  0.00    -0.011 A 
ATOM     16  C   UNL     1       0.819  -0.888  -1.381  0.00  0.00    +0.009 A 
ATOM     17  C   UNL     1       0.769  -2.265  -1.309  0.00  0.00    +0.001 A 
ATOM     18  C   UNL     1       0.865  -2.901  -0.084  0.00  0.00    +0.000 A 
ATOM     19  C   UNL     1       1.012  -2.160   1.076  0.00  0.00    +0.002 A 
ATOM     20  C   UNL     1       1.069  -0.783   1.016  0.00  0.00    -0.056 A 
BRANCH  20  21
ATOM     21  C   UNL     1       1.235   0.022   2.279  0.00  0.00    -0.042 C 
BRANCH  21  27
ATOM     22  C   UNL     1      -0.253  -1.294   3.666  0.00  0.00    -0.050 C 
ATOM     23  C   UNL     1      -0.301  -2.265   4.848  0.00  0.00    +0.141 C 
ATOM     24  O   UNL     1       0.263  -1.633   6.001  0.00  0.00    -0.383 OA
ATOM     25  C   UNL     1       1.616  -1.207   5.819  0.00  0.00    +0.141 C 
ATOM     26  C   UNL     1       1.684  -0.225   4.647  0.00  0.00    -0.050 C 
ATOM     27  N   UNL     1       1.151  -0.891   3.440  0.00  0.00    +0.385 N 
ATOM     28  H   UNL     1       1.712  -1.730   3.246  0.00  0.00    -0.081 HD
ENDBRANCH  21  27
ENDBRANCH  20  21
ENDBRANCH  10  15
BRANCH   1  29
ATOM     29  S   UNL     1       1.900   4.427   3.217  0.00  0.00    +0.061 S 
ATOM     30  O   UNL     1       0.551   3.986   3.137  0.00  0.00    -0.153 OA
ATOM     31  O   UNL     1       2.995   3.523   3.269  0.00  0.00    -0.153 OA
BRANCH  29  35
ATOM     32  C   UNL     1       2.192   7.027   6.914  0.00  0.00    +0.033 A 
ATOM     33  C   UNL     1       0.954   6.770   6.340  0.00  0.00    +0.025 A 
ATOM     34  C   UNL     1       0.868   5.977   5.213  0.00  0.00    +0.030 A 
ATOM     35  C   UNL     1       2.014   5.439   4.655  0.00  0.00    +0.106 A 
ATOM     36  C   UNL     1       3.248   5.688   5.228  0.00  0.00    +0.030 A 
ATOM     37  C   UNL     1       3.341   6.485   6.352  0.00  0.00    +0.025 A 
BRANCH  32  41
ATOM     38  C   UNL     1       1.338   8.756  10.147  0.00  0.00    +0.109 C 
ATOM     39  C   UNL     1       1.292   7.815   8.970  0.00  0.00    +0.214 C 
ATOM     40  O   UNL     1       0.363   7.045   8.845  0.00  0.00    -0.276 OA
ATOM     41  N   UNL     1       2.283   7.829   8.057  0.00  0.00    -0.286 N 
ATOM     42  H   UNL     1       3.058   8.396   8.191  0.00  0.00    +0.155 HD
ENDBRANCH  32  41
ENDBRANCH  29  35
ENDBRANCH   1  29
TORSDOF 6
