REMARK  Name = ZINC12485011
REMARK  12 active torsions:
REMARK  status: ('A' for Active; 'I' for Inactive)
REMARK    1  A    between atoms: C_1  and  C_2
REMARK    2  A    between atoms: C_4  and  N_12
REMARK    3  A    between atoms: C_7  and  N_8
REMARK    4  A    between atoms: C_9  and  C_11
REMARK    5  A    between atoms: C_13  and  C_15
REMARK    6  A    between atoms: C_15  and  S_16
REMARK    7  A    between atoms: S_16  and  C_17
REMARK    8  A    between atoms: C_20  and  C_23
REMARK    9  A    between atoms: N_21  and  C_22
REMARK   10  A    between atoms: C_26  and  N_29
REMARK   11  A    between atoms: N_29  and  S_30
REMARK   12  A    between atoms: S_30  and  C_33
REMARK                            x       y       z     vdW  Elec       q    Type
REMARK                         _______ _______ _______ _____ _____    ______ ____
ROOT
ATOM      1  S   UNL     1      -0.141  -5.247  -5.784  0.00  0.00    -0.077 S 
ENDROOT
BRANCH   1   2
ATOM      2  C   UNL     1      -0.096  -5.951  -7.398  0.00  0.00    +0.192 A 
ATOM      3  N   UNL     1      -0.064  -5.294  -8.535  0.00  0.00    -0.122 NA
ATOM      4  N   UNL     1      -0.036  -6.117  -9.521  0.00  0.00    -0.128 NA
ATOM      5  C   UNL     1      -0.049  -7.352  -9.074  0.00  0.00    +0.165 A 
ATOM      6  N   UNL     1      -0.082  -7.284  -7.701  0.00  0.00    -0.305 N 
ATOM      7  C   UNL     1      -0.100  -8.406  -6.759  0.00  0.00    +0.153 C 
BRANCH   5   8
ATOM      8  C   UNL     1      -0.027  -8.582  -9.893  0.00  0.00    +0.019 A 
ATOM      9  C   UNL     1      -0.413  -9.802  -9.333  0.00  0.00    +0.013 A 
ATOM     10  C   UNL     1      -0.391 -10.947 -10.099  0.00  0.00    +0.025 A 
ATOM     11  C   UNL     1       0.016 -10.890 -11.427  0.00  0.00    +0.048 A 
ATOM     12  C   UNL     1       0.401  -9.677 -11.987  0.00  0.00    +0.025 A 
ATOM     13  C   UNL     1       0.375  -8.527 -11.229  0.00  0.00    +0.013 A 
BRANCH  11  14
ATOM     14  N   UNL     1       0.038 -12.052 -12.200  0.00  0.00    -0.221 N 
ATOM     15  H   UNL     1       0.884 -12.469 -12.425  0.00  0.00    +0.173 HD
BRANCH  14  16
ATOM     16  S   UNL     1      -1.381 -12.718 -12.733  0.00  0.00    +0.040 S 
ATOM     17  O   UNL     1      -0.985 -13.832 -13.521  0.00  0.00    -0.155 OA
ATOM     18  O   UNL     1      -2.160 -12.902 -11.558  0.00  0.00    -0.155 OA
ATOM     19  C   UNL     1      -2.129 -11.444 -13.785  0.00  0.00    +0.218 C 
ENDBRANCH  14  16
ENDBRANCH  11  14
ENDBRANCH   5   8
ENDBRANCH   1   2
BRANCH   1  20
ATOM     20  C   UNL     1      -0.141  -3.458  -6.085  0.00  0.00    +0.173 C 
BRANCH  20  22
ATOM     21  N   UNL     1      -0.185  -1.379  -4.746  0.00  0.00    -0.285 N 
ATOM     22  C   UNL     1      -0.178  -2.726  -4.769  0.00  0.00    +0.227 C 
ATOM     23  O   UNL     1      -0.202  -3.350  -3.729  0.00  0.00    -0.275 OA
ATOM     24  H   UNL     1      -0.098  -0.879  -5.573  0.00  0.00    +0.155 HD
BRANCH  21  28
ATOM     25  C   UNL     1       0.702  -1.139   0.084  0.00  0.00    +0.046 C 
ATOM     26  C   UNL     1       0.102  -0.561  -1.172  0.00  0.00    -0.027 A 
ATOM     27  C   UNL     1       0.234  -1.232  -2.372  0.00  0.00    +0.028 A 
ATOM     28  C   UNL     1      -0.319  -0.699  -3.529  0.00  0.00    +0.034 A 
ATOM     29  C   UNL     1      -1.005   0.508  -3.479  0.00  0.00    +0.025 A 
ATOM     30  C   UNL     1      -1.137   1.178  -2.280  0.00  0.00    +0.025 A 
ATOM     31  C   UNL     1      -0.588   0.642  -1.121  0.00  0.00    +0.036 A 
BRANCH  31  32
ATOM     32  N   UNL     1      -0.726   1.320   0.097  0.00  0.00    -0.285 N 
ATOM     33  C   UNL     1      -0.868   2.660   0.111  0.00  0.00    +0.214 C 
ATOM     34  O   UNL     1      -0.956   3.271  -0.933  0.00  0.00    -0.276 OA
ATOM     35  C   UNL     1      -0.917   3.399   1.423  0.00  0.00    +0.109 C 
ATOM     36  H   UNL     1      -0.719   0.824   0.931  0.00  0.00    +0.155 HD
ENDBRANCH  31  32
ENDBRANCH  21  28
ENDBRANCH  20  22
ENDBRANCH   1  20
TORSDOF 8
