REMARK  Name = ZINC39926559
REMARK  6 active torsions:
REMARK  status: ('A' for Active; 'I' for Inactive)
REMARK    1  A    between atoms: C_4  and  N_7
REMARK    2  A    between atoms: C_8  and  S_24
REMARK    3  A    between atoms: S_24  and  C_25
REMARK    4  A    between atoms: C_25  and  C_26
REMARK    5  A    between atoms: N_28  and  N_29
REMARK    6  A    between atoms: C_30  and  C_31
REMARK                            x       y       z     vdW  Elec       q    Type
REMARK                         _______ _______ _______ _____ _____    ______ ____
ROOT
ATOM      1  N   UNL     1       3.622  -0.651  -0.037  0.00  0.00    -0.246 N 
ATOM      2  C   UNL     1       3.609  -2.101   0.060  0.00  0.00    +0.210 C 
ATOM      3  N   UNL     1       4.900  -2.645   0.441  0.00  0.00    -0.277 NA
ATOM      4  C   UNL     1       6.042  -2.085  -0.264  0.00  0.00    +0.135 C 
ATOM      5  C   UNL     1       6.098  -0.555  -0.141  0.00  0.00    +0.130 C 
ATOM      6  C   UNL     1       4.747   0.061  -0.148  0.00  0.00    +0.231 C 
ATOM      7  O   UNL     1       4.661   1.265  -0.265  0.00  0.00    -0.274 OA
ATOM      8  C   UNL     1       6.859  -0.109   1.079  0.00  0.00    -0.046 C 
ATOM      9  C   UNL     1       7.677  -0.991   1.642  0.00  0.00    -0.013 C 
ATOM     10  S   UNL     1       7.572  -2.512   0.674  0.00  0.00    -0.110 S 
ATOM     11  C   UNL     1       8.545  -0.775   2.850  0.00  0.00    +0.042 C 
ATOM     12  C   UNL     1       8.631   0.729   3.135  0.00  0.00    +0.005 C 
ATOM     13  C   UNL     1       7.215   1.313   3.090  0.00  0.00    +0.005 C 
ATOM     14  C   UNL     1       6.703   1.298   1.651  0.00  0.00    +0.032 C 
ATOM     15  H   UNL     1       5.032  -2.597   1.440  0.00  0.00    +0.126 HD
ENDROOT
BRANCH   1  19
ATOM     16  C   UNL     1      -0.016   1.380   0.010  0.00  0.00    +0.000 A 
ATOM     17  C   UNL     1       0.889   1.562   1.039  0.00  0.00    +0.002 A 
ATOM     18  C   UNL     1       2.096   0.891   1.026  0.00  0.00    +0.023 A 
ATOM     19  C   UNL     1       2.400   0.031  -0.021  0.00  0.00    +0.039 A 
ATOM     20  C   UNL     1       1.488  -0.151  -1.053  0.00  0.00    +0.023 A 
ATOM     21  C   UNL     1       0.283   0.524  -1.034  0.00  0.00    +0.002 A 
ENDBRANCH   1  19
BRANCH   2  22
ATOM     22  S   UNL     1       2.379  -2.594   1.299  0.00  0.00    -0.113 S 
BRANCH  22  23
ATOM     23  C   UNL     1       2.954  -1.804   2.827  0.00  0.00    +0.169 C 
BRANCH  23  24
ATOM     24  C   UNL     1       2.008  -2.138   3.952  0.00  0.00    +0.242 C 
ATOM     25  O   UNL     1       1.041  -2.840   3.743  0.00  0.00    -0.273 OA
ATOM     26  N   UNL     1       2.236  -1.656   5.190  0.00  0.00    -0.206 N 
ATOM     27  H   UNL     1       3.009  -1.095   5.357  0.00  0.00    +0.177 HD
BRANCH  26  28
ATOM     28  N   UNL     1       1.357  -1.967   6.235  0.00  0.00    -0.188 NA
ATOM     29  C   UNL     1       1.578  -1.499   7.438  0.00  0.00    +0.136 C 
BRANCH  29  30
ATOM     30  C   UNL     1       0.698  -1.810   8.484  0.00  0.00    +0.000 C 
ATOM     31  C   UNL     1       0.786  -1.392   9.810  0.00  0.00    +0.004 A 
ATOM     32  C   UNL     1       1.716  -0.580  10.496  0.00  0.00    +0.010 A 
ATOM     33  C   UNL     1       1.548  -0.335  11.820  0.00  0.00    +0.001 A 
ATOM     34  C   UNL     1       0.471  -0.869  12.533  0.00  0.00    +0.002 A 
ATOM     35  C   UNL     1      -0.459  -1.656  11.941  0.00  0.00    +0.026 A 
ATOM     36  C   UNL     1      -0.352  -1.957  10.557  0.00  0.00    +0.043 A 
ATOM     37  N   UNL     1      -1.109  -2.683   9.762  0.00  0.00    -0.380 N 
ATOM     38  C   UNL     1      -0.549  -2.663   8.408  0.00  0.00    +0.150 C 
ATOM     39  H   UNL     1      -1.914  -3.154  10.030  0.00  0.00    +0.160 HD
ENDBRANCH  29  30
ENDBRANCH  26  28
ENDBRANCH  23  24
ENDBRANCH  22  23
ENDBRANCH   2  22
TORSDOF 6
