REMARK  Name = ZINC10385038
REMARK  10 active torsions:
REMARK  status: ('A' for Active; 'I' for Inactive)
REMARK    1  A    between atoms: C_1  and  C_2
REMARK    2  A    between atoms: C_5  and  O_9
REMARK    3  A    between atoms: C_7  and  C_8
REMARK    4  A    between atoms: O_9  and  C_10
REMARK    5  A    between atoms: C_10  and  C_11
REMARK    6  A    between atoms: C_11  and  C_13
REMARK    7  A    between atoms: C_11  and  O_32
REMARK    8  A    between atoms: C_13  and  N_14
REMARK    9  A    between atoms: N_24  and  C_31
REMARK   10  A    between atoms: N_27  and  C_30
REMARK                            x       y       z     vdW  Elec       q    Type
REMARK                         _______ _______ _______ _____ _____    ______ ____
ROOT
ATOM      1  N   UNL     1      -1.598  -1.832   0.001  0.00  0.00    -0.304 N 
ATOM      2  C   UNL     1      -2.977  -1.913   0.139  0.00  0.00    +0.153 A 
ATOM      3  C   UNL     1      -3.433  -0.608   0.293  0.00  0.00    +0.170 A 
ATOM      4  N   UNL     1      -2.369   0.197   0.252  0.00  0.00    -0.196 NA
ATOM      5  C   UNL     1      -1.274  -0.514   0.074  0.00  0.00    +0.201 A 
ATOM      6  N   UNL     1       0.000  -0.002  -0.018  0.00  0.00    -0.305 N 
ATOM      7  C   UNL     1       0.166   1.158   0.868  0.00  0.00    +0.089 C 
ATOM      8  C   UNL     1       1.615   1.648   0.797  0.00  0.00    -0.063 C 
ATOM      9  C   UNL     1       1.777   0.837  -1.478  0.00  0.00    -0.063 C 
ATOM     10  C   UNL     1       0.328   0.347  -1.407  0.00  0.00    +0.089 C 
ATOM     11  N   UNL     1      -4.791  -0.389   0.453  0.00  0.00    -0.280 N 
ATOM     12  C   UNL     1      -5.646  -1.430   0.458  0.00  0.00    +0.333 A 
ATOM     13  O   UNL     1      -6.835  -1.220   0.599  0.00  0.00    -0.246 OA
ATOM     14  N   UNL     1      -5.216  -2.695   0.311  0.00  0.00    -0.262 N 
ATOM     15  C   UNL     1      -3.905  -2.970   0.151  0.00  0.00    +0.282 A 
ATOM     16  O   UNL     1      -3.529  -4.121   0.018  0.00  0.00    -0.265 OA
ATOM     17  C   UNL     1      -6.187  -3.792   0.323  0.00  0.00    +0.157 C 
ATOM     18  C   UNL     1      -5.299   0.975   0.617  0.00  0.00    +0.155 C 
ATOM     19  N   UNL     1       1.946   2.007  -0.595  0.00  0.00    +0.381 N 
ATOM     20  H   UNL     1       2.920   2.327  -0.640  0.00  0.00    -0.086 HD
ATOM     21  H   UNL     1       1.323   2.760  -0.908  0.00  0.00    -0.086 HD
ENDROOT
BRANCH   1  22
ATOM     22  C   UNL     1      -0.671  -2.951  -0.187  0.00  0.00    +0.160 C 
BRANCH  22  23
ATOM     23  C   UNL     1      -0.304  -3.544   1.174  0.00  0.00    +0.172 C 
BRANCH  23  24
ATOM     24  O   UNL     1       0.421  -2.577   1.935  0.00  0.00    -0.387 OA
ATOM     25  H   UNL     1       1.244  -2.286   1.520  0.00  0.00    +0.210 HD
ENDBRANCH  23  24
BRANCH  23  26
ATOM     26  C   UNL     1       0.563  -4.788   0.972  0.00  0.00    +0.262 C 
BRANCH  26  27
ATOM     27  O   UNL     1       0.809  -5.409   2.236  0.00  0.00    -0.489 OA
BRANCH  27  32
ATOM     28  C   UNL     1       3.961 -10.077   2.223  0.00  0.00    +0.044 C 
ATOM     29  C   UNL     1       3.117  -8.828   2.226  0.00  0.00    -0.047 A 
ATOM     30  C   UNL     1       2.842  -8.178   1.037  0.00  0.00    +0.007 A 
ATOM     31  C   UNL     1       2.064  -7.036   1.037  0.00  0.00    +0.046 A 
ATOM     32  C   UNL     1       1.569  -6.535   2.232  0.00  0.00    +0.121 A 
ATOM     33  C   UNL     1       1.848  -7.189   3.424  0.00  0.00    +0.049 A 
ATOM     34  C   UNL     1       2.621  -8.333   3.418  0.00  0.00    -0.044 A 
ATOM     35  C   UNL     1       2.924  -9.044   4.712  0.00  0.00    +0.044 C 
ENDBRANCH  27  32
ENDBRANCH  26  27
ENDBRANCH  23  26
ENDBRANCH  22  23
ENDBRANCH   1  22
TORSDOF 6
