REMARK  Name = ZINC35908021
REMARK  8 active torsions:
REMARK  status: ('A' for Active; 'I' for Inactive)
REMARK    1  A    between atoms: C_1  and  C_2
REMARK    2  A    between atoms: C_2  and  C_3
REMARK    3  A    between atoms: C_2  and  C_4
REMARK    4  A    between atoms: C_4  and  N_5
REMARK    5  A    between atoms: C_6  and  C_8
REMARK    6  A    between atoms: C_13  and  C_32
REMARK    7  A    between atoms: N_21  and  C_24
REMARK    8  A    between atoms: C_29  and  C_30
REMARK                            x       y       z     vdW  Elec       q    Type
REMARK                         _______ _______ _______ _____ _____    ______ ____
ROOT
ATOM      1  C   UNL     1      -4.078  -0.112  -2.723  0.00  0.00    +0.101 C 
ATOM      2  C   UNL     1      -4.093   1.411  -2.840  0.00  0.00    +0.051 C 
ATOM      3  C   UNL     1      -4.911   1.976  -1.708  0.00  0.00    -0.025 A 
ATOM      4  C   UNL     1      -4.619   3.235  -1.216  0.00  0.00    +0.017 A 
ATOM      5  C   UNL     1      -5.357   3.757  -0.170  0.00  0.00    +0.055 A 
ATOM      6  C   UNL     1      -6.388   3.022   0.386  0.00  0.00    +0.014 A 
ATOM      7  C   UNL     1      -6.685   1.767  -0.105  0.00  0.00    +0.024 A 
ATOM      8  C   UNL     1      -5.947   1.241  -1.162  0.00  0.00    +0.033 A 
ATOM      9  N   UNL     1      -6.292  -0.029  -1.655  0.00  0.00    -0.323 N 
ATOM     10  C   UNL     1      -5.513  -0.647  -2.712  0.00  0.00    +0.103 C 
ATOM     11  C   UNL     1      -5.458  -2.163  -2.610  0.00  0.00    +0.128 C 
ATOM     12  N   UNL     1      -6.665  -2.738  -2.051  0.00  0.00    -0.326 N 
ATOM     13  C   UNL     1      -7.370  -2.141  -0.929  0.00  0.00    +0.124 C 
ATOM     14  C   UNL     1      -7.490  -0.645  -1.089  0.00  0.00    +0.124 C 
ENDROOT
BRANCH  12  15
ATOM     15  C   UNL     1      -7.170  -3.907  -2.611  0.00  0.00    +0.047 A 
ATOM     16  C   UNL     1      -6.765  -5.144  -2.127  0.00  0.00    +0.024 A 
ATOM     17  C   UNL     1      -7.267  -6.303  -2.684  0.00  0.00    +0.002 A 
ATOM     18  C   UNL     1      -8.175  -6.242  -3.728  0.00  0.00    +0.001 A 
ATOM     19  C   UNL     1      -8.589  -5.024  -4.222  0.00  0.00    +0.021 A 
ATOM     20  C   UNL     1      -8.095  -3.842  -3.664  0.00  0.00    +0.073 A 
BRANCH  20  21
ATOM     21  C   UNL     1      -8.525  -2.573  -4.168  0.00  0.00    +0.101 C 
ATOM     22  N   UNL     1      -8.867  -1.566  -4.569  0.00  0.00    -0.191 NA
ENDBRANCH  20  21
ENDBRANCH  12  15
BRANCH   1  24
ATOM     23  N   UNL     1      -2.105  -0.148  -1.230  0.00  0.00    -0.315 N 
ATOM     24  C   UNL     1      -3.387  -0.508  -1.443  0.00  0.00    +0.218 C 
ATOM     25  O   UNL     1      -3.983  -1.151  -0.606  0.00  0.00    -0.275 OA
ATOM     26  H   UNL     1      -1.628   0.366  -1.901  0.00  0.00    +0.149 HD
BRANCH  23  27
ATOM     27  C   UNL     1      -1.433  -0.534   0.013  0.00  0.00    +0.107 C 
BRANCH  27  29
ATOM     28  C   UNL     1      -0.019   1.526   0.010  0.00  0.00    +0.009 C 
ATOM     29  C   UNL     1       0.002  -0.004   0.002  0.00  0.00    -0.000 C 
ATOM     30  C   UNL     1       0.742  -0.511   1.242  0.00  0.00    +0.009 C 
ENDBRANCH  27  29
ENDBRANCH  23  27
ENDBRANCH   1  24
BRANCH   5  31
ATOM     31  C   UNL     1      -5.037   5.129   0.365  0.00  0.00    +0.417 C 
ATOM     32  F   UNL     1      -5.783   6.087  -0.332  0.00  0.00    -0.166 F 
ATOM     33  F   UNL     1      -5.360   5.186   1.725  0.00  0.00    -0.166 F 
ATOM     34  F   UNL     1      -3.673   5.389   0.198  0.00  0.00    -0.166 F 
ENDBRANCH   5  31
TORSDOF 6
