REMARK  Name = ZINC04836801
REMARK  8 active torsions:
REMARK  status: ('A' for Active; 'I' for Inactive)
REMARK    1  A    between atoms: C_1  and  C_2
REMARK    2  A    between atoms: C_2  and  C_3
REMARK    3  A    between atoms: C_3  and  C_4
REMARK    4  A    between atoms: C_6  and  C_27
REMARK    5  A    between atoms: C_8  and  C_21
REMARK    6  A    between atoms: C_11  and  C_12
REMARK    7  A    between atoms: C_11  and  O_20
REMARK    8  A    between atoms: C_13  and  C_14
REMARK                            x       y       z     vdW  Elec       q    Type
REMARK                         _______ _______ _______ _____ _____    ______ ____
ROOT
ATOM      1  C   UNL     1      -0.284   5.651  -1.247  0.00  0.00    +0.023 C 
ATOM      2  C   UNL     1       0.250   5.198   0.114  0.00  0.00    -0.033 C 
ATOM      3  C   UNL     1      -1.038   6.907   1.252  0.00  0.00    -0.036 C 
ATOM      4  C   UNL     1      -1.610   7.410  -0.076  0.00  0.00    +0.037 C 
ATOM      5  C   UNL     1      -0.598   7.149  -1.194  0.00  0.00    +0.127 C 
ATOM      6  N   UNL     1      -0.761   5.461   1.156  0.00  0.00    +0.388 N 
ATOM      7  H   UNL     1      -0.409   5.123   2.060  0.00  0.00    -0.084 HD
ATOM      8  H   UNL     1      -1.628   4.965   0.920  0.00  0.00    -0.084 HD
ENDROOT
BRANCH   3   9
ATOM      9  C   UNL     1      -2.040   7.144   2.352  0.00  0.00    -0.061 A 
ATOM     10  C   UNL     1      -3.105   6.279   2.516  0.00  0.00    +0.002 A 
ATOM     11  C   UNL     1      -4.021   6.494   3.529  0.00  0.00    +0.000 A 
ATOM     12  C   UNL     1      -3.877   7.580   4.371  0.00  0.00    +0.000 A 
ATOM     13  C   UNL     1      -2.815   8.449   4.204  0.00  0.00    +0.000 A 
ATOM     14  C   UNL     1      -1.896   8.231   3.195  0.00  0.00    +0.002 A 
ENDBRANCH   3   9
BRANCH   2  15
ATOM     15  C   UNL     1       0.541   3.720   0.072  0.00  0.00    -0.061 A 
ATOM     16  C   UNL     1       1.839   3.276  -0.104  0.00  0.00    +0.002 A 
ATOM     17  C   UNL     1       2.106   1.921  -0.143  0.00  0.00    +0.000 A 
ATOM     18  C   UNL     1       1.077   1.009  -0.005  0.00  0.00    +0.000 A 
ATOM     19  C   UNL     1      -0.221   1.452   0.166  0.00  0.00    +0.000 A 
ATOM     20  C   UNL     1      -0.488   2.808   0.210  0.00  0.00    +0.002 A 
ENDBRANCH   2  15
BRANCH   5  21
ATOM     21  C   UNL     1      -1.166   7.578  -2.482  0.00  0.00    -0.062 C 
ATOM     22  C   UNL     1      -1.619   7.920  -3.510  0.00  0.00    -0.063 C 
BRANCH  22  23
ATOM     23  C   UNL     1      -2.172   8.338  -4.763  0.00  0.00    +0.025 A 
ATOM     24  C   UNL     1      -2.340   7.417  -5.797  0.00  0.00    +0.017 A 
ATOM     25  C   UNL     1      -2.877   7.824  -7.000  0.00  0.00    +0.001 A 
ATOM     26  C   UNL     1      -3.240   9.146  -7.187  0.00  0.00    +0.000 A 
ATOM     27  C   UNL     1      -3.071  10.066  -6.167  0.00  0.00    +0.001 A 
ATOM     28  C   UNL     1      -2.540   9.670  -4.957  0.00  0.00    +0.017 A 
ENDBRANCH  22  23
ENDBRANCH   5  21
BRANCH   5  29
ATOM     29  O   UNL     1       0.603   7.879  -0.934  0.00  0.00    -0.376 OA
ATOM     30  H   UNL     1       0.478   8.837  -0.887  0.00  0.00    +0.211 HD
ENDBRANCH   5  29
BRANCH   1  31
ATOM     31  C   UNL     1       0.772   5.387  -2.323  0.00  0.00    +0.006 C 
BRANCH  31  33
ATOM     32  C   UNL     1       3.184   5.657  -2.915  0.00  0.00    +0.004 C 
ATOM     33  C   UNL     1       2.096   6.030  -1.906  0.00  0.00    -0.003 C 
ENDBRANCH  31  33
ENDBRANCH   1  31
TORSDOF 7
