REMARK  Name = ZINC35641535
REMARK  12 active torsions:
REMARK  status: ('A' for Active; 'I' for Inactive)
REMARK    1  A    between atoms: C_1  and  C_2
REMARK    2  A    between atoms: C_2  and  O_3
REMARK    3  A    between atoms: O_3  and  C_4
REMARK    4  A    between atoms: C_4  and  C_6
REMARK    5  A    between atoms: C_7  and  C_24
REMARK    6  A    between atoms: N_8  and  C_21
REMARK    7  A    between atoms: C_12  and  C_14
REMARK    8  A    between atoms: C_21  and  C_22
REMARK    9  A    between atoms: C_24  and  N_25
REMARK   10  A    between atoms: N_25  and  C_26
REMARK   11  A    between atoms: N_25  and  C_27
REMARK   12  A    between atoms: N_30  and  C_33
REMARK                            x       y       z     vdW  Elec       q    Type
REMARK                         _______ _______ _______ _____ _____    ______ ____
ROOT
ATOM      1  C   UNL     1       1.330  -2.504  -2.543  0.00  0.00    +0.080 C 
ATOM      2  C   UNL     1       1.645  -3.817  -2.572  0.00  0.00    +0.041 C 
ATOM      3  N   UNL     1       2.500  -4.316  -3.513  0.00  0.00    -0.254 N 
ATOM      4  C   UNL     1       3.082  -3.568  -4.459  0.00  0.00    +0.307 C 
ATOM      5  O   UNL     1       3.829  -4.103  -5.254  0.00  0.00    -0.252 OA
ATOM      6  N   UNL     1       2.865  -2.242  -4.558  0.00  0.00    -0.288 N 
ATOM      7  C   UNL     1       1.953  -1.606  -3.593  0.00  0.00    +0.144 C 
ATOM      8  H   UNL     1       3.298  -1.719  -5.251  0.00  0.00    +0.151 HD
ENDROOT
BRANCH   7   9
ATOM      9  C   UNL     1       0.837  -0.950  -4.364  0.00  0.00    -0.022 A 
ATOM     10  C   UNL     1       0.183  -1.648  -5.362  0.00  0.00    +0.008 A 
ATOM     11  C   UNL     1      -0.840  -1.047  -6.070  0.00  0.00    +0.038 A 
ATOM     12  C   UNL     1      -1.212   0.255  -5.778  0.00  0.00    +0.123 A 
ATOM     13  C   UNL     1      -0.557   0.953  -4.778  0.00  0.00    +0.038 A 
ATOM     14  C   UNL     1       0.463   0.348  -4.068  0.00  0.00    +0.008 A 
ATOM     15  F   UNL     1      -2.212   0.843  -6.469  0.00  0.00    -0.205 F 
ENDBRANCH   7   9
BRANCH   1  16
ATOM     16  C   UNL     1       0.445  -1.986  -1.569  0.00  0.00    +0.339 C 
ATOM     17  O   UNL     1       0.045  -2.700  -0.669  0.00  0.00    -0.245 OA
BRANCH  16  18
ATOM     18  O   UNL     1       0.043  -0.699  -1.639  0.00  0.00    -0.462 OA
BRANCH  18  20
ATOM     19  C   UNL     1      -1.192   1.229  -0.866  0.00  0.00    +0.048 C 
ATOM     20  C   UNL     1      -0.851  -0.243  -0.622  0.00  0.00    +0.229 C 
ENDBRANCH  18  20
ENDBRANCH  16  18
ENDBRANCH   1  16
BRANCH   3  21
ATOM     21  C   UNL     1       2.797  -5.751  -3.486  0.00  0.00    +0.141 C 
BRANCH  21  22
ATOM     22  C   UNL     1       1.811  -6.484  -4.358  0.00  0.00    -0.015 C 
ATOM     23  C   UNL     1       2.236  -7.192  -5.375  0.00  0.00    +0.005 C 
ENDBRANCH  21  22
ENDBRANCH   3  21
BRANCH   2  24
ATOM     24  C   UNL     1       1.044  -4.746  -1.549  0.00  0.00    +0.136 C 
BRANCH  24  25
ATOM     25  N   UNL     1       2.002  -4.957  -0.456  0.00  0.00    -0.297 NA
ATOM     26  C   UNL     1       2.060  -3.784   0.427  0.00  0.00    +0.105 C 
BRANCH  25  27
ATOM     27  C   UNL     1       1.676  -6.172   0.303  0.00  0.00    +0.053 C 
ATOM     28  C   UNL     1       0.331  -5.988   1.010  0.00  0.00    +0.000 C 
ATOM     29  C   UNL     1       0.035  -7.225   1.862  0.00  0.00    -0.078 C 
ATOM     30  N   UNL     1       1.095  -7.400   2.861  0.00  0.00    +0.378 N 
ATOM     31  C   UNL     1       2.377  -7.648   2.190  0.00  0.00    -0.078 C 
ATOM     32  C   UNL     1       2.763  -6.428   1.351  0.00  0.00    +0.000 C 
ATOM     33  C   UNL     1       0.768  -8.542   3.726  0.00  0.00    -0.096 C 
ATOM     34  H   UNL     1       1.168  -6.565   3.423  0.00  0.00    -0.082 HD
ENDBRANCH  25  27
ENDBRANCH  24  25
ENDBRANCH   2  24
TORSDOF 9
