REMARK  Name = ZINC20417899
REMARK  8 active torsions:
REMARK  status: ('A' for Active; 'I' for Inactive)
REMARK    1  A    between atoms: C_1  and  C_2
REMARK    2  A    between atoms: C_6  and  N_9
REMARK    3  A    between atoms: C_7  and  C_8
REMARK    4  A    between atoms: N_9  and  C_10
REMARK    5  A    between atoms: C_10  and  N_12
REMARK    6  A    between atoms: N_12  and  C_13
REMARK    7  A    between atoms: C_16  and  S_19
REMARK    8  A    between atoms: S_19  and  N_22
REMARK                            x       y       z     vdW  Elec       q    Type
REMARK                         _______ _______ _______ _____ _____    ______ ____
ROOT
ATOM      1  C   UNL     1       3.803  -4.004  -2.610  0.00  0.00    +0.033 A 
ATOM      2  C   UNL     1       4.798  -3.259  -1.991  0.00  0.00    +0.025 A 
ATOM      3  C   UNL     1       4.631  -2.836  -0.686  0.00  0.00    +0.030 A 
ATOM      4  C   UNL     1       3.475  -3.154   0.003  0.00  0.00    +0.109 A 
ATOM      5  C   UNL     1       2.485  -3.901  -0.609  0.00  0.00    +0.030 A 
ATOM      6  C   UNL     1       2.643  -4.322  -1.915  0.00  0.00    +0.025 A 
ENDROOT
BRANCH   4   7
ATOM      7  S   UNL     1       3.267  -2.613   1.667  0.00  0.00    +0.075 S 
ATOM      8  O   UNL     1       4.570  -2.401   2.191  0.00  0.00    -0.150 OA
ATOM      9  O   UNL     1       2.338  -3.503   2.270  0.00  0.00    -0.150 OA
BRANCH   7  10
ATOM     10  N   UNL     1       2.532  -1.130   1.610  0.00  0.00    -0.203 N 
ATOM     11  C   UNL     1       3.336   0.101   1.590  0.00  0.00    +0.132 C 
ATOM     12  C   UNL     1       2.702   1.090   2.577  0.00  0.00    +0.025 C 
ATOM     13  C   UNL     1       1.296   1.440   2.091  0.00  0.00    +0.038 C 
ATOM     14  C   UNL     1       0.509   0.187   1.809  0.00  0.00    -0.025 A 
ATOM     15  C   UNL     1       1.137  -1.028   1.581  0.00  0.00    +0.054 A 
ATOM     16  C   UNL     1       0.381  -2.164   1.320  0.00  0.00    +0.025 A 
ATOM     17  C   UNL     1      -0.998  -2.085   1.290  0.00  0.00    +0.002 A 
ATOM     18  C   UNL     1      -1.624  -0.874   1.520  0.00  0.00    +0.000 A 
ATOM     19  C   UNL     1      -0.874   0.257   1.778  0.00  0.00    +0.005 A 
ENDBRANCH   7  10
ENDBRANCH   4   7
BRANCH   1  20
ATOM     20  N   UNL     1       3.968  -4.433  -3.931  0.00  0.00    -0.297 N 
ATOM     21  H   UNL     1       3.130  -4.366  -4.640  0.00  0.00    +0.154 HD
BRANCH  20  22
ATOM     22  C   UNL     1       5.154  -4.928  -4.335  0.00  0.00    +0.139 C 
ATOM     23  S   UNL     1       6.413  -5.169  -3.200  0.00  0.00    -0.018 S 
BRANCH  22  24
ATOM     24  N   UNL     1       5.350  -5.235  -5.633  0.00  0.00    -0.296 N 
ATOM     25  H   UNL     1       4.522  -5.141  -6.351  0.00  0.00    +0.154 HD
BRANCH  24  31
ATOM     26  C   UNL     1       8.050  -8.271  -8.400  0.00  0.00    +0.044 C 
ATOM     27  C   UNL     1       7.944  -7.142  -7.408  0.00  0.00    -0.046 A 
ATOM     28  C   UNL     1       9.090  -6.535  -6.926  0.00  0.00    +0.004 A 
ATOM     29  C   UNL     1       8.997  -5.498  -6.016  0.00  0.00    +0.002 A 
ATOM     30  C   UNL     1       7.758  -5.065  -5.585  0.00  0.00    +0.023 A 
ATOM     31  C   UNL     1       6.606  -5.671  -6.067  0.00  0.00    +0.036 A 
ATOM     32  C   UNL     1       6.703  -6.717  -6.977  0.00  0.00    -0.026 A 
ATOM     33  C   UNL     1       5.455  -7.382  -7.497  0.00  0.00    +0.046 C 
ENDBRANCH  24  31
ENDBRANCH  22  24
ENDBRANCH  20  22
ENDBRANCH   1  20
TORSDOF 6
