REMARK  Name = ZINC10886996
REMARK  9 active torsions:
REMARK  status: ('A' for Active; 'I' for Inactive)
REMARK    1  A    between atoms: C_1  and  C_2
REMARK    2  A    between atoms: C_9  and  C_11
REMARK    3  A    between atoms: C_11  and  O_12
REMARK    4  A    between atoms: O_12  and  C_13
REMARK    5  A    between atoms: C_17  and  C_19
REMARK    6  A    between atoms: N_21  and  N_22
REMARK    7  A    between atoms: C_23  and  C_25
REMARK    8  A    between atoms: C_26  and  C_36
REMARK    9  A    between atoms: C_28  and  C_30
REMARK                            x       y       z     vdW  Elec       q    Type
REMARK                         _______ _______ _______ _____ _____    ______ ____
ROOT
ATOM      1  C   UNL     1      -0.049  -5.609  -9.181  0.00  0.00    +0.260 C 
ATOM      2  O   UNL     1      -0.026  -6.591  -8.465  0.00  0.00    -0.269 OA
ATOM      3  N   UNL     1      -0.065  -5.752 -10.521  0.00  0.00    -0.230 N 
ATOM      4  H   UNL     1      -0.083  -4.968 -11.092  0.00  0.00    +0.173 HD
ENDROOT
BRANCH   1   9
ATOM      5  C   UNL     1      -0.053  -2.837  -6.641  0.00  0.00    +0.122 A 
ATOM      6  C   UNL     1      -0.079  -1.719  -7.465  0.00  0.00    +0.046 A 
ATOM      7  C   UNL     1      -0.096  -1.868  -8.839  0.00  0.00    +0.004 A 
ATOM      8  C   UNL     1      -0.086  -3.128  -9.401  0.00  0.00    +0.013 A 
ATOM      9  C   UNL     1      -0.060  -4.257  -8.582  0.00  0.00    +0.042 A 
ATOM     10  C   UNL     1      -0.037  -4.106  -7.195  0.00  0.00    +0.058 A 
BRANCH   5  11
ATOM     11  O   UNL     1      -0.036  -2.685  -5.290  0.00  0.00    -0.486 OA
BRANCH  11  12
ATOM     12  C   UNL     1      -0.047  -1.347  -4.788  0.00  0.00    +0.286 C 
BRANCH  12  21
ATOM     13  C   UNL     1      -0.018   1.503   0.010  0.00  0.00    +0.047 C 
ATOM     14  C   UNL     1       0.002  -0.004   0.002  0.00  0.00    -0.008 A 
ATOM     15  C   UNL     1       0.023  -0.697   1.172  0.00  0.00    +0.008 A 
ATOM     16  C   UNL     1       0.041  -2.102   1.149  0.00  0.00    +0.018 A 
ATOM     17  C   UNL     1       0.038  -2.763  -0.028  0.00  0.00    +0.093 A 
ATOM     18  N   UNL     1       0.018  -2.080  -1.209  0.00  0.00    -0.306 N 
ATOM     19  C   UNL     1      -0.006  -0.709  -1.218  0.00  0.00    +0.141 A 
ATOM     20  N   UNL     1      -0.029  -0.308  -2.481  0.00  0.00    -0.229 NA
ATOM     21  C   UNL     1      -0.026  -1.377  -3.281  0.00  0.00    +0.097 A 
ATOM     22  C   UNL     1       0.011  -2.489  -2.515  0.00  0.00    +0.119 A 
ENDBRANCH  12  21
ENDBRANCH  11  12
ENDBRANCH   5  11
ENDBRANCH   1   9
BRANCH   3  23
ATOM     23  N   UNL     1      -0.054  -7.033 -11.088  0.00  0.00    -0.230 N 
ATOM     24  C   UNL     1      -0.070  -7.176 -12.428  0.00  0.00    +0.269 C 
ATOM     25  O   UNL     1      -0.093  -6.193 -13.145  0.00  0.00    -0.268 OA
ATOM     26  H   UNL     1      -0.036  -7.816 -10.517  0.00  0.00    +0.173 HD
BRANCH  24  27
ATOM     27  C   UNL     1      -0.059  -8.516 -13.022  0.00  0.00    +0.098 A 
ATOM     28  C   UNL     1      -0.072  -8.895 -14.359  0.00  0.00    +0.058 A 
ATOM     29  N   UNL     1      -0.057 -10.172 -14.630  0.00  0.00    -0.243 NA
ATOM     30  C   UNL     1      -0.031 -11.085 -13.669  0.00  0.00    +0.109 A 
ATOM     31  S   UNL     1      -0.018 -10.117 -12.228  0.00  0.00    -0.062 S 
ATOM     32  C   UNL     1      -0.102  -7.866 -15.459  0.00  0.00    +0.067 C 
BRANCH  30  33
ATOM     33  C   UNL     1      -0.011 -12.558 -13.794  0.00  0.00    +0.007 A 
ATOM     34  C   UNL     1      -0.026 -13.155 -15.056  0.00  0.00    +0.010 A 
ATOM     35  C   UNL     1      -0.003 -14.530 -15.166  0.00  0.00    +0.001 A 
ATOM     36  C   UNL     1       0.024 -15.317 -14.028  0.00  0.00    +0.000 A 
ATOM     37  C   UNL     1       0.033 -14.732 -12.775  0.00  0.00    +0.001 A 
ATOM     38  C   UNL     1       0.015 -13.358 -12.651  0.00  0.00    +0.010 A 
ENDBRANCH  30  33
ENDBRANCH  24  27
ENDBRANCH   3  23
TORSDOF 7
