REMARK  Name = ZINC09356982
REMARK  6 active torsions:
REMARK  status: ('A' for Active; 'I' for Inactive)
REMARK    1  A    between atoms: C_1  and  C_2
REMARK    2  A    between atoms: C_4  and  N_37
REMARK    3  A    between atoms: C_7  and  N_8
REMARK    4  A    between atoms: C_13  and  C_29
REMARK    5  A    between atoms: C_29  and  C_30
REMARK    6  A    between atoms: C_33  and  O_36
REMARK                            x       y       z     vdW  Elec       q    Type
REMARK                         _______ _______ _______ _____ _____    ______ ____
ROOT
ATOM      1  N   UNL     1       1.067   1.996   0.003  0.00  0.00    -0.210 N 
ATOM      2  C   UNL     1      -0.014   1.208   0.009  0.00  0.00    +0.228 C 
ATOM      3  O   UNL     1       0.002  -0.004   0.002  0.00  0.00    -0.275 OA
ATOM      4  C   UNL     1      -1.260   2.065   0.019  0.00  0.00    +0.074 C 
ATOM      5  C   UNL     1      -1.993   1.914  -1.331  0.00  0.00    -0.053 C 
ATOM      6  C   UNL     1      -1.141   4.103  -1.333  0.00  0.00    +0.050 C 
ATOM      7  C   UNL     1      -0.699   3.514   0.013  0.00  0.00    +0.088 C 
ATOM      8  C   UNL     1       0.799   3.307   0.009  0.00  0.00    +0.229 C 
ATOM      9  O   UNL     1       1.629   4.191   0.013  0.00  0.00    -0.275 OA
ATOM     10  C   UNL     1      -0.108   5.037  -1.895  0.00  0.00    -0.028 A 
ATOM     11  C   UNL     1       1.213   4.886  -2.253  0.00  0.00    +0.004 A 
ATOM     12  C   UNL     1       1.921   5.963  -2.757  0.00  0.00    +0.000 A 
ATOM     13  C   UNL     1       1.300   7.191  -2.898  0.00  0.00    +0.002 A 
ATOM     14  C   UNL     1      -0.023   7.347  -2.540  0.00  0.00    +0.023 A 
ATOM     15  C   UNL     1      -0.744   6.268  -2.033  0.00  0.00    +0.036 A 
ATOM     16  N   UNL     1      -2.071   6.176  -1.609  0.00  0.00    -0.286 N 
ATOM     17  C   UNL     1      -2.384   4.937  -1.183  0.00  0.00    +0.211 C 
ATOM     18  O   UNL     1      -3.459   4.566  -0.762  0.00  0.00    -0.277 OA
ATOM     19  H   UNL     1      -2.695   6.919  -1.619  0.00  0.00    +0.155 HD
ATOM     20  N   UNL     1      -1.372   2.928  -2.185  0.00  0.00    +0.394 N 
ATOM     21  H   UNL     1      -1.998   3.170  -2.962  0.00  0.00    -0.083 HD
ATOM     22  H   UNL     1      -0.481   2.580  -2.559  0.00  0.00    -0.083 HD
ENDROOT
BRANCH   1  29
ATOM     23  C   UNL     1       2.343   1.501   2.498  0.00  0.00    +0.046 C 
ATOM     24  C   UNL     1       3.033   1.234   1.185  0.00  0.00    -0.026 A 
ATOM     25  C   UNL     1       4.321   0.734   1.169  0.00  0.00    +0.038 A 
ATOM     26  C   UNL     1       4.953   0.488  -0.035  0.00  0.00    +0.127 A 
ATOM     27  C   UNL     1       4.300   0.741  -1.227  0.00  0.00    +0.034 A 
ATOM     28  C   UNL     1       3.010   1.236  -1.218  0.00  0.00    +0.026 A 
ATOM     29  C   UNL     1       2.374   1.489  -0.010  0.00  0.00    +0.047 A 
BRANCH  26  30
ATOM     30  N   UNL     1       6.333  -0.047  -0.049  0.00  0.00    +0.056 N 
ATOM     31  O   UNL     1       6.910  -0.271   1.001  0.00  0.00    -0.126 OA
ATOM     32  O   UNL     1       6.892  -0.264  -1.109  0.00  0.00    -0.126 OA
ENDBRANCH  26  30
ENDBRANCH   1  29
BRANCH   5  33
ATOM     33  C   UNL     1      -1.789   0.506  -1.894  0.00  0.00    +0.020 C 
BRANCH  33  34
ATOM     34  C   UNL     1      -2.611   0.342  -3.146  0.00  0.00    -0.049 A 
ATOM     35  C   UNL     1      -3.907  -0.135  -3.063  0.00  0.00    +0.007 A 
ATOM     36  C   UNL     1      -4.664  -0.281  -4.209  0.00  0.00    +0.045 A 
ATOM     37  C   UNL     1      -4.121   0.040  -5.445  0.00  0.00    +0.117 A 
ATOM     38  C   UNL     1      -2.819   0.513  -5.525  0.00  0.00    +0.045 A 
ATOM     39  C   UNL     1      -2.067   0.663  -4.376  0.00  0.00    +0.007 A 
BRANCH  37  40
ATOM     40  O   UNL     1      -4.862  -0.108  -6.574  0.00  0.00    -0.507 OA
ATOM     41  H   UNL     1      -4.781  -0.979  -6.986  0.00  0.00    +0.292 HD
ENDBRANCH  37  40
ENDBRANCH  33  34
ENDBRANCH   5  33
TORSDOF 5
