REMARK  Name = ZINC38670521
REMARK  6 active torsions:
REMARK  status: ('A' for Active; 'I' for Inactive)
REMARK    1  A    between atoms: C_1  and  N_2
REMARK    2  A    between atoms: C_10  and  C_12
REMARK    3  A    between atoms: C_12  and  C_14
REMARK    4  A    between atoms: C_12  and  N_32
REMARK    5  A    between atoms: C_14  and  N_15
REMARK    6  A    between atoms: C_16  and  C_18
REMARK                            x       y       z     vdW  Elec       q    Type
REMARK                         _______ _______ _______ _____ _____    ______ ____
ROOT
ATOM      1  C   UNL     1       5.701  -2.600   0.644  0.00  0.00    +0.093 C 
ENDROOT
BRANCH   1   2
ATOM      2  N   UNL     1       5.104  -3.280   1.796  0.00  0.00    -0.316 N 
ATOM      3  C   UNL     1       5.758  -3.308   2.975  0.00  0.00    +0.225 C 
ATOM      4  O   UNL     1       6.840  -2.771   3.081  0.00  0.00    -0.275 OA
ATOM      5  H   UNL     1       4.239  -3.710   1.711  0.00  0.00    +0.149 HD
BRANCH   3   6
ATOM      6  C   UNL     1       5.144  -4.007   4.160  0.00  0.00    +0.142 C 
ATOM      7  C   UNL     1       3.813  -3.380   4.473  0.00  0.00    +0.011 A 
ATOM      8  C   UNL     1       2.713  -3.700   3.697  0.00  0.00    +0.008 A 
ATOM      9  C   UNL     1       1.482  -3.135   3.968  0.00  0.00    +0.001 A 
ATOM     10  C   UNL     1       1.345  -2.246   5.019  0.00  0.00    +0.004 A 
ATOM     11  C   UNL     1       2.438  -1.923   5.796  0.00  0.00    +0.046 A 
ATOM     12  C   UNL     1       3.679  -2.490   5.526  0.00  0.00    +0.133 A 
ATOM     13  O   UNL     1       4.740  -2.162   6.301  0.00  0.00    -0.455 OA
ATOM     14  C   UNL     1       5.822  -2.976   6.349  0.00  0.00    +0.133 A 
ATOM     15  C   UNL     1       6.071  -3.892   5.340  0.00  0.00    +0.011 A 
ATOM     16  C   UNL     1       7.182  -4.713   5.413  0.00  0.00    +0.008 A 
ATOM     17  C   UNL     1       8.045  -4.622   6.489  0.00  0.00    +0.001 A 
ATOM     18  C   UNL     1       7.798  -3.709   7.498  0.00  0.00    +0.004 A 
ATOM     19  C   UNL     1       6.691  -2.887   7.431  0.00  0.00    +0.046 A 
ENDBRANCH   3   6
ENDBRANCH   1   2
BRANCH   1  20
ATOM     20  C   UNL     1       4.839  -2.846  -0.596  0.00  0.00    -0.020 C 
BRANCH  20  30
ATOM     21  C   UNL     1      -0.281   1.130   0.144  0.00  0.00    +0.129 C 
ATOM     22  N   UNL     1      -0.199  -0.331   0.087  0.00  0.00    -0.333 N 
ATOM     23  C   UNL     1      -1.412  -1.153   0.198  0.00  0.00    +0.105 C 
ATOM     24  C   UNL     1      -1.109  -2.309   1.159  0.00  0.00    +0.024 C 
ATOM     25  C   UNL     1      -0.007  -3.179   0.554  0.00  0.00    +0.038 C 
ATOM     26  C   UNL     1       1.168  -2.331   0.144  0.00  0.00    -0.026 A 
ATOM     27  C   UNL     1       1.036  -0.968  -0.080  0.00  0.00    +0.033 A 
ATOM     28  C   UNL     1       2.139  -0.215  -0.468  0.00  0.00    +0.023 A 
ATOM     29  C   UNL     1       3.367  -0.823  -0.635  0.00  0.00    +0.004 A 
ATOM     30  C   UNL     1       3.498  -2.182  -0.415  0.00  0.00    -0.059 A 
ATOM     31  C   UNL     1       2.404  -2.933  -0.019  0.00  0.00    +0.007 A 
ENDBRANCH  20  30
BRANCH  20  32
ATOM     32  N   UNL     1       5.509  -2.285  -1.777  0.00  0.00    +0.385 N 
ATOM     33  C   UNL     1       6.758  -3.035  -2.063  0.00  0.00    -0.078 C 
ATOM     34  C   UNL     1       7.018  -2.734  -3.560  0.00  0.00    -0.020 C 
ATOM     35  C   UNL     1       5.595  -2.725  -4.163  0.00  0.00    -0.020 C 
ATOM     36  C   UNL     1       4.656  -2.451  -2.974  0.00  0.00    -0.078 C 
ATOM     37  H   UNL     1       5.715  -1.308  -1.629  0.00  0.00    -0.081 HD
ENDBRANCH  20  32
ENDBRANCH   1  20
TORSDOF 5
