REMARK  Name = ZINC36557703
REMARK  23 active torsions:
REMARK  status: ('A' for Active; 'I' for Inactive)
REMARK    1  A    between atoms: C_1  and  C_2
REMARK    2  A    between atoms: C_2  and  C_3
REMARK    3  A    between atoms: C_3  and  C_4
REMARK    4  A    between atoms: C_4  and  C_5
REMARK    5  A    between atoms: C_5  and  C_6
REMARK    6  A    between atoms: C_7  and  C_8
REMARK    7  A    between atoms: N_10  and  C_11
REMARK    8  A    between atoms: N_10  and  C_18
REMARK    9  A    between atoms: C_11  and  C_12
REMARK   10  A    between atoms: C_15  and  C_17
REMARK   11  A    between atoms: C_18  and  C_20
REMARK   12  A    between atoms: C_18  and  C_29
REMARK   13  A    between atoms: C_23  and  N_26
REMARK   14  A    between atoms: N_26  and  C_27
REMARK   15  A    between atoms: N_26  and  C_28
REMARK   16  A    between atoms: N_31  and  C_32
REMARK   17  A    between atoms: C_32  and  C_33
REMARK   18  A    between atoms: C_32  and  C_34
REMARK   19  A    between atoms: C_32  and  C_35
REMARK   20  A    between atoms: C_35  and  C_36
REMARK   21  A    between atoms: C_36  and  C_37
REMARK   22  A    between atoms: C_36  and  C_38
REMARK   23  A    between atoms: C_36  and  C_39
REMARK                            x       y       z     vdW  Elec       q    Type
REMARK                         _______ _______ _______ _____ _____    ______ ____
ROOT
ATOM      1  C   UNL     1       0.674  -3.751  -7.222  0.00  0.00    +0.193 C 
ENDROOT
BRANCH   1   2
ATOM      2  C   UNL     1      -0.436  -4.618  -6.686  0.00  0.00    -0.018 A 
ATOM      3  C   UNL     1      -0.298  -5.994  -6.687  0.00  0.00    +0.008 A 
ATOM      4  C   UNL     1      -1.313  -6.791  -6.196  0.00  0.00    +0.023 A 
ATOM      5  C   UNL     1      -2.474  -6.210  -5.701  0.00  0.00    +0.029 A 
ATOM      6  C   UNL     1      -2.608  -4.827  -5.702  0.00  0.00    +0.023 A 
ATOM      7  C   UNL     1      -1.587  -4.035  -6.189  0.00  0.00    +0.008 A 
BRANCH   5   8
ATOM      8  N   UNL     1      -3.502  -7.013  -5.204  0.00  0.00    -0.336 N 
ATOM      9  C   UNL     1      -3.359  -8.471  -5.205  0.00  0.00    +0.129 C 
ATOM     10  C   UNL     1      -4.725  -6.398  -4.683  0.00  0.00    +0.129 C 
ENDBRANCH   5   8
ENDBRANCH   1   2
BRANCH   1  11
ATOM     11  C   UNL     1       0.536  -3.627  -8.718  0.00  0.00    +0.239 C 
ATOM     12  O   UNL     1       1.300  -4.222  -9.449  0.00  0.00    -0.273 OA
ATOM     13  N   UNL     1      -0.435  -2.855  -9.243  0.00  0.00    -0.308 N 
ATOM     14  H   UNL     1      -1.046  -2.380  -8.659  0.00  0.00    +0.149 HD
BRANCH  13  15
ATOM     15  C   UNL     1      -0.569  -2.735 -10.697  0.00  0.00    +0.030 C 
ATOM     16  C   UNL     1       0.487  -1.763 -11.228  0.00  0.00    +0.031 C 
ATOM     17  C   UNL     1      -0.370  -4.107 -11.344  0.00  0.00    +0.031 C 
BRANCH  15  18
ATOM     18  C   UNL     1      -1.965  -2.208 -11.039  0.00  0.00    +0.031 C 
BRANCH  18  19
ATOM     19  C   UNL     1      -3.008  -2.944 -10.196  0.00  0.00    -0.036 C 
ATOM     20  C   UNL     1      -3.029  -2.356  -8.784  0.00  0.00    +0.010 C 
ATOM     21  C   UNL     1      -4.388  -2.781 -10.836  0.00  0.00    +0.010 C 
ATOM     22  C   UNL     1      -2.650  -4.429 -10.124  0.00  0.00    +0.010 C 
ENDBRANCH  18  19
ENDBRANCH  15  18
ENDBRANCH  13  15
ENDBRANCH   1  11
BRANCH   1  25
ATOM     23  C   UNL     1       2.259  -4.687  -5.625  0.00  0.00    +0.240 C 
ATOM     24  O   UNL     1       1.448  -4.479  -4.743  0.00  0.00    -0.271 OA
ATOM     25  N   UNL     1       1.968  -4.359  -6.900  0.00  0.00    -0.275 N 
BRANCH  23  27
ATOM     26  C   UNL     1       3.774  -5.796  -4.088  0.00  0.00    -0.022 C 
ATOM     27  C   UNL     1       3.558  -5.297  -5.301  0.00  0.00    +0.063 C 
BRANCH  26  28
ATOM     28  C   UNL     1       2.619  -6.000  -3.141  0.00  0.00    +0.027 C 
BRANCH  28  29
ATOM     29  C   UNL     1       2.583  -7.461  -2.689  0.00  0.00    +0.004 C 
BRANCH  29  30
ATOM     30  C   UNL     1       1.411  -7.669  -1.727  0.00  0.00    +0.000 C 
BRANCH  30  32
ATOM     31  C   UNL     1       0.203  -9.337  -0.314  0.00  0.00    +0.004 C 
ATOM     32  C   UNL     1       1.375  -9.130  -1.275  0.00  0.00    -0.003 C 
ENDBRANCH  30  32
ENDBRANCH  29  30
ENDBRANCH  28  29
ENDBRANCH  26  28
ENDBRANCH  23  27
BRANCH  25  33
ATOM     33  C   UNL     1       2.944  -4.609  -7.962  0.00  0.00    +0.183 C 
BRANCH  33  34
ATOM     34  C   UNL     1       2.784  -6.019  -8.469  0.00  0.00    +0.122 A 
ATOM     35  C   UNL     1       2.118  -6.386  -9.579  0.00  0.00    +0.046 A 
ATOM     36  C   UNL     1       2.221  -7.793  -9.673  0.00  0.00    +0.045 A 
ATOM     37  C   UNL     1       2.944  -8.202  -8.615  0.00  0.00    +0.102 A 
ATOM     38  O   UNL     1       3.288  -7.123  -7.893  0.00  0.00    -0.463 OA
ATOM     39  C   UNL     1       3.312  -9.629  -8.298  0.00  0.00    +0.086 C 
ENDBRANCH  33  34
ENDBRANCH  25  33
ENDBRANCH   1  25
TORSDOF 14
