REMARK  Name = ZINC09187453
REMARK  3 active torsions:
REMARK  status: ('A' for Active; 'I' for Inactive)
REMARK    1  A    between atoms: C_6  and  C_7
REMARK    2  A    between atoms: C_17  and  N_18
REMARK    3  A    between atoms: C_19  and  C_21
REMARK                            x       y       z     vdW  Elec       q    Type
REMARK                         _______ _______ _______ _____ _____    ______ ____
ROOT
ATOM      1  C   UNL     1       3.552   3.572  -0.016  0.00  0.00    +0.087 A 
ATOM      2  C   UNL     1       3.653   2.156  -0.023  0.00  0.00    +0.202 A 
ATOM      3  O   UNL     1       4.738   1.597  -0.037  0.00  0.00    -0.286 OA
ATOM      4  C   UNL     1       2.394   1.386  -0.014  0.00  0.00    +0.066 A 
ATOM      5  C   UNL     1       2.401  -0.009  -0.021  0.00  0.00    +0.035 A 
ATOM      6  C   UNL     1       1.206  -0.696  -0.013  0.00  0.00    +0.042 A 
ATOM      7  C   UNL     1       0.002  -0.004   0.002  0.00  0.00    +0.023 A 
ATOM      8  C   UNL     1      -0.017   1.374   0.010  0.00  0.00    +0.048 A 
ATOM      9  C   UNL     1       1.178   2.085   0.002  0.00  0.00    +0.141 A 
ATOM     10  O   UNL     1       1.173   3.435   0.008  0.00  0.00    -0.440 OA
ATOM     11  C   UNL     1       2.300   4.158   0.000  0.00  0.00    +0.204 A 
ATOM     12 CL   UNL     1       1.206  -2.432  -0.022  0.00  0.00    -0.084 Cl
ENDROOT
BRANCH   1  18
ATOM     13  C   UNL     1       5.068   5.227   1.068  0.00  0.00    +0.012 A 
ATOM     14  C   UNL     1       6.209   6.004   1.061  0.00  0.00    +0.050 A 
ATOM     15  C   UNL     1       7.059   5.986  -0.034  0.00  0.00    +0.166 A 
ATOM     16  C   UNL     1       6.766   5.177  -1.131  0.00  0.00    +0.167 A 
ATOM     17  C   UNL     1       5.627   4.392  -1.126  0.00  0.00    +0.058 A 
ATOM     18  C   UNL     1       4.773   4.412  -0.024  0.00  0.00    -0.006 A 
ATOM     19  O   UNL     1       7.748   5.339  -2.066  0.00  0.00    -0.453 OA
ATOM     20  C   UNL     1       8.852   5.939  -1.364  0.00  0.00    +0.466 C 
ATOM     21  O   UNL     1       8.224   6.653  -0.283  0.00  0.00    -0.453 OA
ENDBRANCH   1  18
BRANCH  11  22
ATOM     22  N   UNL     1       2.209   5.531   0.008  0.00  0.00    -0.255 N 
ATOM     23  C   UNL     1       0.999   6.126   0.023  0.00  0.00    +0.222 C 
ATOM     24  O   UNL     1      -0.008   5.451   0.030  0.00  0.00    -0.275 OA
ATOM     25  H   UNL     1       3.015   6.071   0.002  0.00  0.00    +0.158 HD
BRANCH  23  26
ATOM     26  C   UNL     1       0.899   7.630   0.032  0.00  0.00    +0.075 C 
ATOM     27  C   UNL     1       1.598   8.180   1.277  0.00  0.00    +0.013 C 
ATOM     28  C   UNL     1       1.496   9.707   1.285  0.00  0.00    +0.001 C 
ATOM     29  C   UNL     1       0.023  10.120   1.302  0.00  0.00    +0.000 C 
ATOM     30  C   UNL     1      -0.675   9.569   0.057  0.00  0.00    +0.001 C 
ATOM     31  C   UNL     1      -0.574   8.043   0.049  0.00  0.00    +0.013 C 
ENDBRANCH  23  26
ENDBRANCH  11  22
TORSDOF 3
