REMARK  Name = ZINC44926623
REMARK  4 active torsions:
REMARK  status: ('A' for Active; 'I' for Inactive)
REMARK    1  A    between atoms: C_1  and  C_2
REMARK    2  A    between atoms: C_2  and  C_4
REMARK    3  A    between atoms: C_2  and  N_9
REMARK    4  A    between atoms: N_9  and  C_10
REMARK                            x       y       z     vdW  Elec       q    Type
REMARK                         _______ _______ _______ _____ _____    ______ ____
ROOT
ATOM      1  N   UNL     1       0.667  -0.499  -1.323  0.00  0.00    +0.390 N 
ATOM      2  H   UNL     1       0.430   0.123  -0.565  0.00  0.00    -0.084 HD
ATOM      3  H   UNL     1       1.635  -0.367  -1.577  0.00  0.00    -0.084 HD
ENDROOT
BRANCH   1   4
ATOM      4  C   UNL     1      -0.187  -0.205  -2.482  0.00  0.00    -0.039 C 
ATOM      5  C   UNL     1       0.318  -0.968  -3.726  0.00  0.00    -0.007 C 
ATOM      6  C   UNL     1       1.260   0.061  -4.386  0.00  0.00    +0.034 C 
ATOM      7  C   UNL     1       0.743   1.413  -3.943  0.00  0.00    -0.045 A 
ATOM      8  C   UNL     1      -0.091   1.260  -2.848  0.00  0.00    -0.058 A 
ATOM      9  C   UNL     1      -0.683   2.370  -2.269  0.00  0.00    +0.003 A 
ATOM     10  C   UNL     1      -0.446   3.631  -2.780  0.00  0.00    +0.015 A 
ATOM     11  C   UNL     1       0.386   3.787  -3.874  0.00  0.00    +0.018 A 
ATOM     12  C   UNL     1       0.980   2.676  -4.457  0.00  0.00    +0.019 A 
ATOM     13 BR   UNL     1       0.712   5.512  -4.577  0.00  0.00    -0.050 Br
ENDBRANCH   1   4
BRANCH   1  15
ATOM     14  C   UNL     1      -0.967  -2.051  -0.365  0.00  0.00    -0.006 C 
ATOM     15  C   UNL     1       0.457  -1.890  -0.900  0.00  0.00    -0.001 C 
BRANCH  15  16
ATOM     16  C   UNL     1       1.444  -2.239   0.184  0.00  0.00    +0.163 A 
ATOM     17  N   UNL     1       2.164  -3.349   0.269  0.00  0.00    -0.113 NA
ATOM     18  N   UNL     1       2.882  -3.266   1.337  0.00  0.00    -0.021 NA
ATOM     19  N   UNL     1       2.638  -2.144   1.921  0.00  0.00    -0.021 NA
ATOM     20  N   UNL     1       1.764  -1.494   1.232  0.00  0.00    -0.113 NA
ENDBRANCH  15  16
ENDBRANCH   1  15
TORSDOF 3
