REMARK  Name = ZINC15015592
REMARK  4 active torsions:
REMARK  status: ('A' for Active; 'I' for Inactive)
REMARK    1  A    between atoms: C_1  and  C_2
REMARK    2  A    between atoms: C_2  and  N_4
REMARK    3  A    between atoms: C_10  and  C_11
REMARK    4  A    between atoms: C_14  and  C_16
REMARK                            x       y       z     vdW  Elec       q    Type
REMARK                         _______ _______ _______ _____ _____    ______ ____
ROOT
ATOM      1  N   UNL     1       0.000  -0.663  -1.153  0.00  0.00    -0.159 NA
ATOM      2  C   UNL     1       0.118  -1.987  -1.164  0.00  0.00    +0.158 C 
ATOM      3  N   UNL     1       0.151  -2.834  -0.093  0.00  0.00    -0.262 N 
ATOM      4  C   UNL     1       0.274  -4.140  -0.280  0.00  0.00    +0.256 C 
ATOM      5  O   UNL     1       0.307  -4.928   0.647  0.00  0.00    -0.269 OA
ATOM      6  C   UNL     1       0.365  -4.561  -1.641  0.00  0.00    +0.081 C 
ATOM      7  C   UNL     1       0.497  -5.822  -2.150  0.00  0.00    +0.066 C 
ATOM      8  S   UNL     1       0.255  -3.000  -2.498  0.00  0.00    -0.051 S 
ATOM      9  H   UNL     1       0.084  -2.479   0.807  0.00  0.00    +0.157 HD
ENDROOT
BRANCH   7  10
ATOM     10  C   UNL     1       0.569  -6.015  -3.545  0.00  0.00    +0.130 A 
ATOM     11  C   UNL     1       0.697  -7.232  -4.191  0.00  0.00    +0.050 A 
ATOM     12  C   UNL     1       0.729  -6.962  -5.561  0.00  0.00    +0.050 A 
ATOM     13  C   UNL     1       0.620  -5.597  -5.704  0.00  0.00    +0.136 A 
ATOM     14  O   UNL     1       0.520  -5.044  -4.482  0.00  0.00    -0.455 OA
BRANCH  13  15
ATOM     15  C   UNL     1       0.611  -4.864  -6.985  0.00  0.00    +0.017 A 
ATOM     16  C   UNL     1       0.712  -5.559  -8.192  0.00  0.00    +0.013 A 
ATOM     17  C   UNL     1       0.702  -4.868  -9.385  0.00  0.00    +0.021 A 
ATOM     18  C   UNL     1       0.593  -3.487  -9.388  0.00  0.00    +0.041 A 
ATOM     19  C   UNL     1       0.492  -2.792  -8.195  0.00  0.00    +0.021 A 
ATOM     20  C   UNL     1       0.494  -3.471  -6.995  0.00  0.00    +0.013 A 
ATOM     21 CL   UNL     1       0.582  -2.624 -10.895  0.00  0.00    -0.084 Cl
ENDBRANCH  13  15
ENDBRANCH   7  10
BRANCH   1  23
ATOM     22  C   UNL     1       0.001   1.504   0.008  0.00  0.00    +0.111 C 
ATOM     23  C   UNL     1       0.015  -0.003   0.001  0.00  0.00    +0.235 C 
ATOM     24  O   UNL     1       0.042  -0.615   1.051  0.00  0.00    -0.274 OA
ENDBRANCH   1  23
TORSDOF 3
