REMARK  Name = ZINC63981661
REMARK  3 active torsions:
REMARK  status: ('A' for Active; 'I' for Inactive)
REMARK    1  A    between atoms: C_1  and  N_2
REMARK    2  A    between atoms: N_11  and  C_12
REMARK    3  A    between atoms: C_12  and  C_14
REMARK                            x       y       z     vdW  Elec       q    Type
REMARK                         _______ _______ _______ _____ _____    ______ ____
ROOT
ATOM      1  C   UNL     1      -0.017   1.461   0.033  0.00  0.00    +0.152 C 
ATOM      2  N   UNL     1       0.002  -0.003   0.017  0.00  0.00    -0.315 N 
ATOM      3  C   UNL     1      -1.115  -0.834   0.020  0.00  0.00    +0.068 A 
ATOM      4  C   UNL     1      -2.480  -0.584   0.037  0.00  0.00    +0.029 A 
ATOM      5  C   UNL     1      -3.372  -1.637   0.035  0.00  0.00    +0.022 A 
ATOM      6  C   UNL     1      -2.910  -2.944   0.017  0.00  0.00    +0.043 A 
ATOM      7  C   UNL     1      -1.554  -3.203   0.000  0.00  0.00    +0.047 A 
ATOM      8  C   UNL     1      -0.649  -2.150   0.001  0.00  0.00    +0.067 A 
ATOM      9  N   UNL     1       0.741  -2.094  -0.013  0.00  0.00    -0.326 N 
ATOM     10  C   UNL     1       1.115  -0.786  -0.008  0.00  0.00    +0.201 A 
ATOM     11  N   UNL     1       2.366  -0.343  -0.023  0.00  0.00    -0.142 NA
ATOM     12 CL   UNL     1      -4.042  -4.260   0.016  0.00  0.00    -0.083 Cl
ATOM     13  H   UNL     1       1.341  -2.856  -0.027  0.00  0.00    +0.169 HD
ENDROOT
BRANCH  11  14
ATOM     14  C   UNL     1       3.383  -1.208   0.063  0.00  0.00    +0.272 C 
ATOM     15  O   UNL     1       3.165  -2.408   0.059  0.00  0.00    -0.268 OA
BRANCH  14  16
ATOM     16  C   UNL     1       4.773  -0.710   0.163  0.00  0.00    +0.060 A 
ATOM     17  C   UNL     1       5.025   0.663   0.174  0.00  0.00    +0.055 A 
ATOM     18  C   UNL     1       6.323   1.123   0.268  0.00  0.00    +0.159 A 
ATOM     19  C   UNL     1       7.377   0.222   0.351  0.00  0.00    +0.160 A 
ATOM     20  C   UNL     1       7.131  -1.141   0.340  0.00  0.00    +0.062 A 
ATOM     21  C   UNL     1       5.835  -1.611   0.253  0.00  0.00    +0.056 A 
ATOM     22 CL   UNL     1       5.529  -3.320   0.248  0.00  0.00    -0.083 Cl
ATOM     23  F   UNL     1       8.646   0.676   0.442  0.00  0.00    -0.202 F 
ATOM     24  F   UNL     1       6.569   2.451   0.278  0.00  0.00    -0.202 F 
ENDBRANCH  14  16
ENDBRANCH  11  14
TORSDOF 2
