REMARK  Name = ZINC00626523
REMARK  8 active torsions:
REMARK  status: ('A' for Active; 'I' for Inactive)
REMARK    1  A    between atoms: C_1  and  C_2
REMARK    2  A    between atoms: C_2  and  N_3
REMARK    3  A    between atoms: N_3  and  C_4
REMARK    4  A    between atoms: N_3  and  C_6
REMARK    5  A    between atoms: C_4  and  C_5
REMARK    6  A    between atoms: C_13  and  N_26
REMARK    7  A    between atoms: C_14  and  C_24
REMARK    8  A    between atoms: C_15  and  C_17
REMARK                            x       y       z     vdW  Elec       q    Type
REMARK                         _______ _______ _______ _____ _____    ______ ____
ROOT
ATOM      1  C   UNL     1      -3.319   5.705  -1.125  0.00  0.00    +0.033 A 
ATOM      2  C   UNL     1      -4.562   5.083  -1.140  0.00  0.00    +0.023 A 
ATOM      3  C   UNL     1      -4.675   3.760  -0.765  0.00  0.00    +0.010 A 
ATOM      4  C   UNL     1      -3.555   3.047  -0.374  0.00  0.00    +0.008 A 
ATOM      5  C   UNL     1      -2.313   3.662  -0.356  0.00  0.00    +0.136 A 
ATOM      6  C   UNL     1      -2.195   4.993  -0.733  0.00  0.00    +0.069 A 
ATOM      7  O   UNL     1      -1.204   2.979   0.029  0.00  0.00    -0.441 OA
ATOM      8  C   UNL     1      -1.209   1.636   0.017  0.00  0.00    +0.199 C 
ATOM      9  C   UNL     1      -2.360   0.923   0.018  0.00  0.00    +0.098 C 
ATOM     10  C   UNL     1      -3.700   1.604   0.030  0.00  0.00    +0.098 C 
ENDROOT
BRANCH  10  11
ATOM     11  C   UNL     1      -4.285   1.530   1.417  0.00  0.00    -0.035 A 
ATOM     12  C   UNL     1      -3.608   2.093   2.483  0.00  0.00    +0.006 A 
ATOM     13  C   UNL     1      -4.146   2.031   3.755  0.00  0.00    +0.020 A 
ATOM     14  C   UNL     1      -5.358   1.396   3.962  0.00  0.00    +0.041 A 
ATOM     15  C   UNL     1      -6.032   0.828   2.896  0.00  0.00    +0.020 A 
ATOM     16  C   UNL     1      -5.496   0.896   1.624  0.00  0.00    +0.006 A 
ATOM     17 CL   UNL     1      -6.031   1.311   5.560  0.00  0.00    -0.084 Cl
ENDBRANCH  10  11
BRANCH   8  18
ATOM     18  N   UNL     1      -0.011   0.966   0.007  0.00  0.00    -0.328 N 
ATOM     19  H   UNL     1       0.002  -0.004   0.002  0.00  0.00    +0.145 HD
ATOM     20  H   UNL     1       0.822   1.462   0.002  0.00  0.00    +0.145 HD
ENDBRANCH   8  18
BRANCH   9  21
ATOM     21  C   UNL     1      -2.300  -0.507   0.009  0.00  0.00    +0.101 C 
ATOM     22  N   UNL     1      -2.252  -1.642   0.001  0.00  0.00    -0.191 NA
ENDBRANCH   9  21
BRANCH   1  23
ATOM     23  N   UNL     1      -3.202   7.045  -1.503  0.00  0.00    -0.330 N 
BRANCH  23  25
ATOM     24  C   UNL     1      -5.023   8.462  -0.693  0.00  0.00    +0.024 C 
ATOM     25  C   UNL     1      -4.390   7.796  -1.916  0.00  0.00    +0.102 C 
ENDBRANCH  23  25
BRANCH  23  26
ATOM     26  C   UNL     1      -1.891   7.699  -1.486  0.00  0.00    +0.102 C 
ATOM     27  C   UNL     1      -1.215   7.521  -2.847  0.00  0.00    +0.024 C 
ENDBRANCH  23  26
ENDBRANCH   1  23
TORSDOF 6
