REMARK  Name = ZINC12874574
REMARK  8 active torsions:
REMARK  status: ('A' for Active; 'I' for Inactive)
REMARK    1  A    between atoms: C_1  and  C_2
REMARK    2  A    between atoms: C_2  and  O_3
REMARK    3  A    between atoms: O_3  and  C_4
REMARK    4  A    between atoms: C_4  and  C_6
REMARK    5  A    between atoms: C_9  and  N_12
REMARK    6  A    between atoms: C_17  and  C_35
REMARK    7  A    between atoms: C_26  and  C_34
REMARK    8  A    between atoms: C_35  and  C_36
REMARK                            x       y       z     vdW  Elec       q    Type
REMARK                         _______ _______ _______ _____ _____    ______ ____
ROOT
ATOM      1  N   UNL     1       1.279  -1.054  -4.608  0.00  0.00    -0.210 N 
ATOM      2  C   UNL     1       1.017  -2.059  -5.451  0.00  0.00    +0.228 C 
ATOM      3  O   UNL     1       0.918  -1.956  -6.655  0.00  0.00    -0.275 OA
ATOM      4  C   UNL     1       0.864  -3.344  -4.669  0.00  0.00    +0.074 C 
ATOM      5  C   UNL     1      -0.606  -3.809  -4.735  0.00  0.00    -0.049 C 
ATOM      6  C   UNL     1      -0.285  -3.123  -2.525  0.00  0.00    +0.050 C 
ATOM      7  C   UNL     1       1.075  -2.895  -3.196  0.00  0.00    +0.088 C 
ATOM      8  C   UNL     1       1.337  -1.410  -3.319  0.00  0.00    +0.229 C 
ATOM      9  O   UNL     1       1.563  -0.660  -2.395  0.00  0.00    -0.275 OA
ATOM     10  C   UNL     1      -0.576  -2.072  -1.492  0.00  0.00    -0.026 A 
ATOM     11  C   UNL     1      -0.688  -0.700  -1.540  0.00  0.00    +0.008 A 
ATOM     12  C   UNL     1      -0.966   0.013  -0.388  0.00  0.00    -0.049 A 
ATOM     13  C   UNL     1      -1.143  -0.655   0.810  0.00  0.00    +0.025 A 
ATOM     14  C   UNL     1      -1.036  -2.030   0.863  0.00  0.00    +0.063 A 
ATOM     15  C   UNL     1      -0.750  -2.756  -0.293  0.00  0.00    +0.054 A 
ATOM     16  N   UNL     1      -0.593  -4.130  -0.492  0.00  0.00    -0.285 N 
ATOM     17  C   UNL     1      -0.316  -4.428  -1.776  0.00  0.00    +0.211 C 
ATOM     18  O   UNL     1      -0.128  -5.533  -2.238  0.00  0.00    -0.277 OA
ATOM     19 CL   UNL     1      -1.260  -2.858   2.372  0.00  0.00    -0.082 Cl
ATOM     20  C   UNL     1      -1.082   1.515  -0.440  0.00  0.00    +0.044 C 
ATOM     21  H   UNL     1      -0.674  -4.792   0.212  0.00  0.00    +0.155 HD
ATOM     22  N   UNL     1      -1.247  -3.119  -3.613  0.00  0.00    +0.394 N 
ATOM     23  H   UNL     1      -2.102  -3.614  -3.334  0.00  0.00    -0.083 HD
ATOM     24  H   UNL     1      -1.480  -2.155  -3.877  0.00  0.00    -0.083 HD
ENDROOT
BRANCH   1  28
ATOM     25  C   UNL     1       1.866   2.869  -5.890  0.00  0.00    +0.059 A 
ATOM     26  C   UNL     1       2.927   2.147  -5.337  0.00  0.00    +0.017 A 
ATOM     27  C   UNL     1       2.729   0.851  -4.915  0.00  0.00    +0.025 A 
ATOM     28  C   UNL     1       1.476   0.261  -5.038  0.00  0.00    +0.044 A 
ATOM     29  C   UNL     1       0.419   0.975  -5.593  0.00  0.00    +0.025 A 
ATOM     30  C   UNL     1       0.608   2.273  -6.012  0.00  0.00    +0.017 A 
BRANCH  25  31
ATOM     31  C   UNL     1       2.074   4.257  -6.343  0.00  0.00    +0.339 C 
ATOM     32  O   UNL     1       3.169   4.774  -6.237  0.00  0.00    -0.245 OA
BRANCH  31  33
ATOM     33  O   UNL     1       1.050   4.952  -6.877  0.00  0.00    -0.461 OA
BRANCH  33  35
ATOM     34  C   UNL     1       0.055   6.937  -7.876  0.00  0.00    +0.048 C 
ATOM     35  C   UNL     1       1.328   6.313  -7.301  0.00  0.00    +0.229 C 
ENDBRANCH  33  35
ENDBRANCH  31  33
ENDBRANCH  25  31
ENDBRANCH   1  28
BRANCH   5  36
ATOM     36  C   UNL     1      -1.232  -3.405  -6.071  0.00  0.00    +0.080 C 
BRANCH  36  37
ATOM     37  C   UNL     1      -2.651  -3.910  -6.133  0.00  0.00    +0.209 C 
ATOM     38  O   UNL     1      -3.115  -4.532  -5.201  0.00  0.00    -0.276 OA
ATOM     39  N   UNL     1      -3.404  -3.671  -7.225  0.00  0.00    -0.329 N 
ATOM     40  H   UNL     1      -3.032  -3.174  -7.971  0.00  0.00    +0.145 HD
ATOM     41  H   UNL     1      -4.317  -3.996  -7.266  0.00  0.00    +0.145 HD
ENDBRANCH  36  37
ENDBRANCH   5  36
TORSDOF 6
