REMARK  Name = ZINC36235403
REMARK  14 active torsions:
REMARK  status: ('A' for Active; 'I' for Inactive)
REMARK    1  A    between atoms: C_1  and  C_2
REMARK    2  A    between atoms: C_2  and  O_3
REMARK    3  A    between atoms: O_3  and  C_4
REMARK    4  A    between atoms: C_6  and  N_36
REMARK    5  A    between atoms: C_8  and  C_11
REMARK    6  A    between atoms: C_9  and  O_10
REMARK    7  A    between atoms: N_12  and  N_13
REMARK    8  A    between atoms: C_14  and  C_16
REMARK    9  A    between atoms: C_16  and  N_27
REMARK   10  A    between atoms: C_17  and  C_18
REMARK   11  A    between atoms: C_21  and  N_24
REMARK   12  A    between atoms: N_24  and  C_25
REMARK   13  A    between atoms: N_24  and  C_26
REMARK   14  A    between atoms: C_28  and  C_30
REMARK                            x       y       z     vdW  Elec       q    Type
REMARK                         _______ _______ _______ _____ _____    ______ ____
ROOT
ATOM      1  C   UNL     1       4.537  -3.661  -8.187  0.00  0.00    +0.098 C 
ATOM      2  C   UNL     1       5.188  -2.700  -8.887  0.00  0.00    +0.036 C 
ENDROOT
BRANCH   2   3
ATOM      3  C   UNL     1       6.021  -3.068 -10.039  0.00  0.00    -0.023 A 
ATOM      4  C   UNL     1       5.731  -4.224 -10.775  0.00  0.00    +0.010 A 
ATOM      5  C   UNL     1       6.514  -4.564 -11.854  0.00  0.00    +0.023 A 
ATOM      6  C   UNL     1       7.593  -3.762 -12.215  0.00  0.00    +0.029 A 
ATOM      7  C   UNL     1       7.885  -2.613 -11.486  0.00  0.00    +0.023 A 
ATOM      8  C   UNL     1       7.105  -2.262 -10.409  0.00  0.00    +0.010 A 
BRANCH   6   9
ATOM      9  N   UNL     1       8.383  -4.111 -13.307  0.00  0.00    -0.336 N 
ATOM     10  C   UNL     1       8.166  -5.389 -13.990  0.00  0.00    +0.129 C 
ATOM     11  C   UNL     1       9.431  -3.200 -13.774  0.00  0.00    +0.129 C 
ENDBRANCH   6   9
ENDBRANCH   2   3
BRANCH   1  13
ATOM     12  N   UNL     1       3.094  -4.254  -6.313  0.00  0.00    -0.202 N 
ATOM     13  C   UNL     1       3.741  -3.298  -7.009  0.00  0.00    +0.277 C 
ATOM     14  O   UNL     1       3.665  -2.134  -6.660  0.00  0.00    -0.267 OA
ATOM     15  H   UNL     1       3.155  -5.181  -6.590  0.00  0.00    +0.178 HD
BRANCH  12  17
ATOM     16  C   UNL     1       1.710  -4.828  -4.517  0.00  0.00    +0.142 C 
ATOM     17  N   UNL     1       2.334  -3.907  -5.188  0.00  0.00    -0.187 NA
BRANCH  16  22
ATOM     18  C   UNL     1       0.066  -2.794  -1.812  0.00  0.00    +0.164 A 
ATOM     19  C   UNL     1      -0.596  -3.784  -1.104  0.00  0.00    +0.082 A 
ATOM     20  C   UNL     1      -0.508  -5.107  -1.503  0.00  0.00    +0.130 A 
ATOM     21  C   UNL     1       0.238  -5.452  -2.610  0.00  0.00    +0.046 A 
ATOM     22  C   UNL     1       0.911  -4.464  -3.334  0.00  0.00    +0.042 A 
ATOM     23  C   UNL     1       0.817  -3.125  -2.933  0.00  0.00    +0.167 A 
BRANCH  20  24
ATOM     24  N   UNL     1      -1.219  -6.156  -0.738  0.00  0.00    +0.057 N 
ATOM     25  O   UNL     1      -1.874  -5.857   0.233  0.00  0.00    -0.126 OA
ATOM     26  O   UNL     1      -1.144  -7.312  -1.084  0.00  0.00    -0.126 OA
ENDBRANCH  20  24
BRANCH  23  27
ATOM     27  O   UNL     1       1.463  -2.156  -3.633  0.00  0.00    -0.503 OA
ATOM     28  H   UNL     1       2.363  -1.982  -3.326  0.00  0.00    +0.292 HD
ENDBRANCH  23  27
BRANCH  18  29
ATOM     29  O   UNL     1      -0.026  -1.496  -1.415  0.00  0.00    -0.488 OA
BRANCH  29  31
ATOM     30  C   UNL     1      -0.800   0.274   0.037  0.00  0.00    +0.048 C 
ATOM     31  C   UNL     1      -0.816  -1.228  -0.254  0.00  0.00    +0.226 C 
ENDBRANCH  29  31
ENDBRANCH  18  29
ENDBRANCH  16  22
ENDBRANCH  12  17
ENDBRANCH   1  13
BRANCH   1  32
ATOM     32  N   UNL     1       4.625  -4.999  -8.588  0.00  0.00    -0.277 N 
ATOM     33  C   UNL     1       3.504  -5.689  -8.879  0.00  0.00    +0.248 C 
ATOM     34  O   UNL     1       2.425  -5.129  -8.871  0.00  0.00    -0.270 OA
ATOM     35  H   UNL     1       5.491  -5.429  -8.655  0.00  0.00    +0.155 HD
BRANCH  33  36
ATOM     36  C   UNL     1       3.588  -7.127  -9.210  0.00  0.00    +0.037 A 
ATOM     37  C   UNL     1       4.806  -7.801  -9.104  0.00  0.00    +0.013 A 
ATOM     38  C   UNL     1       4.876  -9.144  -9.414  0.00  0.00    +0.001 A 
ATOM     39  C   UNL     1       3.744  -9.822  -9.829  0.00  0.00    +0.000 A 
ATOM     40  C   UNL     1       2.534  -9.160  -9.937  0.00  0.00    +0.001 A 
ATOM     41  C   UNL     1       2.448  -7.819  -9.624  0.00  0.00    +0.013 A 
ENDBRANCH  33  36
ENDBRANCH   1  32
TORSDOF 11
