REMARK  Name = ZINC34785048
REMARK  9 active torsions:
REMARK  status: ('A' for Active; 'I' for Inactive)
REMARK    1  A    between atoms: C_1  and  C_2
REMARK    2  A    between atoms: C_2  and  O_3
REMARK    3  A    between atoms: O_3  and  C_4
REMARK    4  A    between atoms: C_4  and  C_6
REMARK    5  A    between atoms: C_10  and  N_11
REMARK    6  A    between atoms: N_17  and  C_20
REMARK    7  A    between atoms: C_20  and  C_21
REMARK    8  A    between atoms: C_31  and  C_33
REMARK    9  A    between atoms: C_31  and  C_34
REMARK                            x       y       z     vdW  Elec       q    Type
REMARK                         _______ _______ _______ _____ _____    ______ ____
ROOT
ATOM      1  N   UNL     1       5.490  -3.245   2.710  0.00  0.00    -0.263 N 
ATOM      2  C   UNL     1       5.049  -2.736   1.543  0.00  0.00    +0.307 C 
ATOM      3  O   UNL     1       3.860  -2.541   1.376  0.00  0.00    -0.252 OA
ATOM      4  N   UNL     1       5.924  -2.443   0.561  0.00  0.00    -0.283 N 
ATOM      5  C   UNL     1       5.479  -1.781  -0.675  0.00  0.00    +0.124 C 
ATOM      6  C   UNL     1       6.378  -0.566  -0.927  0.00  0.00    +0.104 C 
ATOM      7  N   UNL     1       7.784  -0.991  -0.922  0.00  0.00    -0.291 NA
ATOM      8  C   UNL     1       8.175  -1.523   0.390  0.00  0.00    +0.104 C 
ATOM      9  C   UNL     1       7.351  -2.772   0.699  0.00  0.00    +0.124 C 
ATOM     10  H   UNL     1       6.428  -3.471   2.817  0.00  0.00    +0.157 HD
ENDROOT
BRANCH   1  15
ATOM     11  C   UNL     1       4.879  -3.957   5.019  0.00  0.00    +0.091 A 
ATOM     12  C   UNL     1       3.767  -4.062   5.944  0.00  0.00    -0.016 A 
ATOM     13  C   UNL     1       2.583  -3.646   5.439  0.00  0.00    +0.021 A 
ATOM     14  S   UNL     1       2.955  -3.133   3.790  0.00  0.00    -0.075 S 
ATOM     15  C   UNL     1       4.606  -3.447   3.757  0.00  0.00    +0.088 A 
ATOM     16  C   UNL     1       1.273  -3.642   6.161  0.00  0.00    +0.203 C 
ATOM     17  O   UNL     1       1.421  -4.445   7.344  0.00  0.00    -0.368 OA
ATOM     18  C   UNL     1       2.584  -4.128   8.112  0.00  0.00    +0.068 C 
ATOM     19  C   UNL     1       3.847  -4.584   7.371  0.00  0.00    +0.071 C 
ATOM     20  C   UNL     1       2.507  -4.836   9.466  0.00  0.00    +0.041 C 
ATOM     21  C   UNL     1       2.647  -2.616   8.337  0.00  0.00    +0.041 C 
BRANCH  11  22
ATOM     22  C   UNL     1       6.232  -4.364   5.402  0.00  0.00    +0.342 C 
ATOM     23  O   UNL     1       6.988  -3.559   5.912  0.00  0.00    -0.245 OA
BRANCH  22  24
ATOM     24  O   UNL     1       6.640  -5.632   5.189  0.00  0.00    -0.461 OA
BRANCH  24  26
ATOM     25  C   UNL     1       8.253  -7.430   5.269  0.00  0.00    +0.048 C 
ATOM     26  C   UNL     1       7.973  -5.960   5.588  0.00  0.00    +0.229 C 
ENDBRANCH  24  26
ENDBRANCH  22  24
ENDBRANCH  11  22
ENDBRANCH   1  15
BRANCH   7  27
ATOM     27  C   UNL     1       8.668   0.109  -1.330  0.00  0.00    +0.180 C 
BRANCH  27  28
ATOM     28  C   UNL     1      10.061  -0.422  -1.550  0.00  0.00    +0.230 C 
ATOM     29  O   UNL     1      10.294  -1.601  -1.385  0.00  0.00    -0.274 OA
ATOM     30  N   UNL     1      11.047   0.413  -1.932  0.00  0.00    -0.300 N 
ATOM     31  C   UNL     1      10.782   1.844  -2.131  0.00  0.00    +0.108 C 
ATOM     32  C   UNL     1      11.777   2.652  -1.292  0.00  0.00    +0.019 C 
ATOM     33  C   UNL     1      13.203   2.222  -1.647  0.00  0.00    +0.003 C 
ATOM     34  C   UNL     1      13.387   0.739  -1.319  0.00  0.00    +0.019 C 
ATOM     35  C   UNL     1      12.411  -0.090  -2.151  0.00  0.00    +0.108 C 
ENDBRANCH  27  28
ENDBRANCH   7  27
TORSDOF 6
