REMARK  Name = ZINC05485258
REMARK  4 active torsions:
REMARK  status: ('A' for Active; 'I' for Inactive)
REMARK    1  A    between atoms: C_4  and  S_7
REMARK    2  A    between atoms: S_7  and  N_10
REMARK    3  A    between atoms: N_16  and  S_17
REMARK    4  A    between atoms: S_17  and  C_20
REMARK                            x       y       z     vdW  Elec       q    Type
REMARK                         _______ _______ _______ _____ _____    ______ ____
ROOT
ATOM      1  N   UNL     1       4.378  -1.079   1.536  0.00  0.00    -0.109 NA
ATOM      2  C   UNL     1       5.501  -1.707   1.813  0.00  0.00    +0.175 A 
ATOM      3  C   UNL     1       6.335  -2.168   0.767  0.00  0.00    +0.049 A 
ATOM      4  C   UNL     1       7.491  -2.814   1.074  0.00  0.00    +0.005 A 
ATOM      5  C   UNL     1       7.839  -3.014   2.421  0.00  0.00    +0.020 A 
ATOM      6  C   UNL     1       7.033  -2.569   3.408  0.00  0.00    +0.114 A 
ATOM      7  N   UNL     1       5.874  -1.914   3.119  0.00  0.00    -0.200 N 
ENDROOT
BRANCH   1   8
ATOM      8  S   UNL     1       3.934  -0.832  -0.041  0.00  0.00    +0.101 S 
ATOM      9  O   UNL     1       3.674  -2.114  -0.595  0.00  0.00    -0.146 OA
ATOM     10  O   UNL     1       4.890   0.060  -0.597  0.00  0.00    -0.146 OA
BRANCH   8  14
ATOM     11  C   UNL     1      -0.017   1.378   0.010  0.00  0.00    +0.000 A 
ATOM     12  C   UNL     1       1.171   2.086   0.002  0.00  0.00    +0.002 A 
ATOM     13  C   UNL     1       2.377   1.411  -0.013  0.00  0.00    +0.029 A 
ATOM     14  C   UNL     1       2.396   0.029  -0.020  0.00  0.00    +0.113 A 
ATOM     15  C   UNL     1       1.208  -0.679  -0.012  0.00  0.00    +0.029 A 
ATOM     16  C   UNL     1       0.002  -0.004   0.002  0.00  0.00    +0.002 A 
ENDBRANCH   8  14
ENDBRANCH   1   8
BRANCH   7  17
ATOM     17  S   UNL     1       4.905  -1.371   4.348  0.00  0.00    +0.085 S 
ATOM     18  O   UNL     1       5.744  -1.208   5.484  0.00  0.00    -0.148 OA
ATOM     19  O   UNL     1       4.130  -0.307   3.814  0.00  0.00    -0.148 OA
BRANCH  17  20
ATOM     20  C   UNL     1       3.779  -2.670   4.736  0.00  0.00    +0.111 A 
ATOM     21  C   UNL     1       2.564  -2.749   4.082  0.00  0.00    +0.029 A 
ATOM     22  C   UNL     1       1.680  -3.767   4.386  0.00  0.00    +0.002 A 
ATOM     23  C   UNL     1       2.012  -4.707   5.344  0.00  0.00    +0.000 A 
ATOM     24  C   UNL     1       3.227  -4.628   5.998  0.00  0.00    +0.002 A 
ATOM     25  C   UNL     1       4.113  -3.612   5.690  0.00  0.00    +0.029 A 
ENDBRANCH  17  20
ENDBRANCH   7  17
TORSDOF 4
