REMARK  Name = ZINC13174486
REMARK  9 active torsions:
REMARK  status: ('A' for Active; 'I' for Inactive)
REMARK    1  A    between atoms: C_1  and  C_2
REMARK    2  A    between atoms: C_5  and  C_34
REMARK    3  A    between atoms: C_6  and  N_8
REMARK    4  A    between atoms: C_9  and  C_11
REMARK    5  A    between atoms: C_11  and  S_12
REMARK    6  A    between atoms: S_12  and  C_13
REMARK    7  A    between atoms: C_14  and  C_32
REMARK    8  A    between atoms: C_15  and  C_25
REMARK    9  A    between atoms: C_30  and  C_31
REMARK                            x       y       z     vdW  Elec       q    Type
REMARK                         _______ _______ _______ _____ _____    ______ ____
ROOT
ATOM      1  C   UNL     1       0.531  -2.757   7.655  0.00  0.00    +0.080 C 
ATOM      2  C   UNL     1       0.632  -2.206   8.894  0.00  0.00    +0.069 C 
ATOM      3  C   UNL     1       0.751  -3.068  10.117  0.00  0.00    +0.097 C 
ATOM      4  C   UNL     1       1.171  -4.470   9.755  0.00  0.00    +0.024 C 
ATOM      5  C   UNL     1       1.045  -4.928   8.492  0.00  0.00    +0.016 C 
ATOM      6  N   UNL     1       0.539  -4.124   7.505  0.00  0.00    -0.311 N 
ATOM      7  C   UNL     1       1.447  -6.338   8.133  0.00  0.00    +0.051 C 
ATOM      8  C   UNL     1       2.603  -6.787   9.029  0.00  0.00    +0.014 C 
ATOM      9  C   UNL     1       2.151  -6.692  10.490  0.00  0.00    +0.080 C 
ATOM     10  C   UNL     1       1.699  -5.285  10.772  0.00  0.00    +0.162 C 
ATOM     11  O   UNL     1       1.793  -4.844  11.901  0.00  0.00    -0.292 OA
ATOM     12  H   UNL     1       0.186  -4.521   6.693  0.00  0.00    +0.152 HD
ENDROOT
BRANCH   3  13
ATOM     13  C   UNL     1      -0.582  -3.118  10.818  0.00  0.00    -0.032 A 
ATOM     14  C   UNL     1      -1.667  -3.710  10.198  0.00  0.00    +0.005 A 
ATOM     15  C   UNL     1      -2.890  -3.756  10.841  0.00  0.00    +0.000 A 
ATOM     16  C   UNL     1      -3.028  -3.210  12.104  0.00  0.00    +0.000 A 
ATOM     17  C   UNL     1      -1.943  -2.619  12.723  0.00  0.00    +0.003 A 
ATOM     18  C   UNL     1      -0.719  -2.577  12.082  0.00  0.00    -0.046 A 
ATOM     19  C   UNL     1       0.466  -1.938  12.760  0.00  0.00    +0.044 C 
ENDBRANCH   3  13
BRANCH   2  20
ATOM     20  C   UNL     1       0.625  -0.781   9.035  0.00  0.00    +0.098 C 
ATOM     21  N   UNL     1       0.619   0.349   9.146  0.00  0.00    -0.191 NA
ENDBRANCH   2  20
BRANCH   1  22
ATOM     22  S   UNL     1       0.382  -1.717   6.240  0.00  0.00    -0.100 S 
BRANCH  22  23
ATOM     23  C   UNL     1       0.271  -2.880   4.851  0.00  0.00    +0.171 C 
BRANCH  23  25
ATOM     24  N   UNL     1       0.040  -2.770   2.391  0.00  0.00    -0.285 N 
ATOM     25  C   UNL     1       0.139  -2.111   3.562  0.00  0.00    +0.227 C 
ATOM     26  O   UNL     1       0.121  -0.898   3.579  0.00  0.00    -0.275 OA
ATOM     27  H   UNL     1      -0.027  -3.738   2.384  0.00  0.00    +0.155 HD
BRANCH  24  33
ATOM     28  C   UNL     1       1.246   1.262  -0.150  0.00  0.00    +0.044 C 
ATOM     29  C   UNL     1       0.611  -0.102  -0.074  0.00  0.00    -0.049 A 
ATOM     30  C   UNL     1       0.021  -0.653  -1.197  0.00  0.00    +0.004 A 
ATOM     31  C   UNL     1      -0.562  -1.905  -1.131  0.00  0.00    +0.005 A 
ATOM     32  C   UNL     1      -0.558  -2.610   0.057  0.00  0.00    -0.029 A 
ATOM     33  C   UNL     1       0.034  -2.059   1.186  0.00  0.00    +0.037 A 
ATOM     34  C   UNL     1       0.623  -0.804   1.116  0.00  0.00    +0.027 A 
ATOM     35  C   UNL     1      -1.194  -3.974   0.127  0.00  0.00    +0.045 C 
ENDBRANCH  24  33
ENDBRANCH  23  25
ENDBRANCH  22  23
ENDBRANCH   1  22
TORSDOF 6
