REMARK  Name = ZINC09043950
REMARK  9 active torsions:
REMARK  status: ('A' for Active; 'I' for Inactive)
REMARK    1  A    between atoms: C_1  and  C_2
REMARK    2  A    between atoms: C_5  and  N_9
REMARK    3  A    between atoms: C_6  and  C_8
REMARK    4  A    between atoms: C_10  and  C_12
REMARK    5  A    between atoms: C_13  and  C_37
REMARK    6  A    between atoms: N_19  and  C_22
REMARK    7  A    between atoms: C_22  and  C_23
REMARK    8  A    between atoms: C_23  and  C_25
REMARK    9  A    between atoms: N_31  and  C_36
REMARK                            x       y       z     vdW  Elec       q    Type
REMARK                         _______ _______ _______ _____ _____    ______ ____
ROOT
ATOM      1  C   UNL     1       1.440   5.729   0.005  0.00  0.00    +0.080 A 
ATOM      2  C   UNL     1       0.175   5.218   0.009  0.00  0.00    -0.017 A 
ATOM      3  C   UNL     1      -0.015   3.834  -0.009  0.00  0.00    +0.076 A 
ATOM      4  C   UNL     1       1.162   3.051  -0.029  0.00  0.00    +0.116 A 
ATOM      5  S   UNL     1       2.458   4.264  -0.024  0.00  0.00    -0.064 S 
ATOM      6  N   UNL     1       1.121   1.725  -0.046  0.00  0.00    -0.230 NA
ATOM      7  C   UNL     1      -0.012   1.076  -0.045  0.00  0.00    +0.203 A 
ATOM      8  N   UNL     1      -1.206   1.717  -0.031  0.00  0.00    -0.291 N 
ATOM      9  C   UNL     1      -1.279   3.063  -0.008  0.00  0.00    +0.263 A 
ATOM     10  O   UNL     1      -2.357   3.630   0.009  0.00  0.00    -0.267 OA
ATOM     11  C   UNL     1      -1.014   6.143   0.032  0.00  0.00    +0.046 C 
ENDROOT
BRANCH   1  13
ATOM     12  N   UNL     1       3.169   7.447   0.013  0.00  0.00    -0.281 N 
ATOM     13  C   UNL     1       1.858   7.134   0.020  0.00  0.00    +0.255 C 
ATOM     14  O   UNL     1       1.022   8.018   0.039  0.00  0.00    -0.269 OA
ATOM     15  H   UNL     1       3.836   6.745   0.078  0.00  0.00    +0.155 HD
BRANCH  12  20
ATOM     16  C   UNL     1       4.788  12.867  -0.399  0.00  0.00    +0.044 C 
ATOM     17  C   UNL     1       4.359  11.427  -0.290  0.00  0.00    -0.050 A 
ATOM     18  C   UNL     1       3.127  11.036  -0.782  0.00  0.00    +0.005 A 
ATOM     19  C   UNL     1       2.729   9.717  -0.683  0.00  0.00    +0.024 A 
ATOM     20  C   UNL     1       3.569   8.783  -0.089  0.00  0.00    +0.037 A 
ATOM     21  C   UNL     1       4.803   9.180   0.408  0.00  0.00    -0.029 A 
ATOM     22  C   UNL     1       5.196  10.500   0.301  0.00  0.00    +0.008 A 
ATOM     23  C   UNL     1       5.715   8.171   1.058  0.00  0.00    +0.045 C 
ENDBRANCH  12  20
ENDBRANCH   1  13
BRANCH   8  24
ATOM     24  C   UNL     1      -2.442   0.932  -0.035  0.00  0.00    +0.205 C 
BRANCH  24  25
ATOM     25  C   UNL     1      -2.860   0.644   1.384  0.00  0.00    +0.183 C 
ATOM     26  O   UNL     1      -2.190   1.054   2.308  0.00  0.00    -0.290 OA
BRANCH  25  27
ATOM     27  C   UNL     1      -4.077  -0.134   1.647  0.00  0.00    +0.021 A 
ATOM     28  C   UNL     1      -4.852  -0.609   0.582  0.00  0.00    +0.015 A 
ATOM     29  C   UNL     1      -5.993  -1.338   0.829  0.00  0.00    +0.048 A 
ATOM     30  C   UNL     1      -6.380  -1.606   2.135  0.00  0.00    +0.143 A 
ATOM     31  C   UNL     1      -5.612  -1.134   3.204  0.00  0.00    +0.079 A 
ATOM     32  C   UNL     1      -4.464  -0.408   2.966  0.00  0.00    +0.038 A 
ATOM     33  N   UNL     1      -6.021  -1.414   4.517  0.00  0.00    -0.269 N 
ATOM     34  C   UNL     1      -6.943  -2.380   4.723  0.00  0.00    +0.257 C 
ATOM     35  O   UNL     1      -7.333  -2.620   5.846  0.00  0.00    -0.272 OA
ATOM     36  C   UNL     1      -7.484  -3.158   3.551  0.00  0.00    +0.325 C 
ATOM     37  O   UNL     1      -7.503  -2.326   2.388  0.00  0.00    -0.481 OA
ATOM     38  C   UNL     1      -5.456  -0.672   5.646  0.00  0.00    +0.138 C 
ENDBRANCH  25  27
ENDBRANCH  24  25
ENDBRANCH   8  24
TORSDOF 5
