REMARK  Name = ZINC67163834
REMARK  5 active torsions:
REMARK  status: ('A' for Active; 'I' for Inactive)
REMARK    1  A    between atoms: C_1  and  C_2
REMARK    2  A    between atoms: C_5  and  N_25
REMARK    3  A    between atoms: C_7  and  C_8
REMARK    4  A    between atoms: N_10  and  C_11
REMARK    5  A    between atoms: C_17  and  C_19
REMARK                            x       y       z     vdW  Elec       q    Type
REMARK                         _______ _______ _______ _____ _____    ______ ____
ROOT
ATOM      1  C   UNL     1       1.218  -0.669   2.286  0.00  0.00    +0.245 C 
ATOM      2  O   UNL     1       0.925   0.507   2.197  0.00  0.00    -0.270 OA
ATOM      3  N   UNL     1       1.373  -1.235   3.499  0.00  0.00    -0.308 N 
ATOM      4  H   UNL     1       1.607  -2.174   3.570  0.00  0.00    +0.149 HD
ENDROOT
BRANCH   3   5
ATOM      5  C   UNL     1       1.187  -0.433   4.711  0.00  0.00    +0.076 C 
ATOM      6  C   UNL     1       2.491   0.295   5.045  0.00  0.00    +0.041 C 
ATOM      7  C   UNL     1       2.283   1.159   6.293  0.00  0.00    +0.109 C 
ATOM      8  N   UNL     1       1.771   0.310   7.377  0.00  0.00    -0.301 N 
ATOM      9  C   UNL     1       0.573  -0.503   7.131  0.00  0.00    +0.109 C 
ATOM     10  C   UNL     1       0.800  -1.349   5.874  0.00  0.00    +0.041 C 
ATOM     11  C   UNL     1       2.390   0.277   8.574  0.00  0.00    +0.219 C 
ATOM     12  O   UNL     1       3.325   1.017   8.794  0.00  0.00    -0.275 OA
BRANCH  11  13
ATOM     13  C   UNL     1       1.920  -0.680   9.639  0.00  0.00    +0.075 C 
ATOM     14  C   UNL     1       0.654  -0.129  10.297  0.00  0.00    +0.013 C 
ATOM     15  C   UNL     1       0.176  -1.100  11.379  0.00  0.00    +0.001 C 
ATOM     16  C   UNL     1       1.271  -1.265  12.435  0.00  0.00    +0.000 C 
ATOM     17  C   UNL     1       2.537  -1.816  11.777  0.00  0.00    +0.001 C 
ATOM     18  C   UNL     1       3.014  -0.845  10.696  0.00  0.00    +0.013 C 
ENDBRANCH  11  13
ENDBRANCH   3   5
BRANCH   1  25
ATOM     19  C   UNL     1       0.585   0.472  -0.296  0.00  0.00    +0.044 C 
ATOM     20  C   UNL     1       1.104  -0.938  -0.188  0.00  0.00    -0.038 A 
ATOM     21  C   UNL     1       1.286  -1.697  -1.325  0.00  0.00    +0.006 A 
ATOM     22  C   UNL     1       1.762  -2.993  -1.228  0.00  0.00    +0.033 A 
ATOM     23  C   UNL     1       2.058  -3.536   0.010  0.00  0.00    +0.127 A 
ATOM     24  C   UNL     1       1.881  -2.788   1.155  0.00  0.00    +0.046 A 
ATOM     25  C   UNL     1       1.406  -1.478   1.063  0.00  0.00    +0.042 A 
BRANCH  23  26
ATOM     26  N   UNL     1       2.566  -4.923   0.105  0.00  0.00    +0.056 N 
ATOM     27  O   UNL     1       2.722  -5.580  -0.898  0.00  0.00    -0.126 OA
ATOM     28  O   UNL     1       2.826  -5.399   1.186  0.00  0.00    -0.126 OA
ENDBRANCH  23  26
ENDBRANCH   1  25
TORSDOF 4
