REMARK  Name = ZINC00207985
REMARK  5 active torsions:
REMARK  status: ('A' for Active; 'I' for Inactive)
REMARK    1  A    between atoms: C_3  and  C_8
REMARK    2  A    between atoms: C_5  and  O_7
REMARK    3  A    between atoms: C_13  and  N_22
REMARK    4  A    between atoms: C_17  and  N_21
REMARK    5  A    between atoms: C_18  and  C_19
REMARK                            x       y       z     vdW  Elec       q    Type
REMARK                         _______ _______ _______ _____ _____    ______ ____
ROOT
ATOM      1  C   UNL     1      -0.076   5.351   0.032  0.00  0.00    +0.098 C 
ATOM      2  C   UNL     1      -0.790   5.844  -1.199  0.00  0.00    +0.008 A 
ATOM      3  C   UNL     1      -0.137   5.821  -2.419  0.00  0.00    +0.010 A 
ATOM      4  C   UNL     1      -0.774   6.270  -3.558  0.00  0.00    +0.023 A 
ATOM      5  C   UNL     1      -2.077   6.747  -3.482  0.00  0.00    +0.028 A 
ATOM      6  C   UNL     1      -2.734   6.771  -2.261  0.00  0.00    +0.069 A 
ATOM      7  C   UNL     1      -2.090   6.319  -1.116  0.00  0.00    +0.136 A 
ATOM      8  O   UNL     1      -2.745   6.349   0.070  0.00  0.00    -0.441 OA
ATOM      9  C   UNL     1      -2.053   6.293   1.220  0.00  0.00    +0.199 C 
ATOM     10  C   UNL     1      -0.781   5.830   1.269  0.00  0.00    +0.098 C 
ENDROOT
BRANCH   1  13
ATOM     11  C   UNL     1      -1.218   1.751   0.017  0.00  0.00    +0.004 A 
ATOM     12  C   UNL     1      -1.237   3.133   0.031  0.00  0.00    +0.005 A 
ATOM     13  C   UNL     1      -0.051   3.844   0.023  0.00  0.00    -0.031 A 
ATOM     14  C   UNL     1       1.157   3.173   0.008  0.00  0.00    +0.050 A 
ATOM     15  C   UNL     1       1.179   1.786   0.000  0.00  0.00    +0.117 A 
ATOM     16  C   UNL     1      -0.013   1.076   0.008  0.00  0.00    +0.045 A 
BRANCH  15  17
ATOM     17  O   UNL     1       2.366   1.125  -0.014  0.00  0.00    -0.507 OA
ATOM     18  H   UNL     1       2.701   0.938  -0.902  0.00  0.00    +0.292 HD
ENDBRANCH  15  17
ENDBRANCH   1  13
BRANCH   9  19
ATOM     19  N   UNL     1      -2.651   6.719   2.379  0.00  0.00    -0.328 N 
ATOM     20  H   UNL     1      -2.164   6.685   3.218  0.00  0.00    +0.145 HD
ATOM     21  H   UNL     1      -3.562   7.054   2.361  0.00  0.00    +0.145 HD
ENDBRANCH   9  19
BRANCH   5  22
ATOM     22  N   UNL     1      -2.724   7.201  -4.634  0.00  0.00    -0.358 N 
ATOM     23  H   UNL     1      -2.264   7.184  -5.487  0.00  0.00    +0.142 HD
ATOM     24  H   UNL     1      -3.634   7.534  -4.579  0.00  0.00    +0.142 HD
ENDBRANCH   5  22
BRANCH  10  25
ATOM     25  C   UNL     1      -0.095   5.795   2.526  0.00  0.00    +0.101 C 
ATOM     26  N   UNL     1       0.449   5.768   3.522  0.00  0.00    -0.191 NA
ENDBRANCH  10  25
TORSDOF 5
