REMARK  Name = ZINC21927356
REMARK  6 active torsions:
REMARK  status: ('A' for Active; 'I' for Inactive)
REMARK    1  A    between atoms: C_4  and  N_7
REMARK    2  A    between atoms: N_10  and  C_13
REMARK    3  A    between atoms: C_13  and  C_14
REMARK    4  A    between atoms: C_14  and  C_15
REMARK    5  A    between atoms: C_15  and  N_16
REMARK    6  A    between atoms: C_17  and  C_19
REMARK                            x       y       z     vdW  Elec       q    Type
REMARK                         _______ _______ _______ _____ _____    ______ ____
ROOT
ATOM      1  N   UNL     1      -8.370   1.264   1.669  0.00  0.00    -0.314 N 
ATOM      2  C   UNL     1      -7.446   0.303   1.470  0.00  0.00    +0.234 C 
ATOM      3  O   UNL     1      -6.902  -0.221   2.420  0.00  0.00    -0.274 OA
ATOM      4  H   UNL     1      -8.863   1.738   0.808  0.00  0.00    +0.149 HD
ENDROOT
BRANCH   2   5
ATOM      5  C   UNL     1      -7.089  -0.121   0.069  0.00  0.00    +0.161 C 
ATOM      6  C   UNL     1      -8.102  -1.161  -0.456  0.00  0.00    +0.033 C 
ATOM      7  C   UNL     1      -7.263  -2.155  -1.286  0.00  0.00    +0.021 C 
ATOM      8  C   UNL     1      -5.813  -1.631  -1.192  0.00  0.00    +0.108 C 
ATOM      9  N   UNL     1      -5.784  -0.831   0.059  0.00  0.00    -0.297 N 
ATOM     10  C   UNL     1      -4.727   0.070   0.049  0.00  0.00    +0.186 A 
ATOM     11  N   UNL     1      -4.753   1.389   0.048  0.00  0.00    -0.124 NA
ATOM     12  N   UNL     1      -3.573   2.096   0.043  0.00  0.00    -0.124 NA
ATOM     13  C   UNL     1      -2.422   1.453   0.029  0.00  0.00    +0.192 A 
ATOM     14  S   UNL     1      -2.969  -0.247   0.035  0.00  0.00    -0.015 S 
ATOM     15  N   UNL     1      -1.127   1.964   0.018  0.00  0.00    -0.249 N 
ATOM     16  C   UNL     1      -0.800   3.394   0.017  0.00  0.00    +0.116 C 
ATOM     17  C   UNL     1       0.685   3.480   0.433  0.00  0.00    +0.029 C 
ATOM     18  C   UNL     1       1.214   2.092   0.002  0.00  0.00    +0.098 C 
ATOM     19  C   UNL     1      -0.014   1.209   0.009  0.00  0.00    +0.221 C 
ATOM     20  O   UNL     1       0.002  -0.004   0.002  0.00  0.00    -0.275 OA
ENDBRANCH   2   5
BRANCH   1  21
ATOM     21  C   UNL     1      -8.717   1.676   3.031  0.00  0.00    +0.105 C 
BRANCH  21  22
ATOM     22  C   UNL     1      -9.782   2.773   2.977  0.00  0.00    +0.034 C 
BRANCH  22  23
ATOM     23  C   UNL     1     -10.145   3.203   4.399  0.00  0.00    +0.086 C 
BRANCH  23  27
ATOM     24  N   UNL     1     -12.290   6.798   4.969  0.00  0.00    +0.383 N 
ATOM     25  C   UNL     1     -12.827   5.572   5.575  0.00  0.00    -0.063 C 
ATOM     26  C   UNL     1     -11.712   4.529   5.684  0.00  0.00    +0.066 C 
ATOM     27  N   UNL     1     -11.167   4.256   4.347  0.00  0.00    -0.306 NA
ATOM     28  C   UNL     1     -10.630   5.482   3.740  0.00  0.00    +0.066 C 
ATOM     29  C   UNL     1     -11.745   6.525   3.631  0.00  0.00    -0.063 C 
ATOM     30  H   UNL     1     -11.467   7.159   5.603  0.00  0.00    -0.081 HD
BRANCH  24  34
ATOM     31  C   UNL     1     -14.969   9.723   3.388  0.00  0.00    -0.000 C 
ATOM     32  C   UNL     1     -13.783  10.205   4.225  0.00  0.00    -0.002 C 
ATOM     33  C   UNL     1     -12.718   9.108   4.280  0.00  0.00    -0.015 C 
ATOM     34  C   UNL     1     -13.313   7.851   4.916  0.00  0.00    -0.068 C 
ATOM     35  C   UNL     1     -14.499   7.368   4.079  0.00  0.00    -0.015 C 
ATOM     36  C   UNL     1     -15.564   8.465   4.024  0.00  0.00    -0.002 C 
ENDBRANCH  24  34
ENDBRANCH  23  27
ENDBRANCH  22  23
ENDBRANCH  21  22
ENDBRANCH   1  21
TORSDOF 6
