REMARK  Name = ZINC38759851
REMARK  6 active torsions:
REMARK  status: ('A' for Active; 'I' for Inactive)
REMARK    1  A    between atoms: C_1  and  C_2
REMARK    2  A    between atoms: C_2  and  N_3
REMARK    3  A    between atoms: C_16  and  C_18
REMARK    4  A    between atoms: C_20  and  O_36
REMARK    5  A    between atoms: N_22  and  C_35
REMARK    6  A    between atoms: N_25  and  C_28
REMARK                            x       y       z     vdW  Elec       q    Type
REMARK                         _______ _______ _______ _____ _____    ______ ____
ROOT
ATOM      1  C   UNL     1       1.254  -2.864   1.575  0.00  0.00    +0.146 C 
ATOM      2  C   UNL     1       0.654  -3.379   0.264  0.00  0.00    +0.219 C 
ATOM      3  N   UNL     1       1.603  -4.285  -0.385  0.00  0.00    -0.262 N 
ATOM      4  C   UNL     1       2.926  -4.062  -0.319  0.00  0.00    +0.317 C 
ATOM      5  O   UNL     1       3.680  -4.773  -0.955  0.00  0.00    -0.252 OA
ATOM      6  N   UNL     1       3.436  -3.072   0.432  0.00  0.00    -0.194 N 
ATOM      7  C   UNL     1       2.674  -2.420   1.331  0.00  0.00    +0.236 C 
ATOM      8  O   UNL     1       3.128  -1.476   1.942  0.00  0.00    -0.274 OA
ATOM      9  C   UNL     1       1.103  -5.452  -1.116  0.00  0.00    +0.136 C 
ENDROOT
BRANCH   1  23
ATOM     10  N   UNL     1       1.206  -3.400   3.969  0.00  0.00    -0.293 NA
ATOM     11  C   UNL     1       2.464  -2.709   4.287  0.00  0.00    +0.090 C 
ATOM     12  C   UNL     1       3.577  -3.744   4.495  0.00  0.00    +0.053 C 
ATOM     13  C   UNL     1       3.543  -4.705   3.333  0.00  0.00    -0.016 A 
ATOM     14  C   UNL     1       4.545  -5.651   2.897  0.00  0.00    +0.003 A 
ATOM     15  C   UNL     1       5.817  -5.979   3.377  0.00  0.00    +0.010 A 
ATOM     16  C   UNL     1       6.508  -6.950   2.695  0.00  0.00    +0.001 A 
ATOM     17  C   UNL     1       5.980  -7.584   1.583  0.00  0.00    +0.002 A 
ATOM     18  C   UNL     1       4.724  -7.280   1.085  0.00  0.00    +0.026 A 
ATOM     19  C   UNL     1       4.000  -6.298   1.756  0.00  0.00    +0.047 A 
ATOM     20  N   UNL     1       2.761  -5.766   1.540  0.00  0.00    -0.356 N 
ATOM     21  C   UNL     1       2.494  -4.814   2.486  0.00  0.00    +0.038 A 
ATOM     22  H   UNL     1       2.161  -6.024   0.823  0.00  0.00    +0.166 HD
ATOM     23  C   UNL     1       1.240  -3.983   2.618  0.00  0.00    +0.120 C 
BRANCH  10  25
ATOM     24  C   UNL     1      -0.090  -2.109   5.596  0.00  0.00    +0.020 C 
ATOM     25  C   UNL     1       0.057  -2.499   4.124  0.00  0.00    +0.082 C 
ENDBRANCH  10  25
ENDBRANCH   1  23
BRANCH   6  26
ATOM     26  C   UNL     1       4.783  -2.712   0.278  0.00  0.00    +0.045 A 
ATOM     27  C   UNL     1       5.322  -2.563  -0.992  0.00  0.00    +0.025 A 
ATOM     28  C   UNL     1       6.649  -2.209  -1.141  0.00  0.00    +0.022 A 
ATOM     29  C   UNL     1       7.440  -2.002  -0.025  0.00  0.00    +0.041 A 
ATOM     30  C   UNL     1       6.905  -2.149   1.242  0.00  0.00    +0.022 A 
ATOM     31  C   UNL     1       5.577  -2.498   1.396  0.00  0.00    +0.025 A 
ATOM     32 CL   UNL     1       9.107  -1.558  -0.215  0.00  0.00    -0.084 Cl
ENDBRANCH   6  26
BRANCH   2  33
ATOM     33  O   UNL     1      -0.561  -4.079   0.539  0.00  0.00    -0.373 OA
ATOM     34  H   UNL     1      -0.997  -4.435  -0.248  0.00  0.00    +0.212 HD
ENDBRANCH   2  33
TORSDOF 4
