REMARK  Name = ZINC19981971
REMARK  9 active torsions:
REMARK  status: ('A' for Active; 'I' for Inactive)
REMARK    1  A    between atoms: C_1  and  C_2
REMARK    2  A    between atoms: C_2  and  C_4
REMARK    3  A    between atoms: C_2  and  S_16
REMARK    4  A    between atoms: S_16  and  C_17
REMARK    5  A    between atoms: C_20  and  C_28
REMARK    6  A    between atoms: N_21  and  C_22
REMARK    7  A    between atoms: C_28  and  C_30
REMARK    8  A    between atoms: C_28  and  O_31
REMARK    9  A    between atoms: O_31  and  C_32
REMARK                            x       y       z     vdW  Elec       q    Type
REMARK                         _______ _______ _______ _____ _____    ______ ____
ROOT
ATOM      1  C   UNL     1      -0.378  -6.701  -0.972  0.00  0.00    +0.197 A 
ATOM      2  N   UNL     1       0.711  -7.373  -0.677  0.00  0.00    -0.122 NA
ATOM      3  N   UNL     1       0.486  -8.634  -0.773  0.00  0.00    -0.129 NA
ATOM      4  C   UNL     1      -0.746  -8.844  -1.141  0.00  0.00    +0.179 A 
ATOM      5  N   UNL     1      -1.343  -7.619  -1.282  0.00  0.00    -0.271 N 
ENDROOT
BRANCH   5   6
ATOM      6  C   UNL     1      -2.668  -7.361  -1.663  0.00  0.00    +0.050 A 
ATOM      7  C   UNL     1      -3.717  -7.766  -0.850  0.00  0.00    +0.026 A 
ATOM      8  C   UNL     1      -5.021  -7.505  -1.225  0.00  0.00    +0.002 A 
ATOM      9  C   UNL     1      -5.281  -6.851  -2.415  0.00  0.00    +0.000 A 
ATOM     10  C   UNL     1      -4.238  -6.450  -3.230  0.00  0.00    +0.002 A 
ATOM     11  C   UNL     1      -2.932  -6.704  -2.857  0.00  0.00    +0.026 A 
ENDBRANCH   5   6
BRANCH   4  12
ATOM     12  C   UNL     1      -1.395 -10.185  -1.370  0.00  0.00    +0.238 C 
ATOM     13  C   UNL     1      -0.902 -10.771  -2.695  0.00  0.00    +0.060 C 
BRANCH  12  14
ATOM     14  O   UNL     1      -1.050 -11.069  -0.301  0.00  0.00    -0.479 OA
BRANCH  14  15
ATOM     15  C   UNL     1      -1.907 -12.094  -0.047  0.00  0.00    +0.157 A 
ATOM     16  C   UNL     1      -2.994 -12.312  -0.879  0.00  0.00    +0.048 A 
ATOM     17  C   UNL     1      -3.864 -13.355  -0.620  0.00  0.00    +0.004 A 
ATOM     18  C   UNL     1      -3.651 -14.181   0.469  0.00  0.00    +0.003 A 
ATOM     19  C   UNL     1      -2.567 -13.966   1.301  0.00  0.00    +0.042 A 
ATOM     20  C   UNL     1      -1.692 -12.927   1.043  0.00  0.00    +0.165 A 
ATOM     21  F   UNL     1      -0.630 -12.720   1.853  0.00  0.00    -0.202 F 
ENDBRANCH  14  15
ENDBRANCH  12  14
ENDBRANCH   4  12
BRANCH   1  22
ATOM     22  S   UNL     1      -0.559  -4.948  -0.975  0.00  0.00    -0.075 S 
BRANCH  22  24
ATOM     23  C   UNL     1       1.373  -4.943   0.957  0.00  0.00    +0.027 C 
ATOM     24  C   UNL     1       1.109  -4.459  -0.470  0.00  0.00    +0.117 C 
BRANCH  24  25
ATOM     25  C   UNL     1       1.229  -2.957  -0.521  0.00  0.00    +0.124 A 
ATOM     26  N   UNL     1       0.097  -2.216  -0.396  0.00  0.00    -0.309 N 
ATOM     27  H   UNL     1      -0.874  -2.713  -0.261  0.00  0.00    +0.170 HD
ATOM     28  C   UNL     1       0.152  -0.864  -0.435  0.00  0.00    +0.259 A 
ATOM     29  O   UNL     1      -0.854  -0.187  -0.325  0.00  0.00    -0.267 OA
ATOM     30  C   UNL     1       1.473  -0.245  -0.618  0.00  0.00    +0.065 A 
ATOM     31  C   UNL     1       1.638   1.138  -0.671  0.00  0.00    +0.015 A 
ATOM     32  C   UNL     1       2.899   1.665  -0.843  0.00  0.00    +0.001 A 
ATOM     33  C   UNL     1       4.003   0.830  -0.963  0.00  0.00    +0.002 A 
ATOM     34  C   UNL     1       3.861  -0.538  -0.913  0.00  0.00    +0.028 A 
ATOM     35  C   UNL     1       2.593  -1.096  -0.739  0.00  0.00    +0.078 A 
ATOM     36  N   UNL     1       2.408  -2.439  -0.683  0.00  0.00    -0.233 NA
ENDBRANCH  24  25
ENDBRANCH  22  24
ENDBRANCH   1  22
TORSDOF 7
