REMARK  Name = ZINC38890415
REMARK  5 active torsions:
REMARK  status: ('A' for Active; 'I' for Inactive)
REMARK    1  A    between atoms: C_1  and  C_2
REMARK    2  A    between atoms: C_2  and  C_3
REMARK    3  A    between atoms: C_3  and  N_4
REMARK    4  A    between atoms: C_13  and  C_16
REMARK    5  A    between atoms: C_21  and  C_24
REMARK                            x       y       z     vdW  Elec       q    Type
REMARK                         _______ _______ _______ _____ _____    ______ ____
ROOT
ATOM      1  N   UNL     1       0.865  -1.969   1.171  0.00  0.00    -0.294 N 
ATOM      2  C   UNL     1      -0.198  -2.817   1.706  0.00  0.00    +0.087 C 
ATOM      3  C   UNL     1      -1.508  -2.041   1.794  0.00  0.00    +0.023 C 
ATOM      4  C   UNL     1      -1.969  -1.639   0.392  0.00  0.00    +0.002 C 
ATOM      5  C   UNL     1      -2.172  -2.900  -0.453  0.00  0.00    +0.001 C 
ATOM      6  C   UNL     1      -0.847  -3.655  -0.560  0.00  0.00    +0.013 C 
ATOM      7  C   UNL     1      -0.384  -4.051   0.825  0.00  0.00    +0.081 C 
ATOM      8  C   UNL     1       0.947  -4.753   0.676  0.00  0.00    +0.178 C 
ATOM      9  C   UNL     1       2.083  -3.995   0.583  0.00  0.00    +0.141 C 
ATOM     10  C   UNL     1       1.956  -2.527   0.606  0.00  0.00    +0.255 C 
ATOM     11  O   UNL     1       2.827  -1.826   0.127  0.00  0.00    -0.270 OA
ATOM     12  O   UNL     1       1.012  -6.093   0.637  0.00  0.00    -0.291 OA
ENDROOT
BRANCH   9  13
ATOM     13  C   UNL     1       3.400  -4.634   0.456  0.00  0.00    +0.258 C 
ATOM     14  O   UNL     1       3.489  -5.847   0.434  0.00  0.00    -0.270 OA
ATOM     15  N   UNL     1       4.511  -3.875   0.365  0.00  0.00    -0.260 N 
ATOM     16  C   UNL     1       5.756  -4.479   0.245  0.00  0.00    +0.165 A 
ATOM     17  N   UNL     1       6.937  -3.905   0.151  0.00  0.00    -0.230 NA
ATOM     18  C   UNL     1       8.038  -4.625   0.042  0.00  0.00    +0.047 A 
ATOM     19  C   UNL     1       7.894  -5.973   0.033  0.00  0.00    +0.071 A 
ATOM     20  S   UNL     1       6.122  -6.120   0.193  0.00  0.00    -0.060 S 
ATOM     21  C   UNL     1       9.394  -3.978  -0.067  0.00  0.00    +0.066 C 
ATOM     22  H   UNL     1       4.440  -2.908   0.383  0.00  0.00    +0.157 HD
ENDBRANCH   9  13
BRANCH   1  23
ATOM     23  C   UNL     1       0.742  -0.511   1.242  0.00  0.00    +0.108 C 
BRANCH  23  25
ATOM     24  C   UNL     1       1.398   1.527   2.530  0.00  0.00    +0.005 C 
ATOM     25  C   UNL     1       1.425  -0.003   2.513  0.00  0.00    +0.016 C 
ENDBRANCH  23  25
ENDBRANCH   1  23
TORSDOF 3
