REMARK  Name = ZINC23942081
REMARK  7 active torsions:
REMARK  status: ('A' for Active; 'I' for Inactive)
REMARK    1  A    between atoms: C_1  and  C_2
REMARK    2  A    between atoms: C_5  and  C_8
REMARK    3  A    between atoms: N_11  and  C_13
REMARK    4  A    between atoms: C_13  and  C_15
REMARK    5  A    between atoms: C_13  and  C_16
REMARK    6  A    between atoms: N_18  and  C_19
REMARK    7  A    between atoms: C_25  and  C_27
REMARK                            x       y       z     vdW  Elec       q    Type
REMARK                         _______ _______ _______ _____ _____    ______ ____
ROOT
ATOM      1  C   UNL     1      -1.222   2.116   0.020  0.00  0.00    +0.212 C 
ATOM      2  C   UNL     1      -1.239   3.006  -1.225  0.00  0.00    +0.044 C 
ENDROOT
BRANCH   1   6
ATOM      3  C   UNL     1       1.262  -0.390  -0.012  0.00  0.00    +0.205 A 
ATOM      4  N   UNL     1       2.006   0.725  -0.013  0.00  0.00    -0.108 NA
ATOM      5  N   UNL     1       1.194   1.727  -0.000  0.00  0.00    -0.045 NA
ATOM      6  N   UNL     1      -0.015   1.284   0.009  0.00  0.00    -0.151 N 
ATOM      7  N   UNL     1       0.002  -0.004   0.002  0.00  0.00    -0.130 NA
BRANCH   3  12
ATOM      8  C   UNL     1       3.197  -5.815  -0.059  0.00  0.00    +0.044 C 
ATOM      9  C   UNL     1       2.691  -4.396  -0.047  0.00  0.00    -0.050 A 
ATOM     10  C   UNL     1       3.589  -3.344  -0.049  0.00  0.00    +0.004 A 
ATOM     11  C   UNL     1       3.131  -2.042  -0.038  0.00  0.00    +0.012 A 
ATOM     12  C   UNL     1       1.761  -1.789  -0.024  0.00  0.00    +0.023 A 
ATOM     13  C   UNL     1       0.861  -2.852  -0.015  0.00  0.00    +0.012 A 
ATOM     14  C   UNL     1       1.330  -4.150  -0.032  0.00  0.00    +0.004 A 
ENDBRANCH   3  12
ENDBRANCH   1   6
BRANCH   1  15
ATOM     15  C   UNL     1      -1.226   2.979   1.255  0.00  0.00    +0.239 C 
ATOM     16  O   UNL     1      -0.312   2.907   2.048  0.00  0.00    -0.273 OA
ATOM     17  N   UNL     1      -2.247   3.831   1.478  0.00  0.00    -0.310 N 
ATOM     18  H   UNL     1      -3.076   3.896   0.758  0.00  0.00    +0.149 HD
BRANCH  17  19
ATOM     19  C   UNL     1      -2.251   4.670   2.679  0.00  0.00    +0.076 C 
ATOM     20  C   UNL     1      -1.440   5.941   2.416  0.00  0.00    +0.022 C 
ATOM     21  C   UNL     1      -1.445   6.817   3.670  0.00  0.00    +0.002 C 
ATOM     22  C   UNL     1      -2.885   7.195   4.023  0.00  0.00    +0.000 C 
ATOM     23  C   UNL     1      -3.696   5.924   4.286  0.00  0.00    +0.005 C 
ATOM     24  C   UNL     1      -3.691   5.048   3.031  0.00  0.00    +0.006 C 
ATOM     25  C   UNL     1      -4.502   3.777   3.295  0.00  0.00    +0.009 C 
ENDBRANCH  17  19
ENDBRANCH   1  15
TORSDOF 4
