REMARK  Name = ZINC60154534
REMARK  10 active torsions:
REMARK  status: ('A' for Active; 'I' for Inactive)
REMARK    1  A    between atoms: C_1  and  C_2
REMARK    2  A    between atoms: C_2  and  N_3
REMARK    3  A    between atoms: N_3  and  C_4
REMARK    4  A    between atoms: N_3  and  C_6
REMARK    5  A    between atoms: C_4  and  C_5
REMARK    6  A    between atoms: C_6  and  C_8
REMARK    7  A    between atoms: C_6  and  C_32
REMARK    8  A    between atoms: C_8  and  N_9
REMARK    9  A    between atoms: C_10  and  C_12
REMARK   10  A    between atoms: C_16  and  N_18
REMARK                            x       y       z     vdW  Elec       q    Type
REMARK                         _______ _______ _______ _____ _____    ______ ____
ROOT
ATOM      1  C   UNL     1      -1.282   2.959  -2.247  0.00  0.00    +0.039 A 
ATOM      2  C   UNL     1       0.085   2.673  -2.225  0.00  0.00    +0.013 A 
ATOM      3  C   UNL     1       0.960   3.430  -2.977  0.00  0.00    +0.003 A 
ATOM      4  C   UNL     1       0.489   4.473  -3.752  0.00  0.00    +0.025 A 
ATOM      5  C   UNL     1      -0.869   4.766  -3.780  0.00  0.00    +0.057 A 
ATOM      6  C   UNL     1      -1.757   4.007  -3.034  0.00  0.00    +0.038 A 
ENDROOT
BRANCH   5   7
ATOM      7  N   UNL     1      -1.341   5.823  -4.567  0.00  0.00    -0.188 N 
ATOM      8  C   UNL     1      -2.561   5.741  -5.136  0.00  0.00    +0.240 C 
ATOM      9  O   UNL     1      -3.236   4.741  -5.011  0.00  0.00    -0.273 OA
ATOM     10  C   UNL     1      -3.075   6.926  -5.934  0.00  0.00    +0.093 C 
ATOM     11  C   UNL     1      -2.412   6.865  -7.316  0.00  0.00    +0.040 C 
ATOM     12  C   UNL     1      -2.517   8.180  -8.023  0.00  0.00    -0.030 C 
ATOM     13  C   UNL     1      -2.784   9.303  -7.439  0.00  0.00    -0.030 C 
ATOM     14  C   UNL     1      -3.046   9.435  -5.969  0.00  0.00    +0.040 C 
ATOM     15  C   UNL     1      -2.616   8.194  -5.204  0.00  0.00    +0.092 C 
ATOM     16  C   UNL     1      -1.123   8.148  -5.035  0.00  0.00    +0.234 C 
ATOM     17  O   UNL     1      -0.456   9.155  -5.142  0.00  0.00    -0.274 OA
ATOM     18  N   UNL     1      -0.543   6.961  -4.754  0.00  0.00    -0.227 N 
ATOM     19  H   UNL     1       0.422   6.896  -4.686  0.00  0.00    +0.173 HD
ENDBRANCH   5   7
BRANCH   1  21
ATOM     20  N   UNL     1      -1.751   1.208  -0.601  0.00  0.00    -0.313 N 
ATOM     21  C   UNL     1      -2.222   2.149  -1.442  0.00  0.00    +0.244 C 
ATOM     22  O   UNL     1      -3.419   2.333  -1.540  0.00  0.00    -0.270 OA
ATOM     23  H   UNL     1      -0.795   1.107  -0.472  0.00  0.00    +0.149 HD
BRANCH  20  24
ATOM     24  C   UNL     1      -2.683   0.335   0.118  0.00  0.00    +0.094 C 
BRANCH  24  25
ATOM     25  C   UNL     1      -1.904  -0.551   1.091  0.00  0.00    -0.020 C 
BRANCH  25  26
ATOM     26  C   UNL     1      -2.834  -1.572   1.695  0.00  0.00    -0.059 A 
ATOM     27  C   UNL     1      -3.977  -1.953   1.017  0.00  0.00    +0.002 A 
ATOM     28  C   UNL     1      -4.830  -2.889   1.570  0.00  0.00    +0.000 A 
ATOM     29  C   UNL     1      -4.540  -3.445   2.802  0.00  0.00    +0.000 A 
ATOM     30  C   UNL     1      -3.396  -3.066   3.480  0.00  0.00    +0.000 A 
ATOM     31  C   UNL     1      -2.541  -2.132   2.924  0.00  0.00    +0.002 A 
ENDBRANCH  25  26
BRANCH  25  32
ATOM     32  N   UNL     1      -0.824  -1.238   0.371  0.00  0.00    +0.385 N 
ATOM     33  H   UNL     1      -0.253  -0.558  -0.108  0.00  0.00    -0.081 HD
BRANCH  32  35
ATOM     34  C   UNL     1       0.717  -1.007   2.260  0.00  0.00    -0.017 C 
ATOM     35  C   UNL     1       0.003  -1.987   1.326  0.00  0.00    -0.081 C 
ENDBRANCH  32  35
BRANCH  32  36
ATOM     36  C   UNL     1      -1.403  -2.168  -0.609  0.00  0.00    -0.081 C 
ATOM     37  C   UNL     1      -1.630  -1.436  -1.933  0.00  0.00    -0.017 C 
ENDBRANCH  32  36
ENDBRANCH  25  32
ENDBRANCH  24  25
ENDBRANCH  20  24
ENDBRANCH   1  21
TORSDOF 8
