REMARK  Name = ZINC03572740
REMARK  6 active torsions:
REMARK  status: ('A' for Active; 'I' for Inactive)
REMARK    1  A    between atoms: C_1  and  O_2
REMARK    2  A    between atoms: O_2  and  C_3
REMARK    3  A    between atoms: C_6  and  N_9
REMARK    4  A    between atoms: C_18  and  S_19
REMARK    5  A    between atoms: S_19  and  C_20
REMARK    6  A    between atoms: C_20  and  C_21
REMARK                            x       y       z     vdW  Elec       q    Type
REMARK                         _______ _______ _______ _____ _____    ______ ____
ROOT
ATOM      1  N   UNL     1       1.304  -4.546  -0.363  0.00  0.00    -0.255 N 
ATOM      2  C   UNL     1       1.815  -3.352   0.018  0.00  0.00    +0.268 A 
ATOM      3  O   UNL     1       3.014  -3.174   0.153  0.00  0.00    -0.267 OA
ATOM      4  C   UNL     1       0.861  -2.309   0.253  0.00  0.00    +0.076 A 
ATOM      5  C   UNL     1       1.149  -0.946   0.666  0.00  0.00    -0.023 A 
ATOM      6  C   UNL     1       0.087  -0.124   0.830  0.00  0.00    -0.004 A 
ATOM      7  S   UNL     1      -1.333  -1.117   0.445  0.00  0.00    -0.073 S 
ATOM      8  C   UNL     1      -0.504  -2.628   0.066  0.00  0.00    +0.117 A 
ATOM      9  N   UNL     1      -0.942  -3.823  -0.310  0.00  0.00    -0.215 NA
ATOM     10  C   UNL     1      -0.032  -4.765  -0.519  0.00  0.00    +0.178 A 
ATOM     11  C   UNL     1       0.109   1.314   1.248  0.00  0.00    +0.043 C 
ATOM     12  C   UNL     1       1.495   1.633   1.824  0.00  0.00    +0.005 C 
ATOM     13  C   UNL     1       2.561   1.091   0.866  0.00  0.00    +0.005 C 
ATOM     14  C   UNL     1       2.567  -0.437   0.910  0.00  0.00    +0.037 C 
ENDROOT
BRANCH   1  18
ATOM     15  C   UNL     1       3.938  -7.698  -1.089  0.00  0.00    +0.120 A 
ATOM     16  C   UNL     1       3.582  -6.840  -2.120  0.00  0.00    +0.047 A 
ATOM     17  C   UNL     1       2.711  -5.796  -1.880  0.00  0.00    +0.030 A 
ATOM     18  C   UNL     1       2.190  -5.606  -0.607  0.00  0.00    +0.052 A 
ATOM     19  C   UNL     1       2.550  -6.462   0.425  0.00  0.00    +0.030 A 
ATOM     20  C   UNL     1       3.417  -7.508   0.183  0.00  0.00    +0.047 A 
BRANCH  15  22
ATOM     21  C   UNL     1       5.119  -9.569  -0.219  0.00  0.00    +0.277 C 
ATOM     22  O   UNL     1       4.797  -8.725  -1.326  0.00  0.00    -0.495 OA
ENDBRANCH  15  22
ENDBRANCH   1  18
BRANCH  10  23
ATOM     23  S   UNL     1      -0.574  -6.366  -1.019  0.00  0.00    -0.078 S 
BRANCH  23  24
ATOM     24  C   UNL     1      -2.362  -6.093  -1.064  0.00  0.00    +0.173 C 
BRANCH  24  25
ATOM     25  C   UNL     1      -3.054  -7.365  -1.480  0.00  0.00    +0.231 C 
ATOM     26  O   UNL     1      -2.403  -8.359  -1.721  0.00  0.00    -0.274 OA
ATOM     27  N   UNL     1      -4.398  -7.399  -1.583  0.00  0.00    -0.240 N 
ATOM     28  C   UNL     1      -5.017  -8.537  -1.955  0.00  0.00    +0.303 C 
ATOM     29  O   UNL     1      -4.364  -9.533  -2.197  0.00  0.00    -0.253 OA
ATOM     30  N   UNL     1      -6.360  -8.571  -2.058  0.00  0.00    -0.313 N 
ATOM     31  H   UNL     1      -4.989  -6.498  -1.364  0.00  0.00    +0.159 HD
ATOM     32  H   UNL     1      -6.865  -9.499  -2.361  0.00  0.00    +0.146 HD
ATOM     33  H   UNL     1      -6.952  -7.669  -1.839  0.00  0.00    +0.146 HD
ENDBRANCH  24  25
ENDBRANCH  23  24
ENDBRANCH  10  23
TORSDOF 5
