REMARK  Name = ZINC62039555
REMARK  8 active torsions:
REMARK  status: ('A' for Active; 'I' for Inactive)
REMARK    1  A    between atoms: C_1  and  C_2
REMARK    2  A    between atoms: C_7  and  C_23
REMARK    3  A    between atoms: C_8  and  C_11
REMARK    4  A    between atoms: C_11  and  C_12
REMARK    5  A    between atoms: C_18  and  C_20
REMARK    6  A    between atoms: C_20  and  O_21
REMARK    7  A    between atoms: O_21  and  C_22
REMARK    8  A    between atoms: C_27  and  C_29
REMARK                            x       y       z     vdW  Elec       q    Type
REMARK                         _______ _______ _______ _____ _____    ______ ____
ROOT
ATOM      1  C   UNL     1      -0.696   1.467   0.118  0.00  0.00    +0.045 C 
ATOM      2  C   UNL     1      -0.510  -0.028   0.080  0.00  0.00    -0.034 A 
ATOM      3  C   UNL     1      -0.613  -0.714  -1.142  0.00  0.00    +0.008 A 
ATOM      4  C   UNL     1      -0.445  -2.064  -1.173  0.00  0.00    +0.047 A 
ATOM      5  C   UNL     1      -0.168  -2.754   0.025  0.00  0.00    +0.138 A 
ATOM      6  N   UNL     1       0.037  -4.037   0.284  0.00  0.00    -0.228 NA
ATOM      7  C   UNL     1       0.263  -4.189   1.598  0.00  0.00    +0.093 A 
ATOM      8  C   UNL     1       0.198  -2.963   2.188  0.00  0.00    +0.060 A 
ATOM      9  N   UNL     1      -0.073  -2.056   1.202  0.00  0.00    -0.302 N 
ATOM     10  C   UNL     1      -0.239  -0.701   1.218  0.00  0.00    +0.096 A 
ENDROOT
BRANCH   7  11
ATOM     11  C   UNL     1       0.536  -5.473   2.290  0.00  0.00    +0.003 A 
ATOM     12  C   UNL     1      -0.069  -5.749   3.515  0.00  0.00    +0.013 A 
ATOM     13  C   UNL     1       0.187  -6.944   4.155  0.00  0.00    +0.039 A 
ATOM     14  C   UNL     1       1.045  -7.869   3.582  0.00  0.00    +0.126 A 
ATOM     15  C   UNL     1       1.649  -7.598   2.365  0.00  0.00    -0.015 A 
ATOM     16  C   UNL     1       1.394  -6.408   1.715  0.00  0.00    +0.016 A 
ATOM     17  C   UNL     1       2.583  -8.608   1.747  0.00  0.00    +0.047 C 
ATOM     18  F   UNL     1       1.294  -9.038   4.212  0.00  0.00    -0.205 F 
ENDBRANCH   7  11
BRANCH   8  19
ATOM     19  C   UNL     1       0.389  -2.662   3.653  0.00  0.00    +0.152 C 
BRANCH  19  20
ATOM     20  C   UNL     1      -0.954  -2.608   4.333  0.00  0.00    +0.225 C 
ATOM     21  O   UNL     1      -1.967  -2.795   3.693  0.00  0.00    -0.275 OA
ATOM     22  N   UNL     1      -1.031  -2.352   5.654  0.00  0.00    -0.263 N 
ATOM     23  C   UNL     1      -2.270  -2.302   6.283  0.00  0.00    +0.188 A 
ATOM     24  N   UNL     1      -3.471  -2.481   5.768  0.00  0.00    -0.126 NA
ATOM     25  N   UNL     1      -4.517  -2.404   6.472  0.00  0.00    -0.142 NA
ATOM     26  C   UNL     1      -4.407  -2.136   7.758  0.00  0.00    +0.129 A 
ATOM     27  S   UNL     1      -2.630  -2.004   7.903  0.00  0.00    -0.033 S 
ATOM     28  H   UNL     1      -0.221  -2.202   6.167  0.00  0.00    +0.157 HD
BRANCH  26  29
ATOM     29  C   UNL     1      -5.476  -1.990   8.810  0.00  0.00    +0.224 C 
BRANCH  29  30
ATOM     30  O   UNL     1      -5.731  -3.261   9.411  0.00  0.00    -0.376 OA
ATOM     31  C   UNL     1      -6.734  -3.233  10.428  0.00  0.00    +0.194 C 
ENDBRANCH  29  30
ENDBRANCH  26  29
ENDBRANCH  19  20
ENDBRANCH   8  19
TORSDOF 5
