REMARK  Name = ZINC37065563
REMARK  6 active torsions:
REMARK  status: ('A' for Active; 'I' for Inactive)
REMARK    1  A    between atoms: C_1  and  C_2
REMARK    2  A    between atoms: C_4  and  C_21
REMARK    3  A    between atoms: C_6  and  O_8
REMARK    4  A    between atoms: O_8  and  C_9
REMARK    5  A    between atoms: C_9  and  C_10
REMARK    6  A    between atoms: C_15  and  N_16
REMARK                            x       y       z     vdW  Elec       q    Type
REMARK                         _______ _______ _______ _____ _____    ______ ____
ROOT
ATOM      1  C   UNL     1       0.064  -2.932   4.751  0.00  0.00    +0.014 A 
ATOM      2  C   UNL     1       0.088  -4.300   4.560  0.00  0.00    +0.058 A 
ATOM      3  C   UNL     1       0.105  -5.156   5.651  0.00  0.00    +0.163 A 
ATOM      4  C   UNL     1       0.102  -4.636   6.941  0.00  0.00    +0.164 A 
ATOM      5  C   UNL     1       0.077  -3.263   7.132  0.00  0.00    +0.072 A 
ATOM      6  C   UNL     1       0.063  -2.409   6.038  0.00  0.00    +0.035 A 
ATOM      7  O   UNL     1       0.126  -5.460   8.024  0.00  0.00    -0.485 OA
ATOM      8  C   UNL     1      -0.225  -6.830   7.799  0.00  0.00    +0.270 C 
ATOM      9  C   UNL     1       0.521  -7.319   6.550  0.00  0.00    +0.270 C 
ATOM     10  O   UNL     1       0.124  -6.502   5.443  0.00  0.00    -0.485 OA
ENDROOT
BRANCH   6  11
ATOM     11  N   UNL     1       0.043  -1.024   6.231  0.00  0.00    -0.358 N 
ATOM     12  H   UNL     1       0.030  -0.428   5.466  0.00  0.00    +0.142 HD
ATOM     13  H   UNL     1       0.043  -0.659   7.130  0.00  0.00    +0.142 HD
ENDBRANCH   6  11
BRANCH   1  14
ATOM     14  C   UNL     1       0.046  -2.005   3.563  0.00  0.00    +0.266 C 
BRANCH  14  15
ATOM     15  O   UNL     1       0.051  -2.775   2.359  0.00  0.00    -0.487 OA
BRANCH  15  21
ATOM     16  C   UNL     1      -0.018   1.503   0.010  0.00  0.00    +0.044 C 
ATOM     17  C   UNL     1       0.002  -0.004   0.002  0.00  0.00    -0.047 A 
ATOM     18  C   UNL     1       0.006  -0.688  -1.200  0.00  0.00    +0.007 A 
ATOM     19  C   UNL     1       0.025  -2.071  -1.210  0.00  0.00    -0.047 A 
ATOM     20  C   UNL     1       0.040  -2.772  -0.020  0.00  0.00    +0.049 A 
ATOM     21  C   UNL     1       0.036  -2.088   1.187  0.00  0.00    +0.121 A 
ATOM     22  C   UNL     1       0.023  -0.701   1.195  0.00  0.00    +0.049 A 
ATOM     23  C   UNL     1       0.029  -2.813  -2.522  0.00  0.00    +0.044 C 
ENDBRANCH  15  21
ENDBRANCH  14  15
ENDBRANCH   1  14
TORSDOF 4
