REMARK  Name = ZINC12560095
REMARK  10 active torsions:
REMARK  status: ('A' for Active; 'I' for Inactive)
REMARK    1  A    between atoms: C_1  and  C_2
REMARK    2  A    between atoms: C_2  and  N_3
REMARK    3  A    between atoms: N_3  and  C_4
REMARK    4  A    between atoms: N_3  and  C_6
REMARK    5  A    between atoms: C_4  and  C_5
REMARK    6  A    between atoms: C_11  and  C_24
REMARK    7  A    between atoms: N_13  and  C_14
REMARK    8  A    between atoms: C_26  and  C_29
REMARK    9  A    between atoms: C_32  and  O_35
REMARK   10  A    between atoms: O_35  and  C_36
REMARK                            x       y       z     vdW  Elec       q    Type
REMARK                         _______ _______ _______ _____ _____    ______ ____
ROOT
ATOM      1  C   UNL     1      -1.230   1.769  -0.021  0.00  0.00    +0.033 A 
ATOM      2  C   UNL     1      -1.252   3.164   0.003  0.00  0.00    +0.024 A 
ATOM      3  C   UNL     1      -0.087   3.873  -0.001  0.00  0.00    +0.013 A 
ATOM      4  C   UNL     1       1.143   3.199  -0.032  0.00  0.00    +0.018 A 
ATOM      5  C   UNL     1       2.360   3.928  -0.095  0.00  0.00    +0.027 A 
ATOM      6  C   UNL     1       3.531   3.229  -0.331  0.00  0.00    +0.068 A 
ATOM      7  C   UNL     1       3.423   1.771  -0.532  0.00  0.00    +0.209 A 
ATOM      8  N   UNL     1       4.330   1.110  -1.219  0.00  0.00    -0.325 N 
ATOM      9  O   UNL     1       2.355   1.135   0.015  0.00  0.00    -0.439 OA
ATOM     10  C   UNL     1       1.169   1.792  -0.020  0.00  0.00    +0.139 A 
ATOM     11  C   UNL     1      -0.021   1.085  -0.024  0.00  0.00    +0.070 A 
ATOM     12  H   UNL     1       5.140   1.654  -1.727  0.00  0.00    +0.169 HD
ENDROOT
BRANCH   8  13
ATOM     13  C   UNL     1       4.267  -0.254  -1.300  0.00  0.00    +0.042 A 
ATOM     14  C   UNL     1       4.839  -1.044  -0.300  0.00  0.00    +0.028 A 
ATOM     15  C   UNL     1       4.766  -2.419  -0.385  0.00  0.00    +0.040 A 
ATOM     16  C   UNL     1       4.138  -3.017  -1.466  0.00  0.00    +0.124 A 
ATOM     17  C   UNL     1       3.574  -2.239  -2.464  0.00  0.00    +0.040 A 
ATOM     18  C   UNL     1       3.635  -0.863  -2.387  0.00  0.00    +0.028 A 
ATOM     19  F   UNL     1       4.075  -4.364  -1.546  0.00  0.00    -0.205 F 
ENDBRANCH   8  13
BRANCH   6  20
ATOM     20  C   UNL     1       4.836   3.914  -0.377  0.00  0.00    +0.114 A 
ATOM     21  N   UNL     1       5.114   5.200  -0.225  0.00  0.00    -0.239 NA
ATOM     22  C   UNL     1       6.354   5.646  -0.294  0.00  0.00    +0.079 A 
ATOM     23  C   UNL     1       7.374   4.764  -0.540  0.00  0.00    +0.075 A 
ATOM     24  S   UNL     1       6.463   3.230  -0.662  0.00  0.00    -0.075 S 
BRANCH  22  25
ATOM     25  C   UNL     1       6.642   7.091  -0.115  0.00  0.00    +0.001 A 
ATOM     26  C   UNL     1       7.953   7.556  -0.189  0.00  0.00    +0.013 A 
ATOM     27  C   UNL     1       8.216   8.900  -0.027  0.00  0.00    +0.046 A 
ATOM     28  C   UNL     1       7.178   9.788   0.221  0.00  0.00    +0.120 A 
ATOM     29  C   UNL     1       5.871   9.326   0.301  0.00  0.00    +0.046 A 
ATOM     30  C   UNL     1       5.601   7.984   0.135  0.00  0.00    +0.013 A 
BRANCH  28  31
ATOM     31  O   UNL     1       7.441  11.111   0.386  0.00  0.00    -0.495 OA
ATOM     32  C   UNL     1       8.808  11.517   0.291  0.00  0.00    +0.277 C 
ENDBRANCH  28  31
ENDBRANCH  22  25
ENDBRANCH   6  20
BRANCH   1  33
ATOM     33  N   UNL     1      -2.427   1.058  -0.036  0.00  0.00    -0.330 N 
BRANCH  33  35
ATOM     34  C   UNL     1      -4.142   2.044  -1.474  0.00  0.00    +0.024 C 
ATOM     35  C   UNL     1      -3.705   1.776  -0.033  0.00  0.00    +0.102 C 
ENDBRANCH  33  35
BRANCH  33  36
ATOM     36  C   UNL     1      -2.409  -0.406  -0.055  0.00  0.00    +0.102 C 
ATOM     37  C   UNL     1      -2.410  -0.935   1.381  0.00  0.00    +0.024 C 
ENDBRANCH  33  36
ENDBRANCH   1  33
TORSDOF 7
