REMARK  Name = ZINC20685399
REMARK  8 active torsions:
REMARK  status: ('A' for Active; 'I' for Inactive)
REMARK    1  A    between atoms: C_1  and  C_2
REMARK    2  A    between atoms: C_2  and  C_3
REMARK    3  A    between atoms: C_3  and  C_5
REMARK    4  A    between atoms: C_3  and  O_6
REMARK    5  A    between atoms: O_6  and  C_7
REMARK    6  A    between atoms: C_20  and  C_23
REMARK    7  A    between atoms: N_35  and  C_36
REMARK    8  A    between atoms: C_36  and  C_37
REMARK                            x       y       z     vdW  Elec       q    Type
REMARK                         _______ _______ _______ _____ _____    ______ ____
ROOT
ATOM      1  C   UNL     1      -0.458   0.097   0.019  0.00  0.00    +0.121 A 
ATOM      2  C   UNL     1       0.787  -0.508  -0.072  0.00  0.00    +0.047 A 
ATOM      3  C   UNL     1       0.881  -1.885  -0.029  0.00  0.00    +0.027 A 
ATOM      4  C   UNL     1      -0.266  -2.657   0.106  0.00  0.00    +0.032 A 
ATOM      5  C   UNL     1      -1.513  -2.059   0.199  0.00  0.00    -0.016 A 
ATOM      6  C   UNL     1      -1.599  -0.673   0.159  0.00  0.00    +0.051 A 
ATOM      7  C   UNL     1      -2.758  -2.847   0.363  0.00  0.00    +0.049 C 
ATOM      8  C   UNL     1      -3.556  -2.891  -0.943  0.00  0.00    -0.023 C 
ATOM      9  C   UNL     1      -4.130  -4.060  -1.091  0.00  0.00    -0.030 C 
ATOM     10  C   UNL     1      -3.811  -4.961   0.086  0.00  0.00    +0.033 C 
ATOM     11  C   UNL     1      -2.514  -4.335   0.678  0.00  0.00    +0.029 C 
ATOM     12  C   UNL     1      -1.339  -4.860  -0.153  0.00  0.00    +0.105 C 
ATOM     13  N   UNL     1      -0.150  -4.053   0.145  0.00  0.00    -0.336 N 
ATOM     14  H   UNL     1       0.802  -4.547   0.390  0.00  0.00    +0.147 HD
ENDROOT
BRANCH  12  15
ATOM     15  C   UNL     1      -1.668  -4.751  -1.619  0.00  0.00    -0.026 A 
ATOM     16  C   UNL     1      -2.274  -5.814  -2.272  0.00  0.00    +0.007 A 
ATOM     17  C   UNL     1      -2.586  -5.728  -3.611  0.00  0.00    +0.027 A 
ATOM     18  C   UNL     1      -2.285  -4.571  -4.324  0.00  0.00    +0.050 A 
ATOM     19  C   UNL     1      -1.668  -3.499  -3.663  0.00  0.00    +0.008 A 
ATOM     20  C   UNL     1      -1.362  -3.597  -2.308  0.00  0.00    +0.016 A 
ATOM     21  C   UNL     1      -1.482  -2.438  -4.670  0.00  0.00    +0.008 A 
ATOM     22  C   UNL     1      -0.934  -1.158  -4.623  0.00  0.00    +0.010 A 
ATOM     23  C   UNL     1      -0.903  -0.385  -5.764  0.00  0.00    +0.001 A 
ATOM     24  C   UNL     1      -1.413  -0.877  -6.955  0.00  0.00    +0.002 A 
ATOM     25  C   UNL     1      -1.957  -2.142  -7.016  0.00  0.00    +0.026 A 
ATOM     26  C   UNL     1      -1.998  -2.938  -5.875  0.00  0.00    +0.050 A 
ATOM     27  N   UNL     1      -2.475  -4.216  -5.648  0.00  0.00    -0.340 N 
BRANCH  27  28
ATOM     28  C   UNL     1      -3.092  -5.072  -6.664  0.00  0.00    +0.119 C 
ATOM     29  C   UNL     1      -4.603  -4.829  -6.686  0.00  0.00    +0.027 C 
ENDBRANCH  27  28
ENDBRANCH  12  15
BRANCH   1  30
ATOM     30  O   UNL     1      -0.557   1.453  -0.023  0.00  0.00    -0.489 OA
BRANCH  30  31
ATOM     31  C   UNL     1       0.644   2.183  -0.283  0.00  0.00    +0.170 C 
ATOM     32  C   UNL     1       1.429   2.354   1.019  0.00  0.00    +0.052 C 
BRANCH  31  34
ATOM     33  C   UNL     1      -0.384   3.392  -2.213  0.00  0.00    +0.007 C 
ATOM     34  C   UNL     1       0.291   3.559  -0.850  0.00  0.00    +0.041 C 
ENDBRANCH  31  34
ENDBRANCH  30  31
ENDBRANCH   1  30
TORSDOF 5
