REMARK  Name = ZINC35022062
REMARK  4 active torsions:
REMARK  status: ('A' for Active; 'I' for Inactive)
REMARK    1  A    between atoms: C_3  and  C_9
REMARK    2  A    between atoms: C_12  and  C_14
REMARK    3  A    between atoms: N_16  and  C_17
REMARK    4  A    between atoms: C_18  and  C_26
REMARK                            x       y       z     vdW  Elec       q    Type
REMARK                         _______ _______ _______ _____ _____    ______ ____
ROOT
ATOM      1  C   UNL     1       5.895   4.717  -1.258  0.00  0.00    +0.284 C 
ATOM      2  O   UNL     1       7.019   5.035  -0.915  0.00  0.00    -0.266 OA
ATOM      3  N   UNL     1       5.288   5.372  -2.268  0.00  0.00    -0.273 N 
ATOM      4  H   UNL     1       4.392   5.119  -2.541  0.00  0.00    +0.156 HD
ENDROOT
BRANCH   3   5
ATOM      5  C   UNL     1       5.943   6.406  -2.915  0.00  0.00    +0.085 A 
ATOM      6  C   UNL     1       5.477   7.188  -3.961  0.00  0.00    +0.068 A 
ATOM      7  C   UNL     1       6.368   8.217  -4.468  0.00  0.00    -0.023 A 
ATOM      8  C   UNL     1       7.561   8.275  -3.838  0.00  0.00    -0.004 A 
ATOM      9  S   UNL     1       7.482   7.005  -2.610  0.00  0.00    -0.077 S 
ATOM     10  C   UNL     1       8.686   9.220  -4.128  0.00  0.00    +0.043 C 
ATOM     11  C   UNL     1       8.432   9.866  -5.497  0.00  0.00    +0.005 C 
ATOM     12  C   UNL     1       6.984  10.361  -5.551  0.00  0.00    +0.005 C 
ATOM     13  C   UNL     1       6.028   9.168  -5.607  0.00  0.00    +0.037 C 
BRANCH   6  14
ATOM     14  C   UNL     1       4.142   6.984  -4.531  0.00  0.00    +0.244 C 
ATOM     15  O   UNL     1       3.188   7.587  -4.076  0.00  0.00    -0.270 OA
ATOM     16  N   UNL     1       3.971   6.130  -5.559  0.00  0.00    -0.325 N 
ATOM     17  H   UNL     1       4.732   5.649  -5.922  0.00  0.00    +0.145 HD
ATOM     18  H   UNL     1       3.088   5.995  -5.936  0.00  0.00    +0.145 HD
ENDBRANCH   6  14
ENDBRANCH   3   5
BRANCH   1  22
ATOM     19  C   UNL     1       3.655   2.163  -0.022  0.00  0.00    +0.137 A 
ATOM     20  C   UNL     1       4.714   1.949   0.814  0.00  0.00    +0.051 A 
ATOM     21  C   UNL     1       5.704   2.875   0.469  0.00  0.00    +0.055 A 
ATOM     22  C   UNL     1       5.202   3.624  -0.573  0.00  0.00    +0.190 A 
ATOM     23  O   UNL     1       3.962   3.171  -0.856  0.00  0.00    -0.450 OA
BRANCH  19  26
ATOM     24  C   UNL     1      -0.017   1.379   0.010  0.00  0.00    +0.002 A 
ATOM     25  C   UNL     1       1.166   2.089   0.002  0.00  0.00    +0.013 A 
ATOM     26  C   UNL     1       2.386   1.409  -0.013  0.00  0.00    +0.037 A 
ATOM     27  C   UNL     1       2.399   0.012  -0.021  0.00  0.00    +0.070 A 
ATOM     28  C   UNL     1       1.207  -0.686  -0.013  0.00  0.00    +0.060 A 
ATOM     29  C   UNL     1       0.002  -0.004   0.002  0.00  0.00    +0.021 A 
ATOM     30 CL   UNL     1       1.219  -2.422  -0.022  0.00  0.00    -0.082 Cl
ATOM     31 CL   UNL     1       3.909  -0.844  -0.040  0.00  0.00    -0.081 Cl
ENDBRANCH  19  26
ENDBRANCH   1  22
TORSDOF 4
