REMARK  Name = ZINC37376403
REMARK  3 active torsions:
REMARK  status: ('A' for Active; 'I' for Inactive)
REMARK    1  A    between atoms: C_7  and  N_15
REMARK    2  A    between atoms: N_15  and  C_16
REMARK    3  A    between atoms: C_16  and  C_17
REMARK                            x       y       z     vdW  Elec       q    Type
REMARK                         _______ _______ _______ _____ _____    ______ ____
ROOT
ATOM      1  C   UNL     1      -0.184   1.424   0.328  0.00  0.00    +0.000 A 
ATOM      2  C   UNL     1       0.981   2.170   0.315  0.00  0.00    +0.004 A 
ATOM      3  C   UNL     1       2.202   1.540   0.189  0.00  0.00    +0.046 A 
ATOM      4  C   UNL     1       2.265   0.156   0.075  0.00  0.00    +0.130 A 
ATOM      5  C   UNL     1       1.098  -0.589   0.088  0.00  0.00    -0.015 A 
ATOM      6  C   UNL     1      -0.124   0.048   0.216  0.00  0.00    +0.006 A 
ATOM      7  C   UNL     1       1.138  -2.088  -0.036  0.00  0.00    -0.002 C 
ATOM      8  C   UNL     1       2.519  -2.606   0.259  0.00  0.00    -0.015 A 
ATOM      9  C   UNL     1       2.691  -3.948   0.552  0.00  0.00    +0.006 A 
ATOM     10  C   UNL     1       3.951  -4.445   0.825  0.00  0.00    +0.000 A 
ATOM     11  C   UNL     1       5.047  -3.601   0.806  0.00  0.00    +0.004 A 
ATOM     12  C   UNL     1       4.881  -2.263   0.514  0.00  0.00    +0.046 A 
ATOM     13  C   UNL     1       3.615  -1.759   0.238  0.00  0.00    +0.130 A 
ATOM     14  O   UNL     1       3.474  -0.443  -0.048  0.00  0.00    -0.456 OA
ENDROOT
BRANCH   7  15
ATOM     15  N   UNL     1       0.186  -2.678   0.914  0.00  0.00    +0.392 N 
ATOM     16  H   UNL     1      -0.743  -2.340   0.713  0.00  0.00    -0.084 HD
ATOM     17  H   UNL     1       0.204  -3.683   0.827  0.00  0.00    -0.084 HD
BRANCH  15  18
ATOM     18  C   UNL     1       0.560  -2.299   2.283  0.00  0.00    +0.016 C 
BRANCH  18  19
ATOM     19  C   UNL     1      -0.417  -2.904   3.257  0.00  0.00    +0.193 C 
ATOM     20  O   UNL     1      -1.335  -3.585   2.851  0.00  0.00    -0.278 OA
ATOM     21  N   UNL     1      -0.271  -2.689   4.579  0.00  0.00    -0.331 N 
ATOM     22  H   UNL     1       0.463  -2.144   4.904  0.00  0.00    +0.145 HD
ATOM     23  H   UNL     1      -0.900  -3.079   5.206  0.00  0.00    +0.145 HD
ENDBRANCH  18  19
ENDBRANCH  15  18
ENDBRANCH   7  15
TORSDOF 3
