REMARK  Name = ZINC13258935
REMARK  6 active torsions:
REMARK  status: ('A' for Active; 'I' for Inactive)
REMARK    1  A    between atoms: C_1  and  C_2
REMARK    2  A    between atoms: C_10  and  C_11
REMARK    3  A    between atoms: N_13  and  C_14
REMARK    4  A    between atoms: C_14  and  C_16
REMARK    5  A    between atoms: C_14  and  C_19
REMARK    6  A    between atoms: C_16  and  C_17
REMARK                            x       y       z     vdW  Elec       q    Type
REMARK                         _______ _______ _______ _____ _____    ______ ____
ROOT
ATOM      1  C   UNL     1      -1.054   4.890  -0.026  0.00  0.00    +0.280 C 
ATOM      2  O   UNL     1      -2.262   4.903   0.119  0.00  0.00    -0.267 OA
ATOM      3  N   UNL     1      -0.368   6.049  -0.075  0.00  0.00    -0.301 N 
ATOM      4  H   UNL     1       0.601   6.037  -0.119  0.00  0.00    +0.150 HD
ENDROOT
BRANCH   1  14
ATOM      5  C   UNL     1      -2.397   2.085   0.042  0.00  0.00    +0.048 C 
ATOM      6  C   UNL     1      -0.928   2.384  -0.117  0.00  0.00    +0.008 A 
ATOM      7  C   UNL     1       0.156   1.414  -0.269  0.00  0.00    +0.025 A 
ATOM      8  C   UNL     1       0.214   0.018  -0.315  0.00  0.00    +0.012 A 
ATOM      9  C   UNL     1       1.419  -0.605  -0.477  0.00  0.00    +0.002 A 
ATOM     10  C   UNL     1       2.585   0.139  -0.595  0.00  0.00    +0.024 A 
ATOM     11  C   UNL     1       2.550   1.517  -0.552  0.00  0.00    +0.084 A 
ATOM     12  C   UNL     1       1.334   2.173  -0.388  0.00  0.00    +0.154 A 
ATOM     13  O   UNL     1       0.990   3.474  -0.310  0.00  0.00    -0.448 OA
ATOM     14  C   UNL     1      -0.343   3.609  -0.147  0.00  0.00    +0.193 A 
ATOM     15 CL   UNL     1       4.019   2.430  -0.700  0.00  0.00    -0.080 Cl
ENDBRANCH   1  14
BRANCH   3  16
ATOM     16  C   UNL     1      -1.086   7.326  -0.061  0.00  0.00    +0.116 C 
BRANCH  16  17
ATOM     17  C   UNL     1      -1.581   7.639  -1.450  0.00  0.00    -0.008 A 
ATOM     18  C   UNL     1      -0.923   7.122  -2.551  0.00  0.00    +0.007 A 
ATOM     19  C   UNL     1      -1.379   7.405  -3.824  0.00  0.00    +0.000 A 
ATOM     20  C   UNL     1      -2.487   8.214  -3.999  0.00  0.00    +0.001 A 
ATOM     21  C   UNL     1      -3.142   8.735  -2.899  0.00  0.00    +0.020 A 
ATOM     22  C   UNL     1      -2.689   8.448  -1.624  0.00  0.00    +0.046 A 
ATOM     23 CL   UNL     1      -3.511   9.103  -0.242  0.00  0.00    -0.083 Cl
ENDBRANCH  16  17
BRANCH  16  24
ATOM     24  C   UNL     1      -0.143   8.436   0.407  0.00  0.00    +0.152 C 
BRANCH  24  25
ATOM     25  C   UNL     1       0.240   8.196   1.845  0.00  0.00    +0.358 C 
ATOM     26  O   UNL     1      -0.128   7.194   2.409  0.00  0.00    -0.246 OA
ATOM     27  O   UNL     1       0.991   9.097   2.498  0.00  0.00    -0.246 OA
ENDBRANCH  24  25
ENDBRANCH  16  24
ENDBRANCH   3  16
TORSDOF 5
