REMARK  Name = ZINC59926473
REMARK  9 active torsions:
REMARK  status: ('A' for Active; 'I' for Inactive)
REMARK    1  A    between atoms: C_1  and  C_2
REMARK    2  A    between atoms: C_3  and  C_25
REMARK    3  A    between atoms: C_5  and  S_8
REMARK    4  A    between atoms: S_8  and  C_9
REMARK    5  A    between atoms: C_9  and  C_10
REMARK    6  A    between atoms: N_14  and  C_15
REMARK    7  A    between atoms: C_18  and  O_21
REMARK    8  A    between atoms: O_21  and  C_22
REMARK    9  A    between atoms: C_25  and  C_26
REMARK                            x       y       z     vdW  Elec       q    Type
REMARK                         _______ _______ _______ _____ _____    ______ ____
ROOT
ATOM      1  C   UNL     1       0.071  -4.920   0.431  0.00  0.00    +0.155 C 
ENDROOT
BRANCH   1   2
ATOM      2  C   UNL     1       0.092  -6.239   1.159  0.00  0.00    +0.167 A 
ATOM      3  N   UNL     1       1.156  -6.901   1.534  0.00  0.00    -0.112 NA
ATOM      4  N   UNL     1       0.825  -7.988   2.131  0.00  0.00    -0.023 NA
ATOM      5  N   UNL     1      -0.459  -8.097   2.180  0.00  0.00    -0.039 NA
ATOM      6  N   UNL     1      -0.984  -6.955   1.550  0.00  0.00    -0.196 N 
BRANCH   6   7
ATOM      7  C   UNL     1      -2.337  -6.629   1.366  0.00  0.00    +0.069 A 
ATOM      8  C   UNL     1      -2.745  -5.303   1.415  0.00  0.00    +0.031 A 
ATOM      9  C   UNL     1      -4.075  -4.983   1.233  0.00  0.00    +0.048 A 
ATOM     10  C   UNL     1      -5.005  -5.987   1.002  0.00  0.00    +0.127 A 
ATOM     11  C   UNL     1      -4.598  -7.312   0.953  0.00  0.00    +0.048 A 
ATOM     12  C   UNL     1      -3.266  -7.633   1.129  0.00  0.00    +0.031 A 
BRANCH  10  13
ATOM     13  O   UNL     1      -6.315  -5.672   0.823  0.00  0.00    -0.434 OA
BRANCH  13  14
ATOM     14  C   UNL     1      -7.217  -6.755   0.589  0.00  0.00    +0.541 C 
ATOM     15  F   UNL     1      -6.833  -7.439  -0.570  0.00  0.00    -0.166 F 
ATOM     16  F   UNL     1      -7.187  -7.631   1.679  0.00  0.00    -0.166 F 
ENDBRANCH  13  14
ENDBRANCH  10  13
ENDBRANCH   6   7
ENDBRANCH   1   2
BRANCH   1  17
ATOM     17  S   UNL     1       0.058  -3.564   1.636  0.00  0.00    -0.080 S 
BRANCH  17  22
ATOM     18  C   UNL     1      -0.018   1.503   0.010  0.00  0.00    +0.065 C 
ATOM     19  C   UNL     1       0.002  -0.004   0.002  0.00  0.00    +0.037 A 
ATOM     20  C   UNL     1       0.008  -0.798  -1.082  0.00  0.00    +0.067 A 
ATOM     21  N   UNL     1       0.028  -2.077  -0.670  0.00  0.00    -0.226 NA
ATOM     22  C   UNL     1       0.034  -2.110   0.642  0.00  0.00    +0.167 A 
ATOM     23  N   UNL     1       0.024  -0.829   1.104  0.00  0.00    -0.337 N 
ATOM     24  H   UNL     1       0.030  -0.551   2.033  0.00  0.00    +0.168 HD
BRANCH  20  25
ATOM     25  C   UNL     1      -0.005  -0.333  -2.516  0.00  0.00    +0.092 C 
BRANCH  25  26
ATOM     26  C   UNL     1       1.411  -0.158  -3.001  0.00  0.00    -0.042 A 
ATOM     27  C   UNL     1       2.048   1.059  -2.849  0.00  0.00    +0.004 A 
ATOM     28  C   UNL     1       3.347   1.220  -3.293  0.00  0.00    +0.000 A 
ATOM     29  C   UNL     1       4.009   0.163  -3.889  0.00  0.00    +0.000 A 
ATOM     30  C   UNL     1       3.372  -1.055  -4.041  0.00  0.00    +0.000 A 
ATOM     31  C   UNL     1       2.074  -1.216  -3.592  0.00  0.00    +0.004 A 
ENDBRANCH  25  26
ENDBRANCH  20  25
ENDBRANCH  17  22
ENDBRANCH   1  17
TORSDOF 8
