REMARK  Name = ZINC63141504
REMARK  7 active torsions:
REMARK  status: ('A' for Active; 'I' for Inactive)
REMARK    1  A    between atoms: C_1  and  C_2
REMARK    2  A    between atoms: C_5  and  C_7
REMARK    3  A    between atoms: C_7  and  C_8
REMARK    4  A    between atoms: C_8  and  N_9
REMARK    5  A    between atoms: C_10  and  C_12
REMARK    6  A    between atoms: C_17  and  N_18
REMARK    7  A    between atoms: N_18  and  N_19
REMARK                            x       y       z     vdW  Elec       q    Type
REMARK                         _______ _______ _______ _____ _____    ______ ____
ROOT
ATOM      1  N   UNL     1      -1.361  -4.176   3.861  0.00  0.00    -0.311 N 
ATOM      2  C   UNL     1      -2.519  -4.637   4.372  0.00  0.00    +0.247 C 
ATOM      3  O   UNL     1      -3.579  -4.283   3.893  0.00  0.00    -0.270 OA
ATOM      4  H   UNL     1      -0.515  -4.458   4.244  0.00  0.00    +0.149 HD
ENDROOT
BRANCH   2   5
ATOM      5  C   UNL     1      -2.501  -5.572   5.513  0.00  0.00    +0.079 A 
ATOM      6  C   UNL     1      -1.291  -6.084   5.995  0.00  0.00    +0.033 A 
ATOM      7  C   UNL     1      -1.328  -6.957   7.068  0.00  0.00    +0.037 A 
ATOM      8  C   UNL     1      -2.548  -7.297   7.629  0.00  0.00    +0.128 A 
ATOM      9  N   UNL     1      -3.677  -6.803   7.159  0.00  0.00    -0.237 NA
ATOM     10  C   UNL     1      -3.698  -5.960   6.138  0.00  0.00    +0.144 A 
ATOM     11 BR   UNL     1       0.274  -7.682   7.763  0.00  0.00    -0.049 Br
BRANCH  10  12
ATOM     12  N   UNL     1      -4.905  -5.463   5.682  0.00  0.00    -0.267 N 
ATOM     13  H   UNL     1      -4.932  -4.912   4.883  0.00  0.00    +0.167 HD
BRANCH  12  14
ATOM     14  N   UNL     1      -6.059  -5.747   6.355  0.00  0.00    -0.255 NA
ATOM     15  H   UNL     1      -5.993  -5.464   7.321  0.00  0.00    +0.140 HD
ATOM     16  H   UNL     1      -6.854  -5.318   5.906  0.00  0.00    +0.140 HD
ENDBRANCH  12  14
ENDBRANCH  10  12
ENDBRANCH   2   5
BRANCH   1  17
ATOM     17  C   UNL     1      -1.378  -3.247   2.728  0.00  0.00    +0.111 C 
BRANCH  17  18
ATOM     18  C   UNL     1       0.057  -2.881   2.346  0.00  0.00    +0.081 C 
BRANCH  18  23
ATOM     19  C   UNL     1      -0.055   1.593   0.107  0.00  0.00    +0.066 C 
ATOM     20  C   UNL     1      -0.011   0.087   0.087  0.00  0.00    +0.046 A 
ATOM     21  C   UNL     1       0.019  -0.607  -1.079  0.00  0.00    +0.070 A 
ATOM     22  S   UNL     1       0.064  -2.283  -0.464  0.00  0.00    -0.080 S 
ATOM     23  C   UNL     1       0.039  -1.926   1.181  0.00  0.00    +0.080 A 
ATOM     24  N   UNL     1       0.006  -0.617   1.202  0.00  0.00    -0.249 NA
ENDBRANCH  18  23
ENDBRANCH  17  18
ENDBRANCH   1  17
TORSDOF 6
