REMARK  Name = ZINC09103872
REMARK  5 active torsions:
REMARK  status: ('A' for Active; 'I' for Inactive)
REMARK    1  A    between atoms: C_6  and  C_7
REMARK    2  A    between atoms: C_18  and  C_20
REMARK    3  A    between atoms: N_22  and  C_23
REMARK    4  A    between atoms: C_23  and  C_24
REMARK    5  A    between atoms: C_24  and  C_25
REMARK                            x       y       z     vdW  Elec       q    Type
REMARK                         _______ _______ _______ _____ _____    ______ ____
ROOT
ATOM      1  C   UNL     1       2.425   3.930  -0.002  0.00  0.00    +0.250 C 
ATOM      2  O   UNL     1       2.409   5.146   0.004  0.00  0.00    -0.270 OA
ATOM      3  N   UNL     1       3.600   3.271  -0.017  0.00  0.00    -0.261 N 
ATOM      4  C   UNL     1       4.794   3.982  -0.025  0.00  0.00    +0.165 A 
ATOM      5  N   UNL     1       6.029   3.525  -0.040  0.00  0.00    -0.229 NA
ATOM      6  C   UNL     1       7.085   4.335  -0.048  0.00  0.00    +0.066 A 
ATOM      7  C   UNL     1       6.814   5.666  -0.039  0.00  0.00    +0.015 A 
ATOM      8  S   UNL     1       5.042   5.702  -0.028  0.00  0.00    -0.057 S 
ATOM      9  C   UNL     1       7.785   6.797  -0.042  0.00  0.00    +0.044 C 
ATOM     10  C   UNL     1       9.174   6.240   0.310  0.00  0.00    +0.006 C 
ATOM     11  C   UNL     1       9.430   4.989  -0.534  0.00  0.00    +0.019 C 
ATOM     12  C   UNL     1       8.528   3.845  -0.066  0.00  0.00    +0.124 C 
ATOM     13  H   UNL     1       3.613   2.301  -0.021  0.00  0.00    +0.157 HD
ENDROOT
BRANCH   1  19
ATOM     14  C   UNL     1       1.173   1.779   0.000  0.00  0.00    +0.017 A 
ATOM     15  C   UNL     1      -0.013   1.076   0.008  0.00  0.00    +0.050 A 
ATOM     16  C   UNL     1      -1.225   1.751   0.017  0.00  0.00    +0.166 A 
ATOM     17  C   UNL     1      -1.248   3.147   0.030  0.00  0.00    +0.167 A 
ATOM     18  C   UNL     1      -0.064   3.857   0.022  0.00  0.00    +0.062 A 
ATOM     19  C   UNL     1       1.157   3.175   0.007  0.00  0.00    +0.041 A 
ATOM     20  O   UNL     1      -2.550   3.561   0.045  0.00  0.00    -0.453 OA
ATOM     21  C   UNL     1      -3.313   2.412   0.459  0.00  0.00    +0.466 C 
ATOM     22  O   UNL     1      -2.510   1.295   0.033  0.00  0.00    -0.453 OA
ENDBRANCH   1  19
BRANCH  12  23
ATOM     23  C   UNL     1       8.655   2.681  -1.015  0.00  0.00    +0.222 C 
ATOM     24  O   UNL     1       9.404   2.752  -1.966  0.00  0.00    -0.275 OA
ATOM     25  N   UNL     1       7.935   1.561  -0.807  0.00  0.00    -0.314 N 
ATOM     26  H   UNL     1       7.336   1.504  -0.046  0.00  0.00    +0.149 HD
BRANCH  25  27
ATOM     27  C   UNL     1       8.058   0.429  -1.729  0.00  0.00    +0.108 C 
BRANCH  27  28
ATOM     28  C   UNL     1       7.142  -0.706  -1.268  0.00  0.00    +0.049 C 
BRANCH  28  29
ATOM     29  C   UNL     1       7.268  -1.870  -2.217  0.00  0.00    -0.072 C 
ATOM     30  C   UNL     1       8.102  -2.813  -1.914  0.00  0.00    -0.028 C 
ATOM     31  C   UNL     1       8.340  -4.029  -2.760  0.00  0.00    +0.027 C 
ATOM     32  C   UNL     1       7.203  -4.201  -3.770  0.00  0.00    +0.004 C 
ATOM     33  C   UNL     1       6.976  -2.860  -4.478  0.00  0.00    +0.005 C 
ATOM     34  C   UNL     1       6.424  -1.861  -3.458  0.00  0.00    +0.030 C 
ENDBRANCH  28  29
ENDBRANCH  27  28
ENDBRANCH  25  27
ENDBRANCH  12  23
TORSDOF 5
