REMARK  Name = ZINC20853826
REMARK  10 active torsions:
REMARK  status: ('A' for Active; 'I' for Inactive)
REMARK    1  A    between atoms: C_1  and  C_2
REMARK    2  A    between atoms: C_2  and  N_3
REMARK    3  A    between atoms: C_12  and  S_13
REMARK    4  A    between atoms: S_13  and  C_14
REMARK    5  A    between atoms: C_14  and  C_15
REMARK    6  A    between atoms: N_20  and  C_21
REMARK    7  A    between atoms: C_21  and  C_22
REMARK    8  A    between atoms: C_21  and  C_23
REMARK    9  A    between atoms: C_21  and  C_24
REMARK   10  A    between atoms: C_26  and  C_30
REMARK                            x       y       z     vdW  Elec       q    Type
REMARK                         _______ _______ _______ _____ _____    ______ ____
ROOT
ATOM      1  N   UNL     1      -2.103   1.072   1.277  0.00  0.00    -0.288 N 
ATOM      2  C   UNL     1      -3.080   1.802   0.709  0.00  0.00    +0.263 A 
ATOM      3  O   UNL     1      -2.828   2.876   0.190  0.00  0.00    -0.267 OA
ATOM      4  C   UNL     1      -4.420   1.298   0.717  0.00  0.00    +0.076 A 
ATOM      5  C   UNL     1      -5.625   1.915   0.159  0.00  0.00    -0.023 A 
ATOM      6  C   UNL     1      -6.781   1.237   0.302  0.00  0.00    -0.004 A 
ATOM      7  S   UNL     1      -6.344  -0.241   1.176  0.00  0.00    -0.073 S 
ATOM      8  C   UNL     1      -4.602   0.056   1.347  0.00  0.00    +0.117 A 
ATOM      9  N   UNL     1      -3.594  -0.613   1.895  0.00  0.00    -0.216 NA
ATOM     10  C   UNL     1      -2.369  -0.129   1.868  0.00  0.00    +0.173 A 
ATOM     11  C   UNL     1      -8.140   1.649  -0.176  0.00  0.00    +0.046 C 
ATOM     12  C   UNL     1      -7.972   2.792  -1.188  0.00  0.00    -0.009 C 
ATOM     13  C   UNL     1      -7.013   3.831  -0.599  0.00  0.00    +0.008 C 
ATOM     14  C   UNL     1      -5.594   3.263  -0.555  0.00  0.00    +0.037 C 
ATOM     15  C   UNL     1      -9.330   3.442  -1.459  0.00  0.00    +0.008 C 
ENDROOT
BRANCH   1  17
ATOM     16  C   UNL     1      -0.013   1.086   0.008  0.00  0.00    +0.027 C 
ATOM     17  C   UNL     1      -0.729   1.579   1.267  0.00  0.00    +0.124 C 
ENDBRANCH   1  17
BRANCH  10  18
ATOM     18  S   UNL     1      -1.056  -1.045   2.604  0.00  0.00    -0.078 S 
BRANCH  18  19
ATOM     19  C   UNL     1      -1.974  -2.486   3.200  0.00  0.00    +0.173 C 
BRANCH  19  20
ATOM     20  C   UNL     1      -1.027  -3.437   3.886  0.00  0.00    +0.231 C 
ATOM     21  O   UNL     1       0.152  -3.167   3.965  0.00  0.00    -0.274 OA
ATOM     22  N   UNL     1      -1.491  -4.588   4.413  0.00  0.00    -0.239 N 
ATOM     23  C   UNL     1      -0.644  -5.438   5.026  0.00  0.00    +0.306 C 
ATOM     24  O   UNL     1       0.538  -5.167   5.105  0.00  0.00    -0.252 OA
ATOM     25  N   UNL     1      -1.107  -6.588   5.553  0.00  0.00    -0.294 N 
ATOM     26  H   UNL     1      -2.561  -4.833   4.342  0.00  0.00    +0.159 HD
ATOM     27  H   UNL     1      -2.177  -6.834   5.482  0.00  0.00    +0.151 HD
BRANCH  25  28
ATOM     28  C   UNL     1      -0.187  -7.512   6.220  0.00  0.00    +0.028 C 
ATOM     29  C   UNL     1       0.477  -6.806   7.403  0.00  0.00    +0.031 C 
ATOM     30  C   UNL     1      -0.963  -8.731   6.723  0.00  0.00    +0.031 C 
ATOM     31  C   UNL     1       0.887  -7.966   5.229  0.00  0.00    +0.031 C 
ENDBRANCH  25  28
ENDBRANCH  19  20
ENDBRANCH  18  19
ENDBRANCH  10  18
TORSDOF 5
