REMARK  Name = ZINC02630065
REMARK  9 active torsions:
REMARK  status: ('A' for Active; 'I' for Inactive)
REMARK    1  A    between atoms: C_1  and  C_2
REMARK    2  A    between atoms: C_2  and  C_4
REMARK    3  A    between atoms: C_2  and  O_11
REMARK    4  A    between atoms: N_9  and  C_10
REMARK    5  A    between atoms: O_11  and  C_12
REMARK    6  A    between atoms: C_12  and  C_14
REMARK    7  A    between atoms: C_15  and  C_23
REMARK    8  A    between atoms: C_23  and  S_24
REMARK    9  A    between atoms: S_24  and  C_25
REMARK                            x       y       z     vdW  Elec       q    Type
REMARK                         _______ _______ _______ _____ _____    ______ ____
ROOT
ATOM      1  C   UNL     1      -3.276  -1.225   1.305  0.00  0.00    +0.217 A 
ATOM      2  C   UNL     1      -3.945  -1.476   2.461  0.00  0.00    +0.023 A 
ATOM      3  C   UNL     1      -5.266  -1.963   2.066  0.00  0.00    +0.025 A 
ATOM      4  C   UNL     1      -6.399  -2.383   2.768  0.00  0.00    +0.012 A 
ATOM      5  C   UNL     1      -7.508  -2.790   2.083  0.00  0.00    +0.001 A 
ATOM      6  C   UNL     1      -7.517  -2.788   0.694  0.00  0.00    +0.004 A 
ATOM      7  C   UNL     1      -6.410  -2.378  -0.017  0.00  0.00    +0.047 A 
ATOM      8  C   UNL     1      -5.270  -1.959   0.659  0.00  0.00    +0.136 A 
ATOM      9  O   UNL     1      -4.068  -1.507   0.250  0.00  0.00    -0.448 OA
ENDROOT
BRANCH   1  10
ATOM     10  C   UNL     1      -1.901  -0.717   1.218  0.00  0.00    +0.376 C 
ATOM     11  O   UNL     1      -1.270  -0.493   2.233  0.00  0.00    -0.241 OA
BRANCH  10  12
ATOM     12  O   UNL     1      -1.339  -0.499   0.012  0.00  0.00    -0.447 OA
BRANCH  12  14
ATOM     13  C   UNL     1      -0.019   1.526   0.010  0.00  0.00    +0.062 C 
ATOM     14  C   UNL     1       0.002  -0.004   0.002  0.00  0.00    +0.259 C 
BRANCH  14  15
ATOM     15  C   UNL     1       0.707  -0.490  -1.238  0.00  0.00    +0.261 C 
ATOM     16  O   UNL     1       0.096  -1.114  -2.078  0.00  0.00    -0.271 OA
ATOM     17  N   UNL     1       2.018  -0.231  -1.413  0.00  0.00    -0.237 N 
ATOM     18  C   UNL     1       2.649  -0.665  -2.522  0.00  0.00    +0.306 C 
ATOM     19  O   UNL     1       2.036  -1.291  -3.364  0.00  0.00    -0.252 OA
ATOM     20  N   UNL     1       3.960  -0.406  -2.696  0.00  0.00    -0.302 N 
ATOM     21  C   UNL     1       4.646  -0.879  -3.902  0.00  0.00    +0.129 C 
ATOM     22  H   UNL     1       2.508   0.269  -0.741  0.00  0.00    +0.159 HD
ATOM     23  H   UNL     1       4.450   0.093  -2.024  0.00  0.00    +0.150 HD
ENDBRANCH  14  15
ENDBRANCH  12  14
ENDBRANCH  10  12
ENDBRANCH   1  10
BRANCH   2  24
ATOM     24  C   UNL     1      -3.430  -1.291   3.865  0.00  0.00    +0.114 C 
BRANCH  24  25
ATOM     25  S   UNL     1      -3.816   0.387   4.435  0.00  0.00    -0.120 S 
BRANCH  25  26
ATOM     26  C   UNL     1      -3.158   0.445   6.068  0.00  0.00    +0.008 A 
ATOM     27  C   UNL     1      -2.517  -0.667   6.600  0.00  0.00    +0.016 A 
ATOM     28  C   UNL     1      -2.003  -0.619   7.881  0.00  0.00    +0.021 A 
ATOM     29  C   UNL     1      -2.125   0.536   8.634  0.00  0.00    +0.041 A 
ATOM     30  C   UNL     1      -2.763   1.645   8.107  0.00  0.00    +0.021 A 
ATOM     31  C   UNL     1      -3.274   1.605   6.825  0.00  0.00    +0.016 A 
ATOM     32 CL   UNL     1      -1.477   0.592  10.244  0.00  0.00    -0.084 Cl
ENDBRANCH  25  26
ENDBRANCH  24  25
ENDBRANCH   2  24
TORSDOF 7
