REMARK  Name = ZINC12244919
REMARK  13 active torsions:
REMARK  status: ('A' for Active; 'I' for Inactive)
REMARK    1  A    between atoms: C_1  and  C_2
REMARK    2  A    between atoms: C_3  and  C_9
REMARK    3  A    between atoms: C_4  and  C_8
REMARK    4  A    between atoms: N_5  and  C_7
REMARK    5  A    between atoms: C_9  and  C_11
REMARK    6  A    between atoms: C_9  and  N_66
REMARK    7  A    between atoms: C_12  and  N_66
REMARK    8  A    between atoms: C_13  and  C_14
REMARK    9  A    between atoms: C_13  and  N_66
REMARK   10  A    between atoms: C_17  and  C_22
REMARK   11  A    between atoms: N_24  and  C_25
REMARK   12  A    between atoms: C_25  and  C_26
REMARK   13  A    between atoms: C_26  and  O_32
REMARK                            x       y       z     vdW  Elec       q    Type
REMARK                         _______ _______ _______ _____ _____    ______ ____
ROOT
ATOM      1  C   UNL     1      -2.006   2.848   8.379  0.00  0.00    +0.003 A 
ATOM      2  C   UNL     1      -0.892   2.086   8.519  0.00  0.00    +0.020 A 
ATOM      3  C   UNL     1      -0.277   1.532   7.397  0.00  0.00    +0.020 A 
ATOM      4  C   UNL     1      -0.820   1.782   6.138  0.00  0.00    +0.101 A 
ATOM      5  C   UNL     1      -1.986   2.585   6.043  0.00  0.00    +0.261 A 
ATOM      6  O   UNL     1      -2.483   2.814   4.954  0.00  0.00    -0.267 OA
ATOM      7  N   UNL     1      -2.542   3.092   7.159  0.00  0.00    -0.327 N 
ATOM      8  H   UNL     1      -3.339   3.640   7.089  0.00  0.00    +0.169 HD
ENDROOT
BRANCH   4   9
ATOM      9  C   UNL     1      -0.198   1.219   4.929  0.00  0.00    +0.249 C 
ATOM     10  O   UNL     1       0.733   0.442   5.030  0.00  0.00    -0.270 OA
ATOM     11  N   UNL     1      -0.660   1.564   3.711  0.00  0.00    -0.308 N 
ATOM     12  H   UNL     1      -1.447   2.124   3.632  0.00  0.00    +0.149 HD
BRANCH  11  13
ATOM     13  C   UNL     1       0.028   1.091   2.507  0.00  0.00    +0.139 C 
BRANCH  13  14
ATOM     14  C   UNL     1      -0.694   1.621   1.266  0.00  0.00    +0.081 C 
ATOM     15  C   UNL     1       0.024   1.128   0.009  0.00  0.00    +0.036 C 
ATOM     16  C   UNL     1      -0.698   1.658  -1.232  0.00  0.00    +0.003 C 
ATOM     17  C   UNL     1      -0.695   3.188  -1.209  0.00  0.00    +0.000 C 
ATOM     18  C   UNL     1      -1.413   3.681   0.049  0.00  0.00    +0.003 C 
ATOM     19  C   UNL     1      -0.691   3.151   1.289  0.00  0.00    +0.036 C 
BRANCH  14  20
ATOM     20  O   UNL     1      -2.042   1.148   1.261  0.00  0.00    -0.387 OA
ATOM     21  H   UNL     1      -2.559   1.423   2.031  0.00  0.00    +0.210 HD
ENDBRANCH  14  20
ENDBRANCH  13  14
ENDBRANCH  11  13
ENDBRANCH   4   9
BRANCH   1  22
ATOM     22  C   UNL     1      -2.660   3.434   9.604  0.00  0.00    -0.024 C 
BRANCH  22  24
ATOM     23  C   UNL     1      -1.169   5.341   9.660  0.00  0.00    -0.095 C 
ATOM     24  N   UNL     1      -2.576   4.908   9.530  0.00  0.00    +0.386 N 
ATOM     25  H   UNL     1      -2.938   5.218   8.620  0.00  0.00    -0.081 HD
BRANCH  24  26
ATOM     26  C   UNL     1      -3.393   5.515  10.603  0.00  0.00    -0.037 C 
ATOM     27  C   UNL     1      -4.854   5.111  10.402  0.00  0.00    -0.008 C 
BRANCH  26  30
ATOM     28  C   UNL     1      -3.516   7.254   7.956  0.00  0.00    +0.068 C 
ATOM     29  C   UNL     1      -3.326   7.783   9.354  0.00  0.00    +0.062 A 
ATOM     30  C   UNL     1      -3.271   7.015  10.522  0.00  0.00    -0.018 A 
ATOM     31  C   UNL     1      -3.095   7.857  11.566  0.00  0.00    +0.038 A 
ATOM     32  N   UNL     1      -3.032   9.113  11.076  0.00  0.00    -0.271 N 
ATOM     33  N   UNL     1      -3.183   9.041   9.686  0.00  0.00    -0.176 NA
ATOM     34  C   UNL     1      -2.845  10.336  11.861  0.00  0.00    +0.172 C 
ATOM     35  C   UNL     1      -2.986   7.463  13.017  0.00  0.00    +0.065 C 
ENDBRANCH  26  30
ENDBRANCH  24  26
ENDBRANCH  22  24
ENDBRANCH   1  22
TORSDOF 8
