REMARK  Name = ZINC34791497
REMARK  11 active torsions:
REMARK  status: ('A' for Active; 'I' for Inactive)
REMARK    1  A    between atoms: C_1  and  C_2
REMARK    2  A    between atoms: C_2  and  N_3
REMARK    3  A    between atoms: C_6  and  C_11
REMARK    4  A    between atoms: C_16  and  C_17
REMARK    5  A    between atoms: N_23  and  C_25
REMARK    6  A    between atoms: C_25  and  C_27
REMARK    7  A    between atoms: C_25  and  C_31
REMARK    8  A    between atoms: C_27  and  C_28
REMARK    9  A    between atoms: C_28  and  C_29
REMARK   10  A    between atoms: C_28  and  C_30
REMARK   11  A    between atoms: N_37  and  C_40
REMARK                            x       y       z     vdW  Elec       q    Type
REMARK                         _______ _______ _______ _____ _____    ______ ____
ROOT
ATOM      1  N   UNL     1      -0.543  -0.901  -0.771  0.00  0.00    -0.257 N 
ATOM      2  C   UNL     1      -1.429  -1.587   0.010  0.00  0.00    +0.042 C 
ATOM      3  C   UNL     1      -2.724  -1.711  -0.346  0.00  0.00    +0.058 C 
ATOM      4  C   UNL     1      -3.163  -1.062  -1.643  0.00  0.00    +0.142 C 
ATOM      5  N   UNL     1      -2.132  -0.345  -2.412  0.00  0.00    -0.288 N 
ATOM      6  C   UNL     1      -0.877  -0.304  -1.922  0.00  0.00    +0.307 C 
ATOM      7  O   UNL     1      -0.020   0.289  -2.548  0.00  0.00    -0.252 OA
ATOM      8  C   UNL     1      -3.428  -2.460   0.619  0.00  0.00    +0.247 C 
ATOM      9  O   UNL     1      -4.614  -2.726   0.552  0.00  0.00    -0.270 OA
ATOM     10  N   UNL     1      -2.618  -2.842   1.623  0.00  0.00    -0.281 N 
ATOM     11  C   UNL     1      -1.276  -2.321   1.323  0.00  0.00    +0.160 C 
ATOM     12  H   UNL     1      -2.352   0.091  -3.250  0.00  0.00    +0.151 HD
ENDROOT
BRANCH   4  13
ATOM     13  C   UNL     1      -4.266  -0.086  -1.324  0.00  0.00    -0.011 A 
ATOM     14  C   UNL     1      -3.975   1.096  -0.668  0.00  0.00    +0.006 A 
ATOM     15  C   UNL     1      -4.987   1.991  -0.375  0.00  0.00    +0.000 A 
ATOM     16  C   UNL     1      -6.290   1.704  -0.738  0.00  0.00    +0.001 A 
ATOM     17  C   UNL     1      -6.581   0.523  -1.395  0.00  0.00    +0.013 A 
ATOM     18  C   UNL     1      -5.568  -0.370  -1.691  0.00  0.00    +0.060 A 
BRANCH  18  19
ATOM     19  C   UNL     1      -5.884  -1.656  -2.411  0.00  0.00    +0.418 C 
ATOM     20  F   UNL     1      -7.247  -1.691  -2.726  0.00  0.00    -0.166 F 
ATOM     21  F   UNL     1      -5.131  -1.728  -3.588  0.00  0.00    -0.166 F 
ATOM     22  F   UNL     1      -5.567  -2.742  -1.588  0.00  0.00    -0.166 F 
ENDBRANCH  18  19
ENDBRANCH   4  13
BRANCH   1  24
ATOM     23  C   UNL     1       1.019   0.436   0.554  0.00  0.00    +0.025 C 
ATOM     24  C   UNL     1       0.848  -0.807  -0.321  0.00  0.00    +0.111 C 
ENDBRANCH   1  24
BRANCH  10  25
ATOM     25  C   UNL     1      -3.002  -3.630   2.797  0.00  0.00    +0.163 C 
BRANCH  25  26
ATOM     26  C   UNL     1      -3.399  -5.018   2.362  0.00  0.00    +0.236 C 
ATOM     27  O   UNL     1      -3.613  -5.248   1.191  0.00  0.00    -0.274 OA
ATOM     28  N   UNL     1      -3.516  -6.002   3.275  0.00  0.00    -0.302 N 
ATOM     29  C   UNL     1      -3.406  -5.661   4.708  0.00  0.00    +0.106 C 
ATOM     30  C   UNL     1      -4.455  -6.422   5.540  0.00  0.00    +0.000 C 
ATOM     31  C   UNL     1      -5.764  -6.465   4.783  0.00  0.00    -0.078 C 
ATOM     32  N   UNL     1      -5.832  -7.701   4.007  0.00  0.00    +0.379 N 
ATOM     33  C   UNL     1      -5.264  -7.627   2.716  0.00  0.00    -0.060 C 
ATOM     34  C   UNL     1      -3.750  -7.356   2.816  0.00  0.00    +0.089 C 
ATOM     35  C   UNL     1      -7.244  -8.085   3.871  0.00  0.00    -0.096 C 
ATOM     36  H   UNL     1      -5.358  -8.427   4.523  0.00  0.00    -0.082 HD
ENDBRANCH  25  26
BRANCH  25  37
ATOM     37  C   UNL     1      -4.184  -2.958   3.499  0.00  0.00    +0.035 C 
BRANCH  37  38
ATOM     38  C   UNL     1      -3.723  -1.640   4.124  0.00  0.00    -0.015 C 
ATOM     39  C   UNL     1      -3.399  -0.636   3.016  0.00  0.00    +0.007 C 
ATOM     40  C   UNL     1      -4.837  -1.079   5.010  0.00  0.00    +0.007 C 
ENDBRANCH  37  38
ENDBRANCH  25  37
ENDBRANCH  10  25
TORSDOF 7
