REMARK  Name = ZINC61642074
REMARK  10 active torsions:
REMARK  status: ('A' for Active; 'I' for Inactive)
REMARK    1  A    between atoms: C_1  and  C_2
REMARK    2  A    between atoms: C_2  and  C_3
REMARK    3  A    between atoms: C_3  and  C_5
REMARK    4  A    between atoms: C_3  and  N_23
REMARK    5  A    between atoms: C_5  and  C_7
REMARK    6  A    between atoms: C_5  and  N_13
REMARK    7  A    between atoms: C_17  and  C_19
REMARK    8  A    between atoms: C_19  and  N_20
REMARK    9  A    between atoms: N_20  and  C_21
REMARK   10  A    between atoms: N_20  and  C_22
REMARK                            x       y       z     vdW  Elec       q    Type
REMARK                         _______ _______ _______ _____ _____    ______ ____
ROOT
ATOM      1  C   UNL     1      -1.725  -2.001   0.780  0.00  0.00    +0.079 C 
ENDROOT
BRANCH   1   2
ATOM      2  C   UNL     1      -0.661  -2.248  -0.258  0.00  0.00    +0.006 A 
ATOM      3  C   UNL     1       0.220  -1.372  -0.802  0.00  0.00    +0.028 A 
ATOM      4  C   UNL     1       1.118  -1.827  -1.751  0.00  0.00    +0.025 A 
ATOM      5  C   UNL     1       1.090  -3.134  -2.108  0.00  0.00    +0.060 A 
ATOM      6  S   UNL     1      -0.228  -3.769  -1.085  0.00  0.00    -0.099 S 
ATOM      7 BR   UNL     1       2.364  -0.642  -2.538  0.00  0.00    -0.050 Br
ENDBRANCH   1   2
BRANCH   1   8
ATOM      8  N   UNL     1      -3.025  -2.448   0.264  0.00  0.00    -0.295 NA
ATOM      9  C   UNL     1      -3.398  -1.698  -0.954  0.00  0.00    +0.085 C 
ATOM     10  C   UNL     1      -2.998  -2.626  -2.128  0.00  0.00    +0.017 C 
ATOM     11  C   UNL     1      -3.350  -4.025  -1.556  0.00  0.00    +0.018 C 
ATOM     12  C   UNL     1      -2.999  -3.887  -0.060  0.00  0.00    +0.041 C 
BRANCH  12  13
ATOM     13  C   UNL     1      -4.034  -4.630   0.788  0.00  0.00    -0.061 C 
BRANCH  13  14
ATOM     14  N   UNL     1      -3.970  -6.067   0.490  0.00  0.00    +0.377 N 
ATOM     15  C   UNL     1      -2.664  -6.595   0.904  0.00  0.00    -0.097 C 
ATOM     16  C   UNL     1      -5.035  -6.766   1.220  0.00  0.00    -0.097 C 
ATOM     17  H   UNL     1      -4.092  -6.210  -0.501  0.00  0.00    -0.083 HD
ENDBRANCH  13  14
ENDBRANCH  12  13
ENDBRANCH   1   8
BRANCH   1  18
ATOM     18  C   UNL     1      -1.386  -2.780   2.052  0.00  0.00    -0.053 C 
BRANCH  18  19
ATOM     19  N   UNL     1      -2.450  -2.584   3.045  0.00  0.00    +0.381 N 
ATOM     20  H   UNL     1      -2.558  -1.599   3.232  0.00  0.00    -0.090 HD
ATOM     21  H   UNL     1      -3.317  -2.955   2.687  0.00  0.00    -0.090 HD
ATOM     22  H   UNL     1      -2.207  -3.064   3.899  0.00  0.00    -0.090 HD
ENDBRANCH  18  19
BRANCH  18  24
ATOM     23  C   UNL     1       0.343  -3.136   3.821  0.00  0.00    +0.002 C 
ATOM     24  C   UNL     1      -0.058  -2.275   2.621  0.00  0.00    -0.018 C 
ENDBRANCH  18  24
ENDBRANCH   1  18
TORSDOF 7
