REMARK  Name = ZINC60205854
REMARK  11 active torsions:
REMARK  status: ('A' for Active; 'I' for Inactive)
REMARK    1  A    between atoms: C_1  and  C_2
REMARK    2  A    between atoms: C_2  and  C_3
REMARK    3  A    between atoms: C_3  and  C_4
REMARK    4  A    between atoms: C_4  and  N_5
REMARK    5  A    between atoms: N_5  and  C_6
REMARK    6  A    between atoms: C_9  and  S_28
REMARK    7  A    between atoms: C_11  and  N_12
REMARK    8  A    between atoms: N_12  and  S_13
REMARK    9  A    between atoms: S_13  and  C_16
REMARK   10  A    between atoms: C_21  and  C_22
REMARK   11  A    between atoms: S_28  and  N_31
REMARK                            x       y       z     vdW  Elec       q    Type
REMARK                         _______ _______ _______ _____ _____    ______ ____
ROOT
ATOM      1  C   UNL     1      -2.725  -5.002   0.480  0.00  0.00    +0.050 A 
ATOM      2  C   UNL     1      -1.734  -5.869   0.915  0.00  0.00    +0.027 A 
ATOM      3  C   UNL     1      -2.077  -7.075   1.498  0.00  0.00    +0.030 A 
ATOM      4  C   UNL     1      -3.408  -7.420   1.650  0.00  0.00    +0.107 A 
ATOM      5  C   UNL     1      -4.402  -6.561   1.220  0.00  0.00    +0.054 A 
ATOM      6  C   UNL     1      -4.067  -5.348   0.638  0.00  0.00    +0.071 A 
ENDROOT
BRANCH   4   7
ATOM      7  S   UNL     1      -3.837  -8.958   2.394  0.00  0.00    +0.056 S 
ATOM      8  O   UNL     1      -5.180  -9.230   2.020  0.00  0.00    -0.153 OA
ATOM      9  O   UNL     1      -2.772  -9.856   2.113  0.00  0.00    -0.153 OA
BRANCH   7  10
ATOM     10  N   UNL     1      -3.839  -8.726   4.034  0.00  0.00    -0.204 NA
ATOM     11  H   UNL     1      -4.377  -9.297   4.604  0.00  0.00    +0.144 HD
ATOM     12  H   UNL     1      -3.303  -8.018   4.424  0.00  0.00    +0.144 HD
ENDBRANCH   7  10
ENDBRANCH   4   7
BRANCH   1  13
ATOM     13  N   UNL     1      -2.380  -3.780  -0.110  0.00  0.00    -0.342 N 
ATOM     14  H   UNL     1      -3.074  -3.173  -0.410  0.00  0.00    +0.146 HD
BRANCH  13  15
ATOM     15  C   UNL     1      -0.969  -3.419  -0.275  0.00  0.00    +0.101 C 
BRANCH  15  16
ATOM     16  C   UNL     1      -0.869  -2.046  -0.941  0.00  0.00    +0.018 C 
BRANCH  16  18
ATOM     17  C   UNL     1       0.704  -0.295  -1.780  0.00  0.00    +0.004 C 
ATOM     18  C   UNL     1       0.604  -1.669  -1.114  0.00  0.00    -0.002 C 
ENDBRANCH  16  18
ENDBRANCH  15  16
ENDBRANCH  13  15
ENDBRANCH   1  13
BRANCH   6  19
ATOM     19  N   UNL     1      -5.073  -4.475   0.206  0.00  0.00    -0.214 N 
ATOM     20  H   UNL     1      -4.925  -3.911  -0.570  0.00  0.00    +0.174 HD
BRANCH  19  21
ATOM     21  S   UNL     1      -6.513  -4.404   1.019  0.00  0.00    +0.073 S 
ATOM     22  O   UNL     1      -7.258  -3.344   0.435  0.00  0.00    -0.150 OA
ATOM     23  O   UNL     1      -7.007  -5.735   1.087  0.00  0.00    -0.150 OA
BRANCH  21  24
ATOM     24  C   UNL     1      -6.154  -3.915   2.674  0.00  0.00    +0.116 A 
ATOM     25  C   UNL     1      -4.928  -3.360   2.980  0.00  0.00    +0.029 A 
ATOM     26  C   UNL     1      -4.645  -2.976   4.278  0.00  0.00    +0.002 A 
ATOM     27  C   UNL     1      -5.588  -3.144   5.276  0.00  0.00    +0.001 A 
ATOM     28  C   UNL     1      -6.818  -3.697   4.981  0.00  0.00    +0.010 A 
ATOM     29  C   UNL     1      -7.110  -4.082   3.674  0.00  0.00    +0.009 A 
BRANCH  29  30
ATOM     30  C   UNL     1      -8.432  -4.673   3.349  0.00  0.00    -0.016 A 
ATOM     31  C   UNL     1      -9.239  -4.088   2.375  0.00  0.00    +0.008 A 
ATOM     32  C   UNL     1     -10.467  -4.642   2.077  0.00  0.00    +0.001 A 
ATOM     33  C   UNL     1     -10.898  -5.775   2.743  0.00  0.00    +0.000 A 
ATOM     34  C   UNL     1     -10.102  -6.359   3.712  0.00  0.00    +0.001 A 
ATOM     35  C   UNL     1      -8.869  -5.817   4.014  0.00  0.00    +0.008 A 
ENDBRANCH  29  30
ENDBRANCH  21  24
ENDBRANCH  19  21
ENDBRANCH   6  19
TORSDOF 10
