REMARK  Name = ZINC10858636
REMARK  12 active torsions:
REMARK  status: ('A' for Active; 'I' for Inactive)
REMARK    1  A    between atoms: C_1  and  C_2
REMARK    2  A    between atoms: C_2  and  N_3
REMARK    3  A    between atoms: C_6  and  C_19
REMARK    4  A    between atoms: C_7  and  N_18
REMARK    5  A    between atoms: N_8  and  C_11
REMARK    6  A    between atoms: C_11  and  C_12
REMARK    7  A    between atoms: C_19  and  C_21
REMARK    8  A    between atoms: C_21  and  S_22
REMARK    9  A    between atoms: S_22  and  C_23
REMARK   10  A    between atoms: N_27  and  C_28
REMARK   11  A    between atoms: C_28  and  C_29
REMARK   12  A    between atoms: C_29  and  C_30
REMARK                            x       y       z     vdW  Elec       q    Type
REMARK                         _______ _______ _______ _____ _____    ______ ____
ROOT
ATOM      1  N   UNL     1      -0.599   3.068   1.090  0.00  0.00    -0.260 N 
ATOM      2  C   UNL     1       0.301   3.752   1.825  0.00  0.00    +0.269 A 
ATOM      3  O   UNL     1       1.258   3.186   2.321  0.00  0.00    -0.267 OA
ATOM      4  C   UNL     1       0.106   5.196   2.010  0.00  0.00    +0.121 A 
ATOM      5  C   UNL     1      -1.021   5.788   1.416  0.00  0.00    +0.116 A 
ATOM      6  N   UNL     1      -1.876   5.005   0.695  0.00  0.00    -0.277 N 
ATOM      7  C   UNL     1      -1.658   3.689   0.545  0.00  0.00    +0.334 A 
ATOM      8  O   UNL     1      -2.449   3.035  -0.106  0.00  0.00    -0.246 OA
ENDROOT
BRANCH   5   9
ATOM      9  N   UNL     1      -1.258   7.121   1.558  0.00  0.00    -0.344 N 
ATOM     10  H   UNL     1      -0.908   7.596   2.328  0.00  0.00    +0.144 HD
ATOM     11  H   UNL     1      -1.776   7.595   0.889  0.00  0.00    +0.144 HD
ENDBRANCH   5   9
BRANCH   1  13
ATOM     12  C   UNL     1       0.405   1.388  -0.377  0.00  0.00    +0.027 C 
ATOM     13  C   UNL     1      -0.423   1.628   0.887  0.00  0.00    +0.126 C 
ENDBRANCH   1  13
BRANCH   4  14
ATOM     14  C   UNL     1       1.019   5.963   2.765  0.00  0.00    +0.182 C 
ATOM     15  O   UNL     1       0.898   7.170   2.821  0.00  0.00    -0.291 OA
BRANCH  14  16
ATOM     16  C   UNL     1       2.145   5.284   3.502  0.00  0.00    +0.157 C 
BRANCH  16  17
ATOM     17  S   UNL     1       3.134   6.527   4.370  0.00  0.00    -0.077 S 
BRANCH  17  18
ATOM     18  C   UNL     1       4.341   5.487   5.123  0.00  0.00    +0.210 A 
ATOM     19  N   UNL     1       4.413   4.177   5.026  0.00  0.00    -0.102 NA
ATOM     20  N   UNL     1       5.416   3.731   5.694  0.00  0.00    -0.022 NA
ATOM     21  N   UNL     1       6.041   4.703   6.265  0.00  0.00    -0.043 NA
ATOM     22  N   UNL     1       5.365   5.884   5.914  0.00  0.00    -0.220 N 
BRANCH  22  23
ATOM     23  C   UNL     1       5.696   7.253   6.319  0.00  0.00    +0.153 C 
BRANCH  23  24
ATOM     24  C   UNL     1       4.968   7.589   7.622  0.00  0.00    +0.066 C 
BRANCH  24  25
ATOM     25  C   UNL     1       5.309   8.997   8.039  0.00  0.00    -0.008 A 
ATOM     26  C   UNL     1       4.682  10.156   7.723  0.00  0.00    +0.011 A 
ATOM     27  C   UNL     1       5.176  11.345   8.226  0.00  0.00    +0.008 A 
ATOM     28  C   UNL     1       6.274  11.316   9.021  0.00  0.00    +0.045 A 
ATOM     29  S   UNL     1       6.638   9.569   9.084  0.00  0.00    -0.102 S 
ENDBRANCH  24  25
ENDBRANCH  23  24
ENDBRANCH  22  23
ENDBRANCH  17  18
ENDBRANCH  16  17
ENDBRANCH  14  16
ENDBRANCH   4  14
BRANCH   6  30
ATOM     30  C   UNL     1      -3.054   5.613   0.071  0.00  0.00    +0.163 C 
BRANCH  30  31
ATOM     31  C   UNL     1      -4.214   5.563   1.033  0.00  0.00    -0.028 A 
ATOM     32  C   UNL     1      -5.067   4.476   1.030  0.00  0.00    +0.005 A 
ATOM     33  C   UNL     1      -6.128   4.428   1.915  0.00  0.00    +0.000 A 
ATOM     34  C   UNL     1      -6.341   5.472   2.796  0.00  0.00    +0.000 A 
ATOM     35  C   UNL     1      -5.491   6.562   2.794  0.00  0.00    +0.000 A 
ATOM     36  C   UNL     1      -4.427   6.607   1.913  0.00  0.00    +0.005 A 
ENDBRANCH  30  31
ENDBRANCH   6  30
TORSDOF 11
