REMARK  Name = ZINC27697408
REMARK  10 active torsions:
REMARK  status: ('A' for Active; 'I' for Inactive)
REMARK    1  A    between atoms: C_1  and  C_2
REMARK    2  A    between atoms: N_5  and  C_8
REMARK    3  A    between atoms: C_8  and  C_9
REMARK    4  A    between atoms: C_9  and  C_11
REMARK    5  A    between atoms: C_9  and  O_36
REMARK    6  A    between atoms: C_11  and  N_12
REMARK    7  A    between atoms: C_20  and  C_21
REMARK    8  A    between atoms: C_21  and  C_23
REMARK    9  A    between atoms: C_21  and  S_29
REMARK   10  A    between atoms: S_29  and  C_30
REMARK                            x       y       z     vdW  Elec       q    Type
REMARK                         _______ _______ _______ _____ _____    ______ ____
ROOT
ATOM      1  N   UNL     1       0.345  -0.602  -0.016  0.00  0.00    -0.324 N 
ATOM      2  C   UNL     1       1.574  -1.228  -0.071  0.00  0.00    +0.069 A 
ATOM      3  C   UNL     1       1.982  -2.553  -0.128  0.00  0.00    +0.028 A 
ATOM      4  C   UNL     1       3.327  -2.852  -0.174  0.00  0.00    +0.002 A 
ATOM      5  C   UNL     1       4.274  -1.838  -0.164  0.00  0.00    +0.002 A 
ATOM      6  C   UNL     1       3.891  -0.528  -0.108  0.00  0.00    +0.030 A 
ATOM      7  C   UNL     1       2.533  -0.201  -0.060  0.00  0.00    +0.089 A 
ATOM      8  N   UNL     1       1.854   0.974  -0.002  0.00  0.00    -0.231 NA
ATOM      9  C   UNL     1       0.575   0.739   0.024  0.00  0.00    +0.129 A 
ENDROOT
BRANCH   1  10
ATOM     10  C   UNL     1      -0.965  -1.259  -0.004  0.00  0.00    +0.153 C 
BRANCH  10  11
ATOM     11  C   UNL     1      -1.459  -1.437  -1.441  0.00  0.00    +0.118 C 
BRANCH  11  12
ATOM     12  O   UNL     1      -0.592  -2.336  -2.135  0.00  0.00    -0.392 OA
ATOM     13  H   UNL     1       0.475  -2.092  -2.250  0.00  0.00    +0.210 HD
ENDBRANCH  11  12
BRANCH  11  14
ATOM     14  C   UNL     1      -2.878  -2.009  -1.425  0.00  0.00    -0.045 C 
BRANCH  14  19
ATOM     15  C   UNL     1      -5.469  -2.237  -6.514  0.00  0.00    +0.007 C 
ATOM     16  C   UNL     1      -5.148  -1.944  -5.047  0.00  0.00    -0.018 C 
ATOM     17  C   UNL     1      -3.848  -1.141  -4.958  0.00  0.00    -0.016 C 
ATOM     18  C   UNL     1      -3.500  -0.904  -3.487  0.00  0.00    -0.078 C 
ATOM     19  N   UNL     1      -3.347  -2.195  -2.804  0.00  0.00    +0.381 N 
ATOM     20  C   UNL     1      -4.598  -2.963  -2.836  0.00  0.00    -0.078 C 
ATOM     21  C   UNL     1      -4.978  -3.262  -4.288  0.00  0.00    -0.016 C 
ATOM     22  H   UNL     1      -2.585  -2.772  -3.347  0.00  0.00    -0.082 HD
ENDBRANCH  14  19
ENDBRANCH  11  14
ENDBRANCH  10  11
ENDBRANCH   1  10
BRANCH   9  23
ATOM     23  C   UNL     1      -0.497   1.797   0.084  0.00  0.00    +0.147 C 
BRANCH  23  24
ATOM     24  C   UNL     1      -0.565   2.364   1.478  0.00  0.00    -0.027 A 
ATOM     25  C   UNL     1       0.545   2.975   2.031  0.00  0.00    +0.005 A 
ATOM     26  C   UNL     1       0.481   3.499   3.309  0.00  0.00    +0.000 A 
ATOM     27  C   UNL     1      -0.690   3.405   4.037  0.00  0.00    +0.000 A 
ATOM     28  C   UNL     1      -1.799   2.790   3.485  0.00  0.00    +0.000 A 
ATOM     29  C   UNL     1      -1.736   2.270   2.206  0.00  0.00    +0.005 A 
ENDBRANCH  23  24
BRANCH  23  30
ATOM     30  S   UNL     1      -0.103   3.123  -1.090  0.00  0.00    -0.109 S 
BRANCH  30  31
ATOM     31  C   UNL     1      -1.501   4.191  -1.011  0.00  0.00    +0.009 A 
ATOM     32  C   UNL     1      -2.564   3.887  -0.168  0.00  0.00    +0.015 A 
ATOM     33  C   UNL     1      -3.656   4.729  -0.105  0.00  0.00    +0.001 A 
ATOM     34  C   UNL     1      -3.698   5.870  -0.887  0.00  0.00    +0.000 A 
ATOM     35  C   UNL     1      -2.645   6.173  -1.730  0.00  0.00    +0.001 A 
ATOM     36  C   UNL     1      -1.547   5.338  -1.795  0.00  0.00    +0.015 A 
ENDBRANCH  30  31
ENDBRANCH  23  30
ENDBRANCH   9  23
TORSDOF 9
