REMARK  Name = ZINC25570322
REMARK  8 active torsions:
REMARK  status: ('A' for Active; 'I' for Inactive)
REMARK    1  A    between atoms: C_1  and  C_2
REMARK    2  A    between atoms: C_2  and  C_4
REMARK    3  A    between atoms: C_2  and  O_17
REMARK    4  A    between atoms: N_6  and  C_7
REMARK    5  A    between atoms: C_11  and  N_13
REMARK    6  A    between atoms: O_17  and  C_18
REMARK    7  A    between atoms: C_18  and  C_20
REMARK    8  A    between atoms: C_23  and  C_26
REMARK                            x       y       z     vdW  Elec       q    Type
REMARK                         _______ _______ _______ _____ _____    ______ ____
ROOT
ATOM      1  C   UNL     1       5.679   4.058   1.048  0.00  0.00    +0.062 C 
ATOM      2  C   UNL     1       4.863   4.233  -0.234  0.00  0.00    +0.259 C 
ENDROOT
BRANCH   2   3
ATOM      3  C   UNL     1       3.569   3.470  -0.113  0.00  0.00    +0.258 C 
ATOM      4  O   UNL     1       2.513   4.067  -0.101  0.00  0.00    -0.271 OA
ATOM      5  N   UNL     1       3.585   2.126  -0.019  0.00  0.00    -0.282 N 
ATOM      6  H   UNL     1       4.543   1.591   0.056  0.00  0.00    +0.155 HD
BRANCH   5   7
ATOM      7  C   UNL     1       2.381   1.410  -0.018  0.00  0.00    +0.036 A 
ATOM      8  C   UNL     1       2.269   0.239   0.720  0.00  0.00    +0.026 A 
ATOM      9  C   UNL     1       1.082  -0.466   0.719  0.00  0.00    +0.042 A 
ATOM     10  C   UNL     1       0.003  -0.006  -0.017  0.00  0.00    +0.154 A 
ATOM     11  C   UNL     1       0.112   1.161  -0.754  0.00  0.00    +0.163 A 
ATOM     12  C   UNL     1       1.298   1.869  -0.756  0.00  0.00    +0.059 A 
ATOM     13  F   UNL     1      -1.158  -0.697  -0.017  0.00  0.00    -0.203 F 
BRANCH  11  14
ATOM     14  N   UNL     1      -1.042   1.651  -1.540  0.00  0.00    +0.059 N 
ATOM     15  O   UNL     1      -0.947   2.678  -2.188  0.00  0.00    -0.126 OA
ATOM     16  O   UNL     1      -2.088   1.026  -1.539  0.00  0.00    -0.126 OA
ENDBRANCH  11  14
ENDBRANCH   5   7
ENDBRANCH   2   3
BRANCH   2  17
ATOM     17  O   UNL     1       4.578   5.642  -0.439  0.00  0.00    -0.449 OA
BRANCH  17  18
ATOM     18  C   UNL     1       5.473   6.349  -1.155  0.00  0.00    +0.340 C 
ATOM     19  O   UNL     1       6.464   5.804  -1.597  0.00  0.00    -0.245 OA
BRANCH  18  20
ATOM     20  C   UNL     1       5.248   7.788  -1.403  0.00  0.00    +0.059 A 
ATOM     21  C   UNL     1       4.107   8.417  -0.901  0.00  0.00    +0.015 A 
ATOM     22  C   UNL     1       3.906   9.762  -1.132  0.00  0.00    +0.006 A 
ATOM     23  C   UNL     1       4.827  10.486  -1.868  0.00  0.00    -0.025 A 
ATOM     24  C   UNL     1       5.958   9.868  -2.373  0.00  0.00    +0.006 A 
ATOM     25  C   UNL     1       6.174   8.524  -2.146  0.00  0.00    +0.015 A 
BRANCH  23  26
ATOM     26  C   UNL     1       4.598  11.953  -2.122  0.00  0.00    +0.133 C 
ATOM     27  S   UNL     1       4.492  12.835  -0.537  0.00  0.00    -0.142 S 
ATOM     28  C   UNL     1       4.095  14.538  -1.019  0.00  0.00    +0.071 C 
ATOM     29  C   UNL     1       2.749  14.578  -1.735  0.00  0.00    +0.021 C 
ATOM     30  C   UNL     1       2.860  13.980  -3.132  0.00  0.00    +0.071 C 
ATOM     31  S   UNL     1       3.038  12.178  -3.025  0.00  0.00    -0.142 S 
ENDBRANCH  23  26
ENDBRANCH  18  20
ENDBRANCH  17  18
ENDBRANCH   2  17
TORSDOF 7
