REMARK  Name = ZINC39675431
REMARK  11 active torsions:
REMARK  status: ('A' for Active; 'I' for Inactive)
REMARK    1  A    between atoms: C_1  and  C_2
REMARK    2  A    between atoms: C_4  and  C_11
REMARK    3  A    between atoms: C_5  and  C_7
REMARK    4  A    between atoms: C_15  and  C_24
REMARK    5  A    between atoms: N_26  and  C_27
REMARK    6  A    between atoms: C_27  and  C_29
REMARK    7  A    between atoms: C_27  and  C_30
REMARK    8  A    between atoms: C_30  and  C_31
REMARK    9  A    between atoms: C_31  and  C_32
REMARK   10  A    between atoms: C_35  and  O_38
REMARK   11  A    between atoms: O_38  and  C_39
REMARK                            x       y       z     vdW  Elec       q    Type
REMARK                         _______ _______ _______ _____ _____    ______ ____
ROOT
ATOM      1  C   UNL     1      -1.198  -3.290   0.013  0.00  0.00    +0.250 C 
ATOM      2  O   UNL     1      -0.671  -4.385   0.062  0.00  0.00    -0.270 OA
ATOM      3  N   UNL     1      -2.539  -3.183   0.090  0.00  0.00    -0.296 N 
ATOM      4  C   UNL     1      -3.365  -1.966  -0.087  0.00  0.00    +0.121 C 
ATOM      5  C   UNL     1      -4.607  -2.448  -0.870  0.00  0.00    +0.100 C 
ATOM      6  C   UNL     1      -4.705  -3.952  -0.564  0.00  0.00    -0.004 C 
ATOM      7  C   UNL     1      -3.522  -4.259   0.364  0.00  0.00    +0.115 C 
ATOM      8  C   UNL     1      -6.024  -4.263   0.137  0.00  0.00    -0.010 C 
ATOM      9  C   UNL     1      -6.124  -5.772   0.379  0.00  0.00    -0.082 C 
ATOM     10  N   UNL     1      -6.050  -6.481  -0.904  0.00  0.00    +0.379 N 
ATOM     11  C   UNL     1      -4.742  -6.250  -1.529  0.00  0.00    -0.082 C 
ATOM     12  C   UNL     1      -4.583  -4.762  -1.851  0.00  0.00    -0.010 C 
ATOM     13  H   UNL     1      -6.177  -7.470  -0.749  0.00  0.00    -0.086 HD
ATOM     14  H   UNL     1      -6.777  -6.143  -1.516  0.00  0.00    -0.086 HD
ENDROOT
BRANCH   1  18
ATOM     15  C   UNL     1       0.313   1.575  -0.267  0.00  0.00    +0.086 C 
ATOM     16  C   UNL     1       0.277   0.069  -0.252  0.00  0.00    +0.103 A 
ATOM     17  C   UNL     1      -0.820  -0.681  -0.065  0.00  0.00    +0.058 A 
ATOM     18  C   UNL     1      -0.370  -2.079  -0.132  0.00  0.00    +0.087 A 
ATOM     19  C   UNL     1       0.975  -2.022  -0.356  0.00  0.00    +0.220 A 
ATOM     20  O   UNL     1       1.336  -0.737  -0.428  0.00  0.00    -0.455 OA
BRANCH  19  21
ATOM     21  C   UNL     1       1.895  -3.206  -0.502  0.00  0.00    +0.451 C 
ATOM     22  F   UNL     1       1.964  -3.579  -1.848  0.00  0.00    -0.163 F 
ATOM     23  F   UNL     1       3.173  -2.862  -0.048  0.00  0.00    -0.163 F 
ATOM     24  F   UNL     1       1.404  -4.275   0.255  0.00  0.00    -0.163 F 
ENDBRANCH  19  21
ENDBRANCH   1  18
BRANCH   5  25
ATOM     25  C   UNL     1      -4.416  -2.222  -2.348  0.00  0.00    +0.218 C 
ATOM     26  O   UNL     1      -3.297  -2.170  -2.814  0.00  0.00    -0.275 OA
ATOM     27  N   UNL     1      -5.488  -2.078  -3.152  0.00  0.00    -0.312 N 
ATOM     28  H   UNL     1      -6.379  -2.047  -2.771  0.00  0.00    +0.149 HD
BRANCH  27  29
ATOM     29  C   UNL     1      -5.306  -1.967  -4.602  0.00  0.00    +0.070 C 
ATOM     30  C   UNL     1      -5.333  -3.363  -5.227  0.00  0.00    +0.028 C 
BRANCH  29  31
ATOM     31  C   UNL     1      -6.435  -1.121  -5.194  0.00  0.00    +0.026 C 
BRANCH  31  32
ATOM     32  C   UNL     1      -6.325   0.313  -4.672  0.00  0.00    +0.037 C 
BRANCH  32  33
ATOM     33  C   UNL     1      -7.505   1.116  -5.157  0.00  0.00    -0.047 A 
ATOM     34  C   UNL     1      -7.473   1.704  -6.408  0.00  0.00    +0.007 A 
ATOM     35  C   UNL     1      -8.552   2.440  -6.855  0.00  0.00    +0.046 A 
ATOM     36  C   UNL     1      -9.671   2.590  -6.047  0.00  0.00    +0.120 A 
ATOM     37  C   UNL     1      -9.701   1.998  -4.793  0.00  0.00    +0.046 A 
ATOM     38  C   UNL     1      -8.621   1.258  -4.353  0.00  0.00    +0.007 A 
BRANCH  36  39
ATOM     39  O   UNL     1     -10.734   3.314  -6.484  0.00  0.00    -0.495 OA
ATOM     40  C   UNL     1     -11.851   3.425  -5.600  0.00  0.00    +0.277 C 
ENDBRANCH  36  39
ENDBRANCH  32  33
ENDBRANCH  31  32
ENDBRANCH  29  31
ENDBRANCH  27  29
ENDBRANCH   5  25
TORSDOF 8
