REMARK  Name = ZINC63414931
REMARK  3 active torsions:
REMARK  status: ('A' for Active; 'I' for Inactive)
REMARK    1  A    between atoms: C_2  and  C_9
REMARK    2  A    between atoms: C_9  and  S_10
REMARK    3  A    between atoms: S_10  and  C_11
REMARK                            x       y       z     vdW  Elec       q    Type
REMARK                         _______ _______ _______ _____ _____    ______ ____
ROOT
ATOM      1  S   UNL     1       1.230   4.174   1.722  0.00  0.00    -0.080 S 
ENDROOT
BRANCH   1   2
ATOM      2  C   UNL     1       1.254   5.929   1.563  0.00  0.00    +0.210 A 
ATOM      3  N   UNL     1       1.276   6.802   2.577  0.00  0.00    -0.188 NA
ATOM      4  H   UNL     1       1.280   8.702   0.135  0.00  0.00    +0.192 HD
ATOM      5  C   UNL     1       1.289   8.030   2.104  0.00  0.00    +0.209 A 
ATOM      6  N   UNL     1       1.276   7.957   0.756  0.00  0.00    -0.246 N 
ATOM      7  N   UNL     1       1.258   6.591   0.431  0.00  0.00    -0.144 NA
ATOM      8  N   UNL     1       1.312   9.190   2.855  0.00  0.00    -0.328 N 
ATOM      9  H   UNL     1       1.320   9.140   3.824  0.00  0.00    +0.145 HD
ATOM     10  H   UNL     1       1.320  10.054   2.414  0.00  0.00    +0.145 HD
ENDBRANCH   1   2
BRANCH   1  11
ATOM     11  C   UNL     1       1.206   3.578   0.009  0.00  0.00    +0.112 C 
BRANCH  11  13
ATOM     12  C   UNL     1      -0.017   1.379   0.010  0.00  0.00    +0.044 A 
ATOM     13  C   UNL     1       1.184   2.071   0.002  0.00  0.00    -0.031 A 
ATOM     14  C   UNL     1       2.365   1.345  -0.013  0.00  0.00    +0.044 A 
ATOM     15  C   UNL     1       2.307  -0.037  -0.020  0.00  0.00    +0.131 A 
ATOM     16  N   UNL     1       1.145  -0.663  -0.013  0.00  0.00    -0.224 NA
ATOM     17  C   UNL     1       0.002  -0.004   0.002  0.00  0.00    +0.131 A 
ATOM     18 CL   UNL     1      -1.495  -0.883   0.012  0.00  0.00    -0.062 Cl
ATOM     19 CL   UNL     1       3.779  -0.958  -0.039  0.00  0.00    -0.062 Cl
ENDBRANCH  11  13
ENDBRANCH   1  11
TORSDOF 3
