REMARK  Name = ZINC35964253
REMARK  10 active torsions:
REMARK  status: ('A' for Active; 'I' for Inactive)
REMARK    1  A    between atoms: C_1  and  C_2
REMARK    2  A    between atoms: C_2  and  N_3
REMARK    3  A    between atoms: C_6  and  C_11
REMARK    4  A    between atoms: N_19  and  C_21
REMARK    5  A    between atoms: C_21  and  C_23
REMARK    6  A    between atoms: C_21  and  C_29
REMARK    7  A    between atoms: N_31  and  C_32
REMARK    8  A    between atoms: C_32  and  C_33
REMARK    9  A    between atoms: C_33  and  C_34
REMARK   10  A    between atoms: C_33  and  C_35
REMARK                            x       y       z     vdW  Elec       q    Type
REMARK                         _______ _______ _______ _____ _____    ______ ____
ROOT
ATOM      1  N   UNL     1       1.506  -1.083   2.860  0.00  0.00    -0.257 N 
ATOM      2  C   UNL     1       2.682  -1.270   2.190  0.00  0.00    +0.042 C 
ATOM      3  C   UNL     1       3.474  -2.330   2.451  0.00  0.00    +0.058 C 
ATOM      4  C   UNL     1       3.015  -3.308   3.514  0.00  0.00    +0.142 C 
ATOM      5  N   UNL     1       1.733  -3.017   4.178  0.00  0.00    -0.288 N 
ATOM      6  C   UNL     1       1.055  -1.912   3.811  0.00  0.00    +0.307 C 
ATOM      7  O   UNL     1      -0.002  -1.661   4.356  0.00  0.00    -0.252 OA
ATOM      8  C   UNL     1       4.622  -2.298   1.633  0.00  0.00    +0.247 C 
ATOM      9  O   UNL     1       5.508  -3.132   1.657  0.00  0.00    -0.270 OA
ATOM     10  N   UNL     1       4.610  -1.224   0.822  0.00  0.00    -0.277 N 
ATOM     11  C   UNL     1       3.376  -0.477   1.106  0.00  0.00    +0.160 C 
ATOM     12  H   UNL     1       1.386  -3.606   4.867  0.00  0.00    +0.151 HD
ENDROOT
BRANCH   4  13
ATOM     13  C   UNL     1       2.910  -4.670   2.878  0.00  0.00    -0.023 A 
ATOM     14  C   UNL     1       1.802  -4.993   2.116  0.00  0.00    +0.006 A 
ATOM     15  C   UNL     1       1.706  -6.243   1.533  0.00  0.00    +0.000 A 
ATOM     16  C   UNL     1       2.717  -7.169   1.711  0.00  0.00    +0.000 A 
ATOM     17  C   UNL     1       3.825  -6.845   2.471  0.00  0.00    +0.000 A 
ATOM     18  C   UNL     1       3.923  -5.594   3.051  0.00  0.00    +0.006 A 
ENDBRANCH   4  13
BRANCH   1  20
ATOM     19  C   UNL     1       1.115   1.268   3.408  0.00  0.00    +0.025 C 
ATOM     20  C   UNL     1       0.698   0.091   2.524  0.00  0.00    +0.111 C 
ENDBRANCH   1  20
BRANCH  10  21
ATOM     21  C   UNL     1       5.636  -0.866  -0.160  0.00  0.00    +0.193 C 
BRANCH  21  22
ATOM     22  C   UNL     1       6.501   0.236   0.396  0.00  0.00    -0.018 A 
ATOM     23  C   UNL     1       5.926   1.421   0.814  0.00  0.00    +0.006 A 
ATOM     24  C   UNL     1       6.719   2.432   1.324  0.00  0.00    +0.000 A 
ATOM     25  C   UNL     1       8.087   2.257   1.416  0.00  0.00    +0.000 A 
ATOM     26  C   UNL     1       8.662   1.071   0.999  0.00  0.00    +0.000 A 
ATOM     27  C   UNL     1       7.869   0.059   0.493  0.00  0.00    +0.006 A 
ENDBRANCH  21  22
BRANCH  21  28
ATOM     28  C   UNL     1       4.974  -0.394  -1.429  0.00  0.00    +0.238 C 
ATOM     29  O   UNL     1       3.764  -0.359  -1.505  0.00  0.00    -0.273 OA
ATOM     30  N   UNL     1       5.727  -0.009  -2.479  0.00  0.00    -0.313 N 
ATOM     31  H   UNL     1       6.695  -0.037  -2.418  0.00  0.00    +0.149 HD
BRANCH  30  32
ATOM     32  C   UNL     1       5.083   0.450  -3.712  0.00  0.00    +0.107 C 
BRANCH  32  33
ATOM     33  C   UNL     1       6.155   0.824  -4.738  0.00  0.00    -0.000 C 
ATOM     34  C   UNL     1       6.941  -0.427  -5.133  0.00  0.00    +0.009 C 
ATOM     35  C   UNL     1       5.488   1.420  -5.979  0.00  0.00    +0.009 C 
ENDBRANCH  32  33
ENDBRANCH  30  32
ENDBRANCH  21  28
ENDBRANCH  10  21
TORSDOF 7
