REMARK  Name = ZINC42026464
REMARK  4 active torsions:
REMARK  status: ('A' for Active; 'I' for Inactive)
REMARK    1  A    between atoms: C_1  and  C_2
REMARK    2  A    between atoms: C_8  and  N_10
REMARK    3  A    between atoms: C_11  and  C_15
REMARK    4  A    between atoms: C_17  and  N_23
REMARK                            x       y       z     vdW  Elec       q    Type
REMARK                         _______ _______ _______ _____ _____    ______ ____
ROOT
ATOM      1  N   UNL     1      -0.060   0.353   2.325  0.00  0.00    -0.222 N 
ATOM      2  C   UNL     1       0.589   0.672   3.472  0.00  0.00    +0.182 A 
ATOM      3  N   UNL     1      -0.267   0.501   4.458  0.00  0.00    -0.108 NA
ATOM      4  N   UNL     1      -1.399   0.099   4.007  0.00  0.00    -0.023 NA
ATOM      5  N   UNL     1      -1.358  -0.010   2.723  0.00  0.00    -0.043 NA
ENDROOT
BRANCH   2   6
ATOM      6  C   UNL     1       1.992   1.125   3.593  0.00  0.00    +0.024 A 
ATOM      7  C   UNL     1       2.956   0.661   2.700  0.00  0.00    +0.036 A 
ATOM      8  C   UNL     1       4.269   1.090   2.817  0.00  0.00    +0.045 A 
ATOM      9  C   UNL     1       4.621   1.981   3.826  0.00  0.00    +0.080 A 
ATOM     10  C   UNL     1       3.664   2.441   4.713  0.00  0.00    +0.062 A 
ATOM     11  C   UNL     1       2.353   2.023   4.598  0.00  0.00    +0.033 A 
ATOM     12 CL   UNL     1       4.112   3.553   5.969  0.00  0.00    -0.082 Cl
ATOM     13 CL   UNL     1       6.266   2.517   3.972  0.00  0.00    -0.080 Cl
BRANCH   8  14
ATOM     14  N   UNL     1       5.239   0.627   1.924  0.00  0.00    -0.357 N 
ATOM     15  H   UNL     1       4.993   0.005   1.221  0.00  0.00    +0.142 HD
ATOM     16  H   UNL     1       6.157   0.927   2.006  0.00  0.00    +0.142 HD
ENDBRANCH   8  14
ENDBRANCH   2   6
BRANCH   1  23
ATOM     17  C   UNL     1      -0.533   2.645   0.619  0.00  0.00    +0.009 C 
ATOM     18  C   UNL     1      -0.446   1.219   0.070  0.00  0.00    +0.011 C 
ATOM     19  C   UNL     1       0.114   1.253  -1.353  0.00  0.00    +0.005 C 
ATOM     20  C   UNL     1       0.200  -0.173  -1.901  0.00  0.00    +0.000 C 
ATOM     21  C   UNL     1       1.123  -1.006  -1.010  0.00  0.00    +0.002 C 
ATOM     22  C   UNL     1       0.563  -1.040   0.413  0.00  0.00    +0.027 C 
ATOM     23  C   UNL     1       0.476   0.385   0.962  0.00  0.00    +0.114 C 
ENDBRANCH   1  23
TORSDOF 3
