REMARK  Name = ZINC06162688
REMARK  8 active torsions:
REMARK  status: ('A' for Active; 'I' for Inactive)
REMARK    1  A    between atoms: C_1  and  C_2
REMARK    2  A    between atoms: C_8  and  C_9
REMARK    3  A    between atoms: C_8  and  N_56
REMARK    4  A    between atoms: C_10  and  O_32
REMARK    5  A    between atoms: C_16  and  C_28
REMARK    6  A    between atoms: C_17  and  C_20
REMARK    7  A    between atoms: C_25  and  O_26
REMARK    8  A    between atoms: O_26  and  C_27
REMARK                            x       y       z     vdW  Elec       q    Type
REMARK                         _______ _______ _______ _____ _____    ______ ____
ROOT
ATOM      1  C   UNL     1      -0.054   3.863   0.024  0.00  0.00    +0.020 A 
ATOM      2  C   UNL     1       1.145   3.170   0.008  0.00  0.00    +0.122 A 
ATOM      3  C   UNL     1       1.159   1.777   0.001  0.00  0.00    +0.046 A 
ATOM      4  C   UNL     1      -0.013   1.076   0.008  0.00  0.00    +0.019 A 
ATOM      5  C   UNL     1      -1.229   1.760   0.017  0.00  0.00    +0.065 A 
ATOM      6  C   UNL     1      -1.254   3.166   0.032  0.00  0.00    +0.144 A 
ATOM      7  O   UNL     1      -2.430   3.824   0.047  0.00  0.00    -0.450 OA
ATOM      8  C   UNL     1      -3.615   3.209   0.036  0.00  0.00    +0.220 A 
ATOM      9  C   UNL     1      -3.736   1.856   0.029  0.00  0.00    +0.080 A 
ATOM     10  C   UNL     1      -2.513   1.036   0.019  0.00  0.00    +0.201 A 
ATOM     11  O   UNL     1      -2.560  -0.182   0.013  0.00  0.00    -0.286 OA
ENDROOT
BRANCH   9  12
ATOM     12  C   UNL     1      -5.075   1.217   0.031  0.00  0.00    +0.031 A 
ATOM     13  C   UNL     1      -5.699   0.903   1.236  0.00  0.00    +0.012 A 
ATOM     14  C   UNL     1      -6.947   0.314   1.233  0.00  0.00    +0.001 A 
ATOM     15  C   UNL     1      -7.576   0.022   0.035  0.00  0.00    +0.004 A 
ATOM     16  C   UNL     1      -6.963   0.324  -1.166  0.00  0.00    +0.046 A 
ATOM     17  C   UNL     1      -5.713   0.921  -1.177  0.00  0.00    +0.128 A 
BRANCH  17  18
ATOM     18  O   UNL     1      -5.110   1.218  -2.358  0.00  0.00    -0.494 OA
ATOM     19  C   UNL     1      -5.822   0.887  -3.552  0.00  0.00    +0.277 C 
ENDBRANCH  17  18
ENDBRANCH   9  12
BRANCH   8  20
ATOM     20  C   UNL     1      -4.867   4.048   0.046  0.00  0.00    +0.451 C 
ATOM     21  F   UNL     1      -5.249   4.300   1.368  0.00  0.00    -0.163 F 
ATOM     22  F   UNL     1      -4.621   5.260  -0.608  0.00  0.00    -0.163 F 
ATOM     23  F   UNL     1      -5.893   3.362  -0.613  0.00  0.00    -0.163 F 
ENDBRANCH   8  20
BRANCH   2  24
ATOM     24  O   UNL     1       2.317   3.855   0.001  0.00  0.00    -0.506 OA
ATOM     25  H   UNL     1       2.648   4.058  -0.885  0.00  0.00    +0.292 HD
ENDBRANCH   2  24
BRANCH   1  26
ATOM     26  C   UNL     1      -0.056   5.370   0.033  0.00  0.00    -0.036 C 
BRANCH  26  33
ATOM     27  C   UNL     1      -0.692   9.287  -2.873  0.00  0.00    +0.005 C 
ATOM     28  C   UNL     1      -0.462   7.775  -2.836  0.00  0.00    -0.031 C 
ATOM     29  C   UNL     1       0.813   7.431  -3.611  0.00  0.00    -0.001 C 
ATOM     30  C   UNL     1       1.066   5.924  -3.518  0.00  0.00    -0.018 C 
ATOM     31  C   UNL     1       1.175   5.519  -2.046  0.00  0.00    -0.078 C 
ATOM     32  C   UNL     1      -0.310   7.316  -1.384  0.00  0.00    -0.075 C 
ATOM     33  N   UNL     1      -0.092   5.854  -1.362  0.00  0.00    +0.383 N 
ATOM     34  H   UNL     1      -0.868   5.395  -1.854  0.00  0.00    -0.081 HD
ENDBRANCH  26  33
ENDBRANCH   1  26
TORSDOF 6
