REMARK  Name = ZINC36258145
REMARK  8 active torsions:
REMARK  status: ('A' for Active; 'I' for Inactive)
REMARK    1  A    between atoms: C_1  and  C_2
REMARK    2  A    between atoms: C_2  and  O_3
REMARK    3  A    between atoms: O_3  and  C_4
REMARK    4  A    between atoms: C_4  and  C_6
REMARK    5  A    between atoms: C_7  and  N_22
REMARK    6  A    between atoms: C_10  and  C_11
REMARK    7  A    between atoms: N_22  and  C_23
REMARK    8  A    between atoms: C_28  and  C_29
REMARK                            x       y       z     vdW  Elec       q    Type
REMARK                         _______ _______ _______ _____ _____    ______ ____
ROOT
ATOM      1  C   UNL     1       1.575  -2.444  -3.560  0.00  0.00    +0.134 C 
ATOM      2  C   UNL     1       1.856  -3.765  -3.922  0.00  0.00    +0.088 C 
ATOM      3  S   UNL     1       2.866  -3.618  -5.380  0.00  0.00    -0.069 S 
ATOM      4  C   UNL     1       2.929  -1.843  -5.527  0.00  0.00    +0.062 C 
ATOM      5  C   UNL     1       3.563  -1.091  -6.464  0.00  0.00    +0.027 C 
ATOM      6  C   UNL     1       2.117  -1.393  -4.384  0.00  0.00    +0.209 C 
ATOM      7  O   UNL     1       1.919  -0.212  -4.148  0.00  0.00    -0.286 OA
ENDROOT
BRANCH   5   8
ATOM      8  C   UNL     1       3.646   0.365  -6.303  0.00  0.00    -0.020 A 
ATOM      9  C   UNL     1       3.861   0.922  -5.036  0.00  0.00    +0.012 A 
ATOM     10  C   UNL     1       3.938   2.288  -4.889  0.00  0.00    +0.050 A 
ATOM     11  C   UNL     1       3.804   3.120  -5.993  0.00  0.00    +0.166 A 
ATOM     12  C   UNL     1       3.589   2.573  -7.260  0.00  0.00    +0.167 A 
ATOM     13  C   UNL     1       3.516   1.204  -7.417  0.00  0.00    +0.057 A 
ATOM     14  O   UNL     1       3.492   3.592  -8.163  0.00  0.00    -0.453 OA
ATOM     15  C   UNL     1       3.240   4.775  -7.382  0.00  0.00    +0.466 C 
ATOM     16  O   UNL     1       3.841   4.479  -6.107  0.00  0.00    -0.453 OA
ENDBRANCH   5   8
BRANCH   1  17
ATOM     17  C   UNL     1       0.755  -2.139  -2.390  0.00  0.00    +0.345 C 
ATOM     18  O   UNL     1       0.308  -3.043  -1.709  0.00  0.00    -0.245 OA
BRANCH  17  19
ATOM     19  O   UNL     1       0.494  -0.856  -2.064  0.00  0.00    -0.461 OA
BRANCH  19  21
ATOM     20  C   UNL     1      -0.500   0.872  -0.699  0.00  0.00    +0.048 C 
ATOM     21  C   UNL     1      -0.314  -0.632  -0.908  0.00  0.00    +0.229 C 
ENDBRANCH  19  21
ENDBRANCH  17  19
ENDBRANCH   1  17
BRANCH   2  22
ATOM     22  N   UNL     1       1.447  -4.912  -3.296  0.00  0.00    -0.308 N 
ATOM     23  H   UNL     1       0.969  -4.861  -2.454  0.00  0.00    +0.153 HD
BRANCH  22  24
ATOM     24  C   UNL     1       1.718  -6.157  -3.872  0.00  0.00    +0.035 A 
ATOM     25  C   UNL     1       1.724  -6.298  -5.254  0.00  0.00    +0.023 A 
ATOM     26  C   UNL     1       1.992  -7.529  -5.819  0.00  0.00    +0.002 A 
ATOM     27  C   UNL     1       2.255  -8.620  -5.011  0.00  0.00    +0.000 A 
ATOM     28  C   UNL     1       2.251  -8.483  -3.635  0.00  0.00    +0.005 A 
ATOM     29  C   UNL     1       1.988  -7.253  -3.063  0.00  0.00    -0.029 A 
ATOM     30  C   UNL     1       1.989  -7.103  -1.564  0.00  0.00    +0.045 C 
ENDBRANCH  22  24
ENDBRANCH   2  22
TORSDOF 6
