REMARK  Name = ZINC64743948
REMARK  8 active torsions:
REMARK  status: ('A' for Active; 'I' for Inactive)
REMARK    1  A    between atoms: C_1  and  O_2
REMARK    2  A    between atoms: O_2  and  C_3
REMARK    3  A    between atoms: C_8  and  C_13
REMARK    4  A    between atoms: C_18  and  C_21
REMARK    5  A    between atoms: C_21  and  C_22
REMARK    6  A    between atoms: N_24  and  C_25
REMARK    7  A    between atoms: C_25  and  C_26
REMARK    8  A    between atoms: C_26  and  C_27
REMARK                            x       y       z     vdW  Elec       q    Type
REMARK                         _______ _______ _______ _____ _____    ______ ____
ROOT
ATOM      1  C   UNL     1      -4.627  -4.874   1.264  0.00  0.00    +0.242 C 
ATOM      2  O   UNL     1      -3.797  -5.274   2.053  0.00  0.00    -0.273 OA
ATOM      3  N   UNL     1      -5.937  -5.095   1.493  0.00  0.00    -0.300 N 
ATOM      4  C   UNL     1      -6.953  -4.621   0.544  0.00  0.00    +0.108 C 
ATOM      5  C   UNL     1      -7.983  -3.778   1.303  0.00  0.00    +0.023 C 
ATOM      6  C   UNL     1      -8.544  -4.595   2.469  0.00  0.00    +0.001 C 
ATOM      7  C   UNL     1      -7.411  -4.956   3.433  0.00  0.00    +0.023 C 
ATOM      8  C   UNL     1      -6.375  -5.817   2.695  0.00  0.00    +0.108 C 
ENDROOT
BRANCH   1  14
ATOM      9  C   UNL     1      -1.198  -0.636   0.010  0.00  0.00    +0.122 A 
ATOM     10  C   UNL     1      -2.372   0.141   0.020  0.00  0.00    +0.046 A 
ATOM     11  C   UNL     1      -3.597  -0.428   0.028  0.00  0.00    +0.013 A 
ATOM     12  C   UNL     1      -3.704  -1.893   0.026  0.00  0.00    -0.003 A 
ATOM     13  C   UNL     1      -4.764  -2.731   0.033  0.00  0.00    +0.016 C 
ATOM     14  C   UNL     1      -4.193  -4.131   0.027  0.00  0.00    +0.190 C 
ATOM     15  N   UNL     1      -2.735  -3.972   0.016  0.00  0.00    -0.370 N 
ATOM     16  C   UNL     1      -2.455  -2.689   0.016  0.00  0.00    +0.047 A 
ATOM     17  C   UNL     1      -1.220  -1.993   0.003  0.00  0.00    +0.071 A 
ATOM     18  H   UNL     1      -2.086  -4.693   0.010  0.00  0.00    +0.161 HD
BRANCH   9  20
ATOM     19  C   UNL     1      -0.017   1.425   0.010  0.00  0.00    +0.277 C 
ATOM     20  O   UNL     1       0.002  -0.004   0.002  0.00  0.00    -0.495 OA
ENDBRANCH   9  20
ENDBRANCH   1  14
BRANCH   6  21
ATOM     21  C   UNL     1      -9.598  -3.768   3.209  0.00  0.00    +0.099 C 
BRANCH  21  22
ATOM     22  C   UNL     1     -10.238  -4.613   4.280  0.00  0.00    +0.213 C 
ATOM     23  O   UNL     1      -9.886  -5.763   4.436  0.00  0.00    -0.276 OA
ATOM     24  N   UNL     1     -11.202  -4.091   5.064  0.00  0.00    -0.315 N 
ATOM     25  H   UNL     1     -11.483  -3.171   4.939  0.00  0.00    +0.149 HD
BRANCH  24  26
ATOM     26  C   UNL     1     -11.824  -4.912   6.106  0.00  0.00    +0.112 C 
BRANCH  26  27
ATOM     27  C   UNL     1     -12.878  -4.086   6.845  0.00  0.00    +0.093 C 
BRANCH  27  28
ATOM     28  C   UNL     1     -13.518  -4.931   7.916  0.00  0.00    +0.106 A 
ATOM     29  C   UNL     1     -13.097  -5.039   9.189  0.00  0.00    +0.044 A 
ATOM     30  C   UNL     1     -13.983  -5.929   9.839  0.00  0.00    +0.041 A 
ATOM     31  C   UNL     1     -14.892  -6.311   8.925  0.00  0.00    +0.195 A 
ATOM     32  O   UNL     1     -14.609  -5.699   7.763  0.00  0.00    -0.468 OA
ENDBRANCH  27  28
ENDBRANCH  26  27
ENDBRANCH  24  26
ENDBRANCH  21  22
ENDBRANCH   6  21
TORSDOF 7
