REMARK  Name = ZINC06149262
REMARK  13 active torsions:
REMARK  status: ('A' for Active; 'I' for Inactive)
REMARK    1  A    between atoms: C_1  and  C_2
REMARK    2  A    between atoms: C_2  and  C_3
REMARK    3  A    between atoms: C_3  and  C_4
REMARK    4  A    between atoms: C_3  and  C_5
REMARK    5  A    between atoms: C_3  and  N_6
REMARK    6  A    between atoms: C_7  and  C_11
REMARK    7  A    between atoms: C_11  and  C_13
REMARK    8  A    between atoms: C_11  and  N_73
REMARK    9  A    between atoms: C_18  and  C_25
REMARK   10  A    between atoms: C_26  and  C_27
REMARK   11  A    between atoms: C_26  and  N_73
REMARK   12  A    between atoms: C_34  and  C_35
REMARK   13  A    between atoms: C_34  and  N_73
REMARK                            x       y       z     vdW  Elec       q    Type
REMARK                         _______ _______ _______ _____ _____    ______ ____
ROOT
ATOM      1  C   UNL     1       1.194   3.140  -0.497  0.00  0.00    +0.039 C 
ENDROOT
BRANCH   1   2
ATOM      2  C   UNL     1       1.587   1.685  -0.495  0.00  0.00    +0.011 A 
ATOM      3  C   UNL     1       0.673   0.737  -0.818  0.00  0.00    +0.017 A 
ATOM      4  C   UNL     1       1.087  -0.667  -0.807  0.00  0.00    -0.001 A 
ATOM      5  C   UNL     1       0.189  -1.689  -1.131  0.00  0.00    +0.010 A 
ATOM      6  C   UNL     1       0.606  -2.989  -1.111  0.00  0.00    +0.004 A 
ATOM      7  C   UNL     1       1.915  -3.306  -0.772  0.00  0.00    -0.048 A 
ATOM      8  C   UNL     1       2.817  -2.315  -0.450  0.00  0.00    +0.029 A 
ATOM      9  C   UNL     1       2.414  -0.984  -0.463  0.00  0.00    +0.049 A 
ATOM     10  N   UNL     1       3.296   0.027  -0.145  0.00  0.00    -0.322 N 
ATOM     11  H   UNL     1       4.239  -0.200   0.099  0.00  0.00    +0.169 HD
ATOM     12  C   UNL     1       2.907   1.314  -0.158  0.00  0.00    +0.251 A 
ATOM     13  O   UNL     1       3.713   2.182   0.128  0.00  0.00    -0.268 OA
ATOM     14  C   UNL     1       2.353  -4.748  -0.757  0.00  0.00    +0.044 C 
ENDBRANCH   1   2
BRANCH   1  16
ATOM     15  N   UNL     1       1.401   4.391  -2.709  0.00  0.00    -0.225 N 
ATOM     16  C   UNL     1       1.935   3.859  -1.594  0.00  0.00    +0.143 A 
ATOM     17  N   UNL     1       3.224   4.094  -1.644  0.00  0.00    -0.115 NA
ATOM     18  N   UNL     1       3.470   4.729  -2.738  0.00  0.00    -0.023 NA
ATOM     19  N   UNL     1       2.370   4.913  -3.382  0.00  0.00    -0.043 NA
BRANCH  15  20
ATOM     20  C   UNL     1      -0.014   4.378  -3.088  0.00  0.00    +0.061 C 
ATOM     21  C   UNL     1      -0.509   2.933  -3.162  0.00  0.00    +0.036 C 
ATOM     22  C   UNL     1      -0.828   5.144  -2.044  0.00  0.00    +0.036 C 
BRANCH  20  24
ATOM     23  C   UNL     1      -1.659   5.032  -4.851  0.00  0.00    +0.006 C 
ATOM     24  C   UNL     1      -0.181   5.045  -4.455  0.00  0.00    +0.026 C 
ENDBRANCH  20  24
ENDBRANCH  15  20
ENDBRANCH   1  16
BRANCH   1  25
ATOM     25  N   UNL     1       1.563   3.738   0.804  0.00  0.00    +0.394 N 
ATOM     26  H   UNL     1       2.576   3.641   0.940  0.00  0.00    -0.080 HD
BRANCH  25  27
ATOM     27  C   UNL     1       1.212   5.174   0.817  0.00  0.00    -0.041 C 
BRANCH  27  28
ATOM     28  C   UNL     1       1.793   5.805   2.056  0.00  0.00    -0.064 A 
ATOM     29  C   UNL     1       1.045   5.864   3.217  0.00  0.00    +0.003 A 
ATOM     30  C   UNL     1       1.580   6.438   4.355  0.00  0.00    +0.020 A 
ATOM     31  C   UNL     1       2.860   6.963   4.329  0.00  0.00    +0.041 A 
ATOM     32  C   UNL     1       3.606   6.908   3.165  0.00  0.00    +0.020 A 
ATOM     33  C   UNL     1       3.072   6.329   2.029  0.00  0.00    +0.003 A 
ATOM     34 CL   UNL     1       3.530   7.689   5.756  0.00  0.00    -0.084 Cl
ENDBRANCH  27  28
ENDBRANCH  25  27
BRANCH  25  35
ATOM     35  C   UNL     1       0.861   3.037   1.899  0.00  0.00    -0.045 C 
BRANCH  35  36
ATOM     36  C   UNL     1      -0.650   3.249   1.792  0.00  0.00    +0.102 C 
ATOM     37  C   UNL     1      -1.366   2.657   3.026  0.00  0.00    +0.032 C 
ATOM     38  C   UNL     1      -2.674   2.066   2.454  0.00  0.00    +0.030 C 
ATOM     39  C   UNL     1      -2.593   2.370   0.942  0.00  0.00    +0.160 C 
ATOM     40  O   UNL     1      -1.182   2.513   0.669  0.00  0.00    -0.378 OA
ENDBRANCH  35  36
ENDBRANCH  25  35
ENDBRANCH   1  25
TORSDOF 9
