REMARK  Name = ZINC39549837
REMARK  11 active torsions:
REMARK  status: ('A' for Active; 'I' for Inactive)
REMARK    1  A    between atoms: C_1  and  C_2
REMARK    2  A    between atoms: C_5  and  C_8
REMARK    3  A    between atoms: C_10  and  N_19
REMARK    4  A    between atoms: N_11  and  C_13
REMARK    5  A    between atoms: C_20  and  C_22
REMARK    6  A    between atoms: C_22  and  O_23
REMARK    7  A    between atoms: O_23  and  C_24
REMARK    8  A    between atoms: C_24  and  C_26
REMARK    9  A    between atoms: C_31  and  N_32
REMARK   10  A    between atoms: N_32  and  C_33
REMARK   11  A    between atoms: C_33  and  C_34
REMARK                            x       y       z     vdW  Elec       q    Type
REMARK                         _______ _______ _______ _____ _____    ______ ____
ROOT
ATOM      1  N   UNL     1       0.009  -7.510   1.495  0.00  0.00    -0.267 N 
ATOM      2  C   UNL     1       0.019  -7.383   2.837  0.00  0.00    +0.256 C 
ATOM      3  O   UNL     1      -0.008  -6.281   3.342  0.00  0.00    -0.272 OA
ATOM      4  H   UNL     1       0.031  -8.392   1.091  0.00  0.00    +0.156 HD
ENDROOT
BRANCH   1   7
ATOM      5  C   UNL     1      -0.104  -4.253  -0.018  0.00  0.00    +0.095 A 
ATOM      6  C   UNL     1      -0.067  -5.085   1.117  0.00  0.00    +0.074 A 
ATOM      7  C   UNL     1      -0.033  -6.374   0.688  0.00  0.00    +0.129 A 
ATOM      8  N   UNL     1      -0.049  -6.356  -0.674  0.00  0.00    -0.218 N 
ATOM      9  N   UNL     1      -0.099  -5.019  -1.089  0.00  0.00    -0.165 NA
BRANCH   5  14
ATOM     10  C   UNL     1      -0.276   1.503   0.018  0.00  0.00    +0.044 C 
ATOM     11  C   UNL     1      -0.231  -0.003   0.009  0.00  0.00    -0.050 A 
ATOM     12  C   UNL     1      -0.229  -0.685  -1.194  0.00  0.00    +0.004 A 
ATOM     13  C   UNL     1      -0.188  -2.064  -1.209  0.00  0.00    +0.010 A 
ATOM     14  C   UNL     1      -0.148  -2.770  -0.008  0.00  0.00    +0.002 A 
ATOM     15  C   UNL     1      -0.150  -2.078   1.201  0.00  0.00    +0.010 A 
ATOM     16  C   UNL     1      -0.186  -0.699   1.204  0.00  0.00    +0.004 A 
ENDBRANCH   5  14
BRANCH   8  17
ATOM     17  C   UNL     1      -0.025  -7.478  -1.513  0.00  0.00    +0.067 A 
ATOM     18  C   UNL     1       0.698  -8.605  -1.146  0.00  0.00    +0.028 A 
ATOM     19  C   UNL     1       0.720  -9.710  -1.974  0.00  0.00    +0.002 A 
ATOM     20  C   UNL     1       0.023  -9.694  -3.169  0.00  0.00    +0.000 A 
ATOM     21  C   UNL     1      -0.697  -8.572  -3.537  0.00  0.00    +0.002 A 
ATOM     22  C   UNL     1      -0.728  -7.467  -2.710  0.00  0.00    +0.028 A 
ENDBRANCH   8  17
ENDBRANCH   1   7
BRANCH   2  23
ATOM     23  C   UNL     1       0.066  -8.611   3.709  0.00  0.00    +0.328 C 
BRANCH  23  24
ATOM     24  O   UNL     1       0.068  -8.219   5.084  0.00  0.00    -0.452 OA
BRANCH  24  25
ATOM     25  C   UNL     1       0.107  -9.205   6.001  0.00  0.00    +0.341 C 
ATOM     26  O   UNL     1       0.139 -10.366   5.644  0.00  0.00    -0.245 OA
BRANCH  25  27
ATOM     27  C   UNL     1       0.113  -8.875   7.437  0.00  0.00    +0.080 A 
ATOM     28  C   UNL     1       0.200  -7.543   7.853  0.00  0.00    +0.017 A 
ATOM     29  C   UNL     1       0.204  -7.242   9.196  0.00  0.00    +0.001 A 
ATOM     30  C   UNL     1       0.123  -8.253  10.141  0.00  0.00    +0.002 A 
ATOM     31  C   UNL     1       0.036  -9.572   9.748  0.00  0.00    +0.024 A 
ATOM     32  C   UNL     1       0.025  -9.896   8.397  0.00  0.00    +0.042 A 
BRANCH  32  33
ATOM     33  N   UNL     1      -0.068 -11.223   7.998  0.00  0.00    -0.336 N 
ATOM     34  H   UNL     1       0.008 -11.453   7.059  0.00  0.00    +0.147 HD
BRANCH  33  35
ATOM     35  C   UNL     1      -0.280 -12.274   8.995  0.00  0.00    +0.176 C 
BRANCH  35  36
ATOM     36  C   UNL     1      -0.343 -13.614   8.308  0.00  0.00    +0.122 A 
ATOM     37  C   UNL     1       0.703 -14.425   8.067  0.00  0.00    +0.046 A 
ATOM     38  C   UNL     1       0.193 -15.566   7.407  0.00  0.00    +0.041 A 
ATOM     39  C   UNL     1      -1.135 -15.384   7.283  0.00  0.00    +0.195 A 
ATOM     40  O   UNL     1      -1.454 -14.203   7.836  0.00  0.00    -0.466 OA
ENDBRANCH  35  36
ENDBRANCH  33  35
ENDBRANCH  32  33
ENDBRANCH  25  27
ENDBRANCH  24  25
ENDBRANCH  23  24
ENDBRANCH   2  23
TORSDOF 10
