REMARK  Name = ZINC16807747
REMARK  6 active torsions:
REMARK  status: ('A' for Active; 'I' for Inactive)
REMARK    1  A    between atoms: C_1  and  C_2
REMARK    2  A    between atoms: C_4  and  N_11
REMARK    3  A    between atoms: C_7  and  O_8
REMARK    4  A    between atoms: C_12  and  C_23
REMARK    5  A    between atoms: N_13  and  S_14
REMARK    6  A    between atoms: S_14  and  C_17
REMARK                            x       y       z     vdW  Elec       q    Type
REMARK                         _______ _______ _______ _____ _____    ______ ____
ROOT
ATOM      1  N   UNL     1       0.025  -2.684  -2.300  0.00  0.00    -0.297 N 
ATOM      2  C   UNL     1      -0.165  -2.138  -3.551  0.00  0.00    +0.152 C 
ATOM      3  N   UNL     1      -0.247  -0.845  -3.692  0.00  0.00    -0.113 NA
ATOM      4  H   UNL     1       0.171  -3.639  -2.204  0.00  0.00    +0.154 HD
ENDROOT
BRANCH   1   8
ATOM      5  C   UNL     1      -1.442   1.465  -0.107  0.00  0.00    +0.047 C 
ATOM      6  C   UNL     1      -0.697   0.155  -0.076  0.00  0.00    -0.006 A 
ATOM      7  C   UNL     1      -0.679  -0.655  -1.194  0.00  0.00    +0.031 A 
ATOM      8  C   UNL     1       0.007  -1.862  -1.166  0.00  0.00    +0.053 A 
ATOM      9  C   UNL     1       0.676  -2.253  -0.013  0.00  0.00    +0.084 A 
ATOM     10  C   UNL     1       0.657  -1.441   1.106  0.00  0.00    +0.103 A 
ATOM     11  C   UNL     1      -0.025  -0.232   1.074  0.00  0.00    +0.140 A 
ATOM     12 CL   UNL     1       1.492  -1.929   2.548  0.00  0.00    -0.078 Cl
ATOM     13 CL   UNL     1       1.534  -3.762   0.025  0.00  0.00    -0.080 Cl
BRANCH  11  14
ATOM     14  O   UNL     1      -0.040   0.570   2.172  0.00  0.00    -0.505 OA
ATOM     15  H   UNL     1      -0.773   0.394   2.778  0.00  0.00    +0.292 HD
ENDBRANCH  11  14
ENDBRANCH   1   8
BRANCH   2  16
ATOM     16  C   UNL     1      -0.276  -3.020  -4.735  0.00  0.00    +0.017 A 
ATOM     17  C   UNL     1       0.658  -2.929  -5.766  0.00  0.00    +0.011 A 
ATOM     18  C   UNL     1       0.550  -3.754  -6.867  0.00  0.00    +0.001 A 
ATOM     19  C   UNL     1      -0.483  -4.670  -6.949  0.00  0.00    +0.000 A 
ATOM     20  C   UNL     1      -1.413  -4.765  -5.929  0.00  0.00    +0.001 A 
ATOM     21  C   UNL     1      -1.312  -3.950  -4.821  0.00  0.00    +0.011 A 
ENDBRANCH   2  16
BRANCH   3  22
ATOM     22  S   UNL     1      -0.663  -0.197  -5.157  0.00  0.00    +0.100 S 
ATOM     23  O   UNL     1       0.397  -0.505  -6.053  0.00  0.00    -0.146 OA
ATOM     24  O   UNL     1      -2.007  -0.584  -5.406  0.00  0.00    -0.146 OA
BRANCH  22  25
ATOM     25  C   UNL     1      -0.670   1.555  -4.969  0.00  0.00    +0.113 A 
ATOM     26  C   UNL     1      -1.826   2.204  -4.579  0.00  0.00    +0.029 A 
ATOM     27  C   UNL     1      -1.832   3.578  -4.431  0.00  0.00    +0.002 A 
ATOM     28  C   UNL     1      -0.680   4.304  -4.672  0.00  0.00    +0.000 A 
ATOM     29  C   UNL     1       0.477   3.655  -5.062  0.00  0.00    +0.002 A 
ATOM     30  C   UNL     1       0.483   2.280  -5.206  0.00  0.00    +0.029 A 
ENDBRANCH  22  25
ENDBRANCH   3  22
TORSDOF 5
