REMARK  Name = ZINC36692479
REMARK  10 active torsions:
REMARK  status: ('A' for Active; 'I' for Inactive)
REMARK    1  A    between atoms: C_1  and  C_2
REMARK    2  A    between atoms: C_2  and  C_3
REMARK    3  A    between atoms: C_3  and  C_4
REMARK    4  A    between atoms: C_4  and  C_6
REMARK    5  A    between atoms: C_4  and  N_7
REMARK    6  A    between atoms: C_8  and  C_10
REMARK    7  A    between atoms: C_10  and  N_11
REMARK    8  A    between atoms: C_16  and  C_23
REMARK    9  A    between atoms: C_19  and  C_21
REMARK   10  A    between atoms: C_19  and  C_22
REMARK                            x       y       z     vdW  Elec       q    Type
REMARK                         _______ _______ _______ _____ _____    ______ ____
ROOT
ATOM      1  N   UNL     1       1.693  -5.565  -1.974  0.00  0.00    -0.215 N 
ATOM      2  C   UNL     1       2.234  -6.704  -1.490  0.00  0.00    +0.247 C 
ATOM      3  O   UNL     1       3.247  -6.795  -0.832  0.00  0.00    -0.273 OA
ATOM      4  C   UNL     1       1.315  -7.811  -1.947  0.00  0.00    +0.113 C 
ATOM      5  C   UNL     1       2.101  -8.932  -2.610  0.00  0.00    +0.038 C 
ATOM      6  C   UNL     1       2.869  -9.728  -1.554  0.00  0.00    -0.011 C 
ATOM      7  C   UNL     1       1.864 -10.363  -0.595  0.00  0.00    +0.009 C 
ATOM      8  C   UNL     1       1.048  -9.297   0.127  0.00  0.00    -0.032 C 
ATOM      9  C   UNL     1       0.415  -8.300  -0.829  0.00  0.00    +0.041 C 
ATOM     10  C   UNL     1       1.919  -8.578   1.161  0.00  0.00    +0.011 C 
ATOM     11  C   UNL     1      -0.086 -10.011   0.893  0.00  0.00    +0.011 C 
ATOM     12  C   UNL     1       3.680 -10.831  -2.243  0.00  0.00    +0.007 C 
ATOM     13  N   UNL     1       0.478  -7.145  -2.970  0.00  0.00    -0.285 N 
ATOM     14  C   UNL     1       0.723  -5.828  -2.859  0.00  0.00    +0.310 C 
ATOM     15  O   UNL     1       0.133  -4.972  -3.488  0.00  0.00    -0.252 OA
ATOM     16  H   UNL     1      -0.122  -7.584  -3.589  0.00  0.00    +0.151 HD
ENDROOT
BRANCH   1  17
ATOM     17  C   UNL     1       2.131  -4.220  -1.602  0.00  0.00    +0.213 C 
BRANCH  17  19
ATOM     18  N   UNL     1       1.551  -2.512   0.092  0.00  0.00    -0.311 N 
ATOM     19  C   UNL     1       1.321  -3.735  -0.427  0.00  0.00    +0.231 C 
ATOM     20  O   UNL     1       0.461  -4.444   0.051  0.00  0.00    -0.274 OA
ATOM     21  H   UNL     1       2.238  -1.944  -0.291  0.00  0.00    +0.149 HD
BRANCH  18  22
ATOM     22  C   UNL     1       0.763  -2.041   1.233  0.00  0.00    +0.070 C 
ATOM     23  C   UNL     1       1.392  -2.549   2.532  0.00  0.00    +0.028 C 
BRANCH  22  24
ATOM     24  C   UNL     1       0.742  -0.511   1.242  0.00  0.00    +0.022 C 
BRANCH  24  26
ATOM     25  C   UNL     1      -0.019   1.526   0.010  0.00  0.00    +0.004 C 
ATOM     26  C   UNL     1       0.002  -0.004   0.002  0.00  0.00    -0.002 C 
ENDBRANCH  24  26
ENDBRANCH  22  24
ENDBRANCH  18  22
ENDBRANCH  17  19
ENDBRANCH   1  17
TORSDOF 5
