REMARK  Name = ZINC66161560
REMARK  8 active torsions:
REMARK  status: ('A' for Active; 'I' for Inactive)
REMARK    1  A    between atoms: C_1  and  C_2
REMARK    2  A    between atoms: C_2  and  C_3
REMARK    3  A    between atoms: C_3  and  C_4
REMARK    4  A    between atoms: C_3  and  C_5
REMARK    5  A    between atoms: C_3  and  O_27
REMARK    6  A    between atoms: C_5  and  N_6
REMARK    7  A    between atoms: N_9  and  C_10
REMARK    8  A    between atoms: C_13  and  C_16
REMARK                            x       y       z     vdW  Elec       q    Type
REMARK                         _______ _______ _______ _____ _____    ______ ____
ROOT
ATOM      1  C   UNL     1       2.706  -5.605  -3.849  0.00  0.00    +0.035 A 
ATOM      2  C   UNL     1       2.169  -6.562  -2.994  0.00  0.00    +0.024 A 
ATOM      3  C   UNL     1       2.420  -7.898  -3.208  0.00  0.00    +0.015 A 
ATOM      4  C   UNL     1       3.216  -8.294  -4.286  0.00  0.00    +0.037 A 
ATOM      5  C   UNL     1       3.754  -7.331  -5.144  0.00  0.00    +0.015 A 
ATOM      6  C   UNL     1       3.494  -5.996  -4.927  0.00  0.00    +0.024 A 
ENDROOT
BRANCH   4   7
ATOM      7  C   UNL     1       3.487  -9.726  -4.519  0.00  0.00    +0.251 C 
ATOM      8  O   UNL     1       2.908 -10.569  -3.862  0.00  0.00    -0.270 OA
ATOM      9  N   UNL     1       4.378 -10.098  -5.459  0.00  0.00    -0.267 N 
ATOM     10  C   UNL     1       5.053  -9.186  -6.386  0.00  0.00    +0.118 C 
ATOM     11  C   UNL     1       5.957 -10.082  -7.248  0.00  0.00    +0.056 C 
ATOM     12  C   UNL     1       5.716 -11.480  -6.725  0.00  0.00    -0.024 A 
ATOM     13  C   UNL     1       4.797 -11.412  -5.689  0.00  0.00    +0.040 A 
ATOM     14  C   UNL     1       4.418 -12.588  -5.040  0.00  0.00    +0.024 A 
ATOM     15  C   UNL     1       4.956 -13.798  -5.425  0.00  0.00    +0.002 A 
ATOM     16  C   UNL     1       5.875 -13.855  -6.456  0.00  0.00    +0.000 A 
ATOM     17  C   UNL     1       6.248 -12.695  -7.110  0.00  0.00    +0.005 A 
ENDBRANCH   4   7
BRANCH   1  21
ATOM     18  N   UNL     1       2.195  -2.459  -2.157  0.00  0.00    -0.296 N 
ATOM     19  C   UNL     1       2.352  -3.781  -2.371  0.00  0.00    +0.304 C 
ATOM     20  O   UNL     1       2.405  -4.547  -1.429  0.00  0.00    -0.253 OA
ATOM     21  N   UNL     1       2.450  -4.253  -3.630  0.00  0.00    -0.269 N 
ATOM     22  H   UNL     1       2.153  -1.848  -2.909  0.00  0.00    +0.150 HD
ATOM     23  H   UNL     1       2.341  -3.651  -4.383  0.00  0.00    +0.156 HD
BRANCH  18  24
ATOM     24  C   UNL     1       2.089  -1.947  -0.789  0.00  0.00    +0.140 C 
BRANCH  24  25
ATOM     25  C   UNL     1       1.919  -0.427  -0.826  0.00  0.00    +0.078 C 
ATOM     26  C   UNL     1       3.067   0.196  -1.623  0.00  0.00    +0.043 C 
BRANCH  25  28
ATOM     27  C   UNL     1       1.763   1.643   0.566  0.00  0.00    +0.007 C 
ATOM     28  C   UNL     1       1.933   0.123   0.602  0.00  0.00    +0.032 C 
ENDBRANCH  25  28
BRANCH  25  29
ATOM     29  O   UNL     1       0.675  -0.101  -1.449  0.00  0.00    -0.387 OA
ATOM     30  H   UNL     1      -0.099  -0.464  -0.996  0.00  0.00    +0.210 HD
ENDBRANCH  25  29
ENDBRANCH  24  25
ENDBRANCH  18  24
ENDBRANCH   1  21
TORSDOF 6
