REMARK  Name = ZINC17664558
REMARK  8 active torsions:
REMARK  status: ('A' for Active; 'I' for Inactive)
REMARK    1  A    between atoms: C_4  and  C_7
REMARK    2  A    between atoms: C_7  and  N_8
REMARK    3  A    between atoms: C_9  and  C_28
REMARK    4  A    between atoms: C_12  and  S_13
REMARK    5  A    between atoms: S_13  and  C_14
REMARK    6  A    between atoms: C_14  and  C_16
REMARK    7  A    between atoms: C_14  and  C_22
REMARK    8  A    between atoms: N_24  and  C_25
REMARK                            x       y       z     vdW  Elec       q    Type
REMARK                         _______ _______ _______ _____ _____    ______ ____
ROOT
ATOM      1  N   UNL     1       2.312   4.333   0.382  0.00  0.00    -0.298 N 
ATOM      2  C   UNL     1       1.232   3.551   0.042  0.00  0.00    +0.167 A 
ATOM      3  N   UNL     1       0.268   4.363  -0.323  0.00  0.00    -0.128 NA
ATOM      4  N   UNL     1       0.661   5.582  -0.228  0.00  0.00    -0.122 NA
ATOM      5  C   UNL     1       1.905   5.623   0.196  0.00  0.00    +0.193 A 
ENDROOT
BRANCH   2   6
ATOM      6  C   UNL     1       1.172   2.074   0.075  0.00  0.00    +0.037 A 
ATOM      7  C   UNL     1      -0.015   1.417   0.423  0.00  0.00    +0.014 A 
ATOM      8  C   UNL     1      -0.019   0.034   0.439  0.00  0.00    +0.020 A 
ATOM      9  C   UNL     1       1.139  -0.650   0.113  0.00  0.00    +0.111 A 
ATOM     10  N   UNL     1       2.243  -0.005  -0.211  0.00  0.00    -0.263 NA
ATOM     11  C   UNL     1       2.297   1.311  -0.240  0.00  0.00    +0.122 A 
ENDBRANCH   2   6
BRANCH   1  12
ATOM     12  C   UNL     1       3.623   3.877   0.849  0.00  0.00    +0.161 C 
BRANCH  12  16
ATOM     13  C   UNL     1       3.461   3.126   5.051  0.00  0.00    +0.000 A 
ATOM     14  C   UNL     1       3.276   2.088   4.155  0.00  0.00    +0.000 A 
ATOM     15  C   UNL     1       3.329   2.332   2.796  0.00  0.00    +0.005 A 
ATOM     16  C   UNL     1       3.566   3.612   2.331  0.00  0.00    -0.028 A 
ATOM     17  C   UNL     1       3.755   4.648   3.226  0.00  0.00    +0.005 A 
ATOM     18  C   UNL     1       3.697   4.406   4.586  0.00  0.00    +0.000 A 
ENDBRANCH  12  16
ENDBRANCH   1  12
BRANCH   5  19
ATOM     19  S   UNL     1       2.868   7.073   0.471  0.00  0.00    -0.068 S 
BRANCH  19  20
ATOM     20  C   UNL     1       1.663   8.343   0.012  0.00  0.00    +0.170 C 
BRANCH  20  21
ATOM     21  C   UNL     1       0.509   8.313   0.981  0.00  0.00    -0.025 A 
ATOM     22  C   UNL     1       0.732   8.528   2.328  0.00  0.00    +0.005 A 
ATOM     23  C   UNL     1      -0.328   8.506   3.216  0.00  0.00    +0.000 A 
ATOM     24  C   UNL     1      -1.608   8.258   2.758  0.00  0.00    +0.000 A 
ATOM     25  C   UNL     1      -1.830   8.038   1.411  0.00  0.00    +0.000 A 
ATOM     26  C   UNL     1      -0.771   8.065   0.523  0.00  0.00    +0.005 A 
ENDBRANCH  20  21
BRANCH  20  27
ATOM     27  C   UNL     1       2.321   9.698   0.056  0.00  0.00    +0.231 C 
ATOM     28  O   UNL     1       3.340   9.857   0.693  0.00  0.00    -0.274 OA
ATOM     29  N   UNL     1       1.776  10.733  -0.614  0.00  0.00    -0.311 N 
ATOM     30  H   UNL     1       0.961  10.605  -1.124  0.00  0.00    +0.149 HD
BRANCH  29  31
ATOM     31  C   UNL     1       2.415  12.051  -0.572  0.00  0.00    +0.073 C 
ATOM     32  C   UNL     1       1.510  13.269  -0.377  0.00  0.00    +0.024 C 
ATOM     33  C   UNL     1       2.150  13.002  -1.741  0.00  0.00    +0.024 C 
ENDBRANCH  29  31
ENDBRANCH  20  27
ENDBRANCH  19  20
ENDBRANCH   5  19
TORSDOF 8
