REMARK  Name = ZINC44786190
REMARK  7 active torsions:
REMARK  status: ('A' for Active; 'I' for Inactive)
REMARK    1  A    between atoms: C_1  and  C_2
REMARK    2  A    between atoms: C_5  and  C_7
REMARK    3  A    between atoms: C_7  and  C_9
REMARK    4  A    between atoms: C_7  and  N_10
REMARK    5  A    between atoms: C_11  and  C_13
REMARK    6  A    between atoms: C_13  and  C_19
REMARK    7  A    between atoms: N_20  and  O_21
REMARK                            x       y       z     vdW  Elec       q    Type
REMARK                         _______ _______ _______ _____ _____    ______ ____
ROOT
ATOM      1  C   UNL     1       3.774  -5.305  -2.345  0.00  0.00    +0.109 C 
ATOM      2  C   UNL     1       3.591  -4.298  -3.486  0.00  0.00    +0.052 C 
ATOM      3  C   UNL     1       2.424  -4.746  -4.369  0.00  0.00    +0.161 C 
ATOM      4  O   UNL     1       2.681  -6.062  -4.864  0.00  0.00    -0.380 OA
ATOM      5  C   UNL     1       2.814  -7.054  -3.844  0.00  0.00    +0.161 C 
ATOM      6  C   UNL     1       3.997  -6.699  -2.940  0.00  0.00    +0.052 C 
ENDROOT
BRANCH   1   7
ATOM      7  C   UNL     1       4.969  -4.915  -1.514  0.00  0.00    +0.147 C 
ATOM      8  N   UNL     1       6.007  -5.684  -1.473  0.00  0.00    -0.076 NA
ATOM      9  N   UNL     1       4.955  -3.739  -0.796  0.00  0.00    -0.343 N 
ATOM     10  H   UNL     1       4.208  -3.126  -0.885  0.00  0.00    +0.144 HD
ATOM     11  H   UNL     1       5.691  -3.525  -0.202  0.00  0.00    +0.144 HD
BRANCH   8  12
ATOM     12  O   UNL     1       7.129  -5.317  -0.692  0.00  0.00    -0.408 OA
ATOM     13  H   UNL     1       7.856  -5.954  -0.724  0.00  0.00    +0.328 HD
ENDBRANCH   8  12
ENDBRANCH   1   7
BRANCH   1  15
ATOM     14  N   UNL     1       2.416  -6.230  -0.497  0.00  0.00    -0.307 N 
ATOM     15  C   UNL     1       2.540  -5.317  -1.481  0.00  0.00    +0.227 C 
ATOM     16  O   UNL     1       1.659  -4.505  -1.669  0.00  0.00    -0.275 OA
ATOM     17  H   UNL     1       3.085  -6.924  -0.392  0.00  0.00    +0.149 HD
BRANCH  14  18
ATOM     18  C   UNL     1       1.269  -6.174   0.413  0.00  0.00    +0.107 C 
ATOM     19  C   UNL     1       0.082  -6.905  -0.216  0.00  0.00    +0.033 C 
BRANCH  18  24
ATOM     20  C   UNL     1       3.097  -9.323   4.753  0.00  0.00    +0.051 C 
ATOM     21  C   UNL     1       2.501  -8.334   3.785  0.00  0.00    -0.013 A 
ATOM     22  C   UNL     1       1.764  -7.226   4.041  0.00  0.00    +0.011 A 
ATOM     23  C   UNL     1       1.318  -6.457   2.982  0.00  0.00    +0.013 A 
ATOM     24  C   UNL     1       1.632  -6.835   1.718  0.00  0.00    +0.010 A 
ATOM     25  S   UNL     1       2.591  -8.314   2.002  0.00  0.00    -0.097 S 
ENDBRANCH  18  24
ENDBRANCH  14  18
ENDBRANCH   1  15
TORSDOF 5
