REMARK  Name = ZINC16878186
REMARK  10 active torsions:
REMARK  status: ('A' for Active; 'I' for Inactive)
REMARK    1  A    between atoms: C_1  and  C_2
REMARK    2  A    between atoms: C_2  and  C_3
REMARK    3  A    between atoms: C_2  and  C_4
REMARK    4  A    between atoms: C_2  and  C_5
REMARK    5  A    between atoms: N_13  and  C_17
REMARK    6  A    between atoms: C_17  and  N_18
REMARK    7  A    between atoms: N_18  and  C_19
REMARK    8  A    between atoms: N_18  and  C_20
REMARK    9  A    between atoms: C_20  and  C_21
REMARK   10  A    between atoms: C_24  and  N_27
REMARK                            x       y       z     vdW  Elec       q    Type
REMARK                         _______ _______ _______ _____ _____    ______ ____
ROOT
ATOM      1  C   UNL     1      -0.019   1.526   0.010  0.00  0.00    -0.005 C 
ATOM      2  C   UNL     1      -0.759   2.033  -1.229  0.00  0.00    +0.006 C 
ATOM      3  C   UNL     1      -0.790   3.563  -1.213  0.00  0.00    +0.035 C 
ATOM      4  C   UNL     1       0.636   4.103  -1.197  0.00  0.00    +0.113 C 
ATOM      5  C   UNL     1       1.395   3.586   0.020  0.00  0.00    +0.035 C 
ATOM      6  C   UNL     1       1.417   2.055  -0.000  0.00  0.00    +0.006 C 
ATOM      7  C   UNL     1       0.627   5.614  -1.209  0.00  0.00    +0.248 C 
ATOM      8  O   UNL     1       0.148   6.352  -0.374  0.00  0.00    -0.273 OA
ATOM      9  N   UNL     1       1.264   5.969  -2.344  0.00  0.00    -0.211 N 
ATOM     10  C   UNL     1       1.667   4.899  -3.038  0.00  0.00    +0.310 C 
ATOM     11  O   UNL     1       2.264   4.964  -4.095  0.00  0.00    -0.252 OA
ATOM     12  N   UNL     1       1.338   3.740  -2.434  0.00  0.00    -0.285 N 
ATOM     13  H   UNL     1       1.493   2.682  -2.689  0.00  0.00    +0.151 HD
ENDROOT
BRANCH   1  15
ATOM     14  C   UNL     1       0.742  -0.511   1.242  0.00  0.00    +0.011 C 
ATOM     15  C   UNL     1       0.002  -0.004   0.002  0.00  0.00    -0.035 C 
ATOM     16  C   UNL     1      -1.433  -0.534   0.013  0.00  0.00    +0.011 C 
ATOM     17  C   UNL     1       0.718  -0.497  -1.257  0.00  0.00    +0.011 C 
ENDBRANCH   1  15
BRANCH   9  18
ATOM     18  C   UNL     1       1.487   7.355  -2.764  0.00  0.00    +0.205 C 
BRANCH  18  19
ATOM     19  N   UNL     1       2.767   7.831  -2.223  0.00  0.00    -0.285 NA
ATOM     20  C   UNL     1       2.624   8.251  -0.823  0.00  0.00    +0.106 C 
BRANCH  19  21
ATOM     21  C   UNL     1       3.314   8.918  -3.046  0.00  0.00    +0.120 C 
BRANCH  21  22
ATOM     22  C   UNL     1       4.728   9.212  -2.613  0.00  0.00    -0.033 A 
ATOM     23  C   UNL     1       4.966  10.154  -1.630  0.00  0.00    +0.007 A 
ATOM     24  C   UNL     1       6.260  10.422  -1.227  0.00  0.00    +0.023 A 
ATOM     25  C   UNL     1       7.323   9.753  -1.820  0.00  0.00    +0.030 A 
ATOM     26  C   UNL     1       7.080   8.811  -2.811  0.00  0.00    +0.023 A 
ATOM     27  C   UNL     1       5.784   8.543  -3.205  0.00  0.00    +0.007 A 
BRANCH  25  28
ATOM     28  N   UNL     1       8.633  10.025  -1.419  0.00  0.00    -0.330 N 
ATOM     29  C   UNL     1       9.317   8.800  -0.987  0.00  0.00    +0.105 C 
ATOM     30  C   UNL     1      10.786   9.110  -0.694  0.00  0.00    +0.019 C 
ATOM     31  C   UNL     1      10.870  10.176   0.401  0.00  0.00    +0.003 C 
ATOM     32  C   UNL     1      10.108  11.425  -0.053  0.00  0.00    +0.019 C 
ATOM     33  C   UNL     1       8.658  11.047  -0.364  0.00  0.00    +0.105 C 
ENDBRANCH  25  28
ENDBRANCH  21  22
ENDBRANCH  19  21
ENDBRANCH  18  19
ENDBRANCH   9  18
TORSDOF 6
