REMARK  Name = ZINC65170477
REMARK  8 active torsions:
REMARK  status: ('A' for Active; 'I' for Inactive)
REMARK    1  A    between atoms: C_1  and  C_2
REMARK    2  A    between atoms: N_5  and  C_8
REMARK    3  A    between atoms: C_8  and  C_9
REMARK    4  A    between atoms: C_9  and  C_10
REMARK    5  A    between atoms: C_9  and  O_29
REMARK    6  A    between atoms: C_10  and  N_11
REMARK    7  A    between atoms: C_14  and  C_18
REMARK    8  A    between atoms: C_14  and  C_19
REMARK                            x       y       z     vdW  Elec       q    Type
REMARK                         _______ _______ _______ _____ _____    ______ ____
ROOT
ATOM      1  N   UNL     1       3.838  -6.351   2.133  0.00  0.00    -0.222 N 
ATOM      2  C   UNL     1       5.158  -6.273   1.873  0.00  0.00    +0.251 C 
ATOM      3  O   UNL     1       5.680  -5.960   0.825  0.00  0.00    -0.272 OA
ATOM      4  C   UNL     1       5.853  -6.657   3.164  0.00  0.00    +0.136 C 
ATOM      5  N   UNL     1       4.740  -6.933   4.088  0.00  0.00    -0.281 N 
ATOM      6  C   UNL     1       3.605  -6.722   3.397  0.00  0.00    +0.310 C 
ATOM      7  O   UNL     1       2.492  -6.858   3.867  0.00  0.00    -0.252 OA
ATOM      8  C   UNL     1       6.707  -5.498   3.681  0.00  0.00    +0.047 C 
ATOM      9  H   UNL     1       4.811  -7.209   5.015  0.00  0.00    +0.152 HD
ENDROOT
BRANCH   4  10
ATOM     10  C   UNL     1       6.696  -7.891   2.965  0.00  0.00    -0.008 A 
ATOM     11  C   UNL     1       6.404  -9.034   3.644  0.00  0.00    +0.007 A 
ATOM     12  C   UNL     1       7.172 -10.185   3.473  0.00  0.00    +0.001 A 
ATOM     13  C   UNL     1       8.236 -10.198   2.624  0.00  0.00    +0.008 A 
ATOM     14  C   UNL     1       8.567  -9.037   1.906  0.00  0.00    -0.018 A 
ATOM     15  C   UNL     1       7.782  -7.868   2.075  0.00  0.00    -0.012 A 
ATOM     16  C   UNL     1       8.110  -6.708   1.353  0.00  0.00    +0.009 A 
ATOM     17  C   UNL     1       9.170  -6.723   0.499  0.00  0.00    +0.001 A 
ATOM     18  C   UNL     1       9.937  -7.874   0.328  0.00  0.00    +0.001 A 
ATOM     19  C   UNL     1       9.658  -9.012   1.020  0.00  0.00    +0.008 A 
ENDBRANCH   4  10
BRANCH   1  20
ATOM     20  C   UNL     1       2.788  -6.059   1.154  0.00  0.00    +0.147 C 
BRANCH  20  21
ATOM     21  C   UNL     1       2.426  -4.574   1.221  0.00  0.00    +0.116 C 
BRANCH  21  22
ATOM     22  O   UNL     1       1.956  -4.257   2.533  0.00  0.00    -0.392 OA
ATOM     23  H   UNL     1       1.171  -4.754   2.800  0.00  0.00    +0.210 HD
ENDBRANCH  21  22
BRANCH  21  24
ATOM     24  C   UNL     1       1.329  -4.269   0.199  0.00  0.00    -0.046 C 
BRANCH  24  29
ATOM     25  C   UNL     1       0.306   1.250  -0.807  0.00  0.00    +0.007 C 
ATOM     26  C   UNL     1       0.659  -0.229  -0.978  0.00  0.00    -0.018 C 
ATOM     27  C   UNL     1       1.874  -0.568  -0.109  0.00  0.00    -0.016 C 
ATOM     28  C   UNL     1       2.172  -2.065  -0.222  0.00  0.00    -0.078 C 
ATOM     29  N   UNL     1       1.010  -2.835   0.236  0.00  0.00    +0.381 N 
ATOM     30  C   UNL     1      -0.140  -2.569  -0.636  0.00  0.00    -0.078 C 
ATOM     31  C   UNL     1      -0.527  -1.092  -0.539  0.00  0.00    -0.016 C 
ATOM     32  H   UNL     1       0.782  -2.568   1.182  0.00  0.00    -0.082 HD
ENDBRANCH  24  29
ENDBRANCH  21  24
ENDBRANCH  20  21
ENDBRANCH   1  20
TORSDOF 6
