REMARK  Name = ZINC03572863
REMARK  7 active torsions:
REMARK  status: ('A' for Active; 'I' for Inactive)
REMARK    1  A    between atoms: C_1  and  C_2
REMARK    2  A    between atoms: C_2  and  C_4
REMARK    3  A    between atoms: C_9  and  N_10
REMARK    4  A    between atoms: C_11  and  C_13
REMARK    5  A    between atoms: C_13  and  N_14
REMARK    6  A    between atoms: C_17  and  C_21
REMARK    7  A    between atoms: C_17  and  C_27
REMARK                            x       y       z     vdW  Elec       q    Type
REMARK                         _______ _______ _______ _____ _____    ______ ____
ROOT
ATOM      1  N   UNL     1       0.850   2.030  -0.157  0.00  0.00    -0.215 N 
ATOM      2  C   UNL     1      -0.265   1.318   0.102  0.00  0.00    +0.256 C 
ATOM      3  O   UNL     1      -0.384   0.112   0.087  0.00  0.00    -0.272 OA
ATOM      4  C   UNL     1      -1.342   2.340   0.408  0.00  0.00    +0.164 C 
ATOM      5  N   UNL     1      -0.641   3.630   0.282  0.00  0.00    -0.278 N 
ATOM      6  C   UNL     1       0.630   3.345  -0.052  0.00  0.00    +0.310 C 
ATOM      7  O   UNL     1       1.485   4.189  -0.239  0.00  0.00    -0.252 OA
ATOM      8  H   UNL     1      -1.023   4.512   0.412  0.00  0.00    +0.152 HD
ENDROOT
BRANCH   4   9
ATOM      9  C   UNL     1      -2.464   2.244  -0.593  0.00  0.00    -0.011 A 
ATOM     10  C   UNL     1      -2.714   1.048  -1.239  0.00  0.00    +0.006 A 
ATOM     11  C   UNL     1      -3.747   0.959  -2.154  0.00  0.00    +0.000 A 
ATOM     12  C   UNL     1      -4.523   2.069  -2.430  0.00  0.00    +0.000 A 
ATOM     13  C   UNL     1      -4.270   3.267  -1.788  0.00  0.00    +0.000 A 
ATOM     14  C   UNL     1      -3.240   3.354  -0.870  0.00  0.00    +0.006 A 
ENDBRANCH   4   9
BRANCH   4  15
ATOM     15  C   UNL     1      -1.863   2.157   1.810  0.00  0.00    -0.011 A 
ATOM     16  C   UNL     1      -2.866   1.239   2.060  0.00  0.00    +0.006 A 
ATOM     17  C   UNL     1      -3.341   1.068   3.347  0.00  0.00    +0.000 A 
ATOM     18  C   UNL     1      -2.820   1.821   4.382  0.00  0.00    +0.000 A 
ATOM     19  C   UNL     1      -1.820   2.743   4.131  0.00  0.00    +0.000 A 
ATOM     20  C   UNL     1      -1.342   2.911   2.845  0.00  0.00    +0.006 A 
ENDBRANCH   4  15
BRANCH   1  21
ATOM     21  C   UNL     1       2.142   1.436  -0.508  0.00  0.00    +0.214 C 
BRANCH  21  23
ATOM     22  N   UNL     1       3.343   0.754  -2.560  0.00  0.00    -0.284 N 
ATOM     23  C   UNL     1       2.235   1.282  -2.004  0.00  0.00    +0.235 C 
ATOM     24  O   UNL     1       1.312   1.634  -2.708  0.00  0.00    -0.274 OA
ATOM     25  H   UNL     1       4.059   0.424  -1.995  0.00  0.00    +0.155 HD
BRANCH  22  31
ATOM     26  C   UNL     1       4.711   0.868  -4.559  0.00  0.00    +0.038 A 
ATOM     27  C   UNL     1       4.813   0.793  -5.953  0.00  0.00    +0.013 A 
ATOM     28  C   UNL     1       3.692   0.538  -6.710  0.00  0.00    +0.001 A 
ATOM     29  C   UNL     1       2.461   0.354  -6.101  0.00  0.00    +0.002 A 
ATOM     30  C   UNL     1       2.344   0.420  -4.727  0.00  0.00    +0.024 A 
ATOM     31  C   UNL     1       3.460   0.682  -3.945  0.00  0.00    +0.044 A 
BRANCH  26  33
ATOM     32  C   UNL     1       7.215   1.455  -4.411  0.00  0.00    +0.091 C 
ATOM     33  C   UNL     1       5.901   1.139  -3.744  0.00  0.00    +0.162 C 
ATOM     34  O   UNL     1       5.827   1.110  -2.533  0.00  0.00    -0.292 OA
ENDBRANCH  26  33
ENDBRANCH  22  31
ENDBRANCH  21  23
ENDBRANCH   1  21
TORSDOF 6
