REMARK  Name = ZINC21163016
REMARK  7 active torsions:
REMARK  status: ('A' for Active; 'I' for Inactive)
REMARK    1  A    between atoms: C_1  and  C_2
REMARK    2  A    between atoms: C_7  and  C_8
REMARK    3  A    between atoms: C_8  and  N_9
REMARK    4  A    between atoms: C_21  and  C_24
REMARK    5  A    between atoms: N_26  and  C_27
REMARK    6  A    between atoms: C_27  and  C_29
REMARK    7  A    between atoms: C_27  and  C_30
REMARK                            x       y       z     vdW  Elec       q    Type
REMARK                         _______ _______ _______ _____ _____    ______ ____
ROOT
ATOM      1  N   UNL     1       2.359   4.618   0.374  0.00  0.00    -0.309 N 
ATOM      2  C   UNL     1       1.074   4.121   0.236  0.00  0.00    +0.068 A 
ATOM      3  C   UNL     1       0.421   2.995   0.715  0.00  0.00    +0.028 A 
ATOM      4  C   UNL     1      -0.901   2.777   0.389  0.00  0.00    +0.002 A 
ATOM      5  C   UNL     1      -1.582   3.673  -0.422  0.00  0.00    +0.002 A 
ATOM      6  C   UNL     1      -0.952   4.799  -0.902  0.00  0.00    +0.028 A 
ATOM      7  C   UNL     1       0.388   5.035  -0.581  0.00  0.00    +0.065 A 
ATOM      8  N   UNL     1       1.263   6.025  -0.897  0.00  0.00    -0.327 N 
ATOM      9  C   UNL     1       2.422   5.782  -0.336  0.00  0.00    +0.177 A 
ATOM     10  N   UNL     1       3.539   6.583  -0.448  0.00  0.00    -0.302 N 
ATOM     11  C   UNL     1       4.470   6.051  -1.450  0.00  0.00    +0.108 C 
ATOM     12  C   UNL     1       5.757   6.880  -1.443  0.00  0.00    +0.032 C 
ATOM     13  C   UNL     1       5.420   8.340  -1.757  0.00  0.00    +0.078 C 
ATOM     14  C   UNL     1       4.411   8.855  -0.726  0.00  0.00    +0.032 C 
ATOM     15  C   UNL     1       3.164   7.970  -0.754  0.00  0.00    +0.108 C 
ATOM     16  H   UNL     1       0.941   6.860  -1.536  0.00  0.00    +0.169 HD
ENDROOT
BRANCH  13  17
ATOM     17  C   UNL     1       6.675   9.172  -1.692  0.00  0.00    +0.216 C 
ATOM     18  O   UNL     1       6.756  10.087  -0.901  0.00  0.00    -0.276 OA
ATOM     19  N   UNL     1       7.707   8.898  -2.515  0.00  0.00    -0.312 N 
ATOM     20  H   UNL     1       7.634   8.068  -3.233  0.00  0.00    +0.149 HD
BRANCH  19  21
ATOM     21  C   UNL     1       8.928   9.707  -2.452  0.00  0.00    +0.076 C 
ATOM     22  C   UNL     1       9.846   9.160  -1.357  0.00  0.00    +0.028 C 
BRANCH  21  23
ATOM     23  C   UNL     1       9.649   9.646  -3.800  0.00  0.00    -0.010 C 
ATOM     24  C   UNL     1       8.731  10.193  -4.895  0.00  0.00    +0.012 C 
ATOM     25  C   UNL     1       9.452  10.133  -6.243  0.00  0.00    -0.010 C 
ATOM     26  C   UNL     1      10.727  10.977  -6.177  0.00  0.00    +0.007 C 
ATOM     27  C   UNL     1      11.645  10.430  -5.082  0.00  0.00    -0.010 C 
ATOM     28  C   UNL     1      10.923  10.491  -3.735  0.00  0.00    +0.012 C 
ATOM     29  C   UNL     1      12.010   8.979  -5.401  0.00  0.00    +0.007 C 
ATOM     30  C   UNL     1      10.736   8.135  -5.466  0.00  0.00    -0.010 C 
ATOM     31  C   UNL     1       9.818   8.681  -6.561  0.00  0.00    +0.007 C 
ATOM     32  C   UNL     1      10.015   8.195  -4.118  0.00  0.00    +0.012 C 
ENDBRANCH  21  23
ENDBRANCH  19  21
ENDBRANCH  13  17
BRANCH   1  33
ATOM     33  C   UNL     1       3.449   4.009   1.141  0.00  0.00    +0.160 C 
BRANCH  33  40
ATOM     34  C   UNL     1       2.710   2.207   3.276  0.00  0.00    +0.044 C 
ATOM     35  C   UNL     1       3.047   3.643   3.585  0.00  0.00    -0.046 A 
ATOM     36  C   UNL     1       3.007   4.097   4.890  0.00  0.00    +0.004 A 
ATOM     37  C   UNL     1       3.312   5.415   5.173  0.00  0.00    +0.000 A 
ATOM     38  C   UNL     1       3.661   6.279   4.150  0.00  0.00    +0.000 A 
ATOM     39  C   UNL     1       3.705   5.824   2.846  0.00  0.00    +0.005 A 
ATOM     40  C   UNL     1       3.401   4.505   2.563  0.00  0.00    -0.025 A 
ENDBRANCH  33  40
ENDBRANCH   1  33
TORSDOF 5
