REMARK  Name = ZINC44792119
REMARK  6 active torsions:
REMARK  status: ('A' for Active; 'I' for Inactive)
REMARK    1  A    between atoms: C_1  and  C_2
REMARK    2  A    between atoms: C_8  and  N_10
REMARK    3  A    between atoms: N_10  and  C_11
REMARK    4  A    between atoms: C_12  and  C_14
REMARK    5  A    between atoms: C_14  and  C_19
REMARK    6  A    between atoms: N_20  and  O_21
REMARK                            x       y       z     vdW  Elec       q    Type
REMARK                         _______ _______ _______ _____ _____    ______ ____
ROOT
ATOM      1  C   UNL     1       0.153   1.463   4.191  0.00  0.00    +0.105 C 
ATOM      2  C   UNL     1       0.948   2.609   4.850  0.00  0.00    +0.024 C 
ATOM      3  C   UNL     1       0.444   3.884   4.130  0.00  0.00    +0.001 C 
ATOM      4  C   UNL     1      -1.067   3.597   3.945  0.00  0.00    +0.001 C 
ATOM      5  C   UNL     1      -1.128   2.091   3.616  0.00  0.00    +0.024 C 
ENDROOT
BRANCH   1   6
ATOM      6  C   UNL     1      -0.200   0.421   5.221  0.00  0.00    +0.147 C 
ATOM      7  N   UNL     1      -1.439   0.159   5.476  0.00  0.00    -0.076 NA
ATOM      8  N   UNL     1       0.798  -0.253   5.889  0.00  0.00    -0.343 N 
ATOM      9  H   UNL     1       1.726  -0.005   5.753  0.00  0.00    +0.144 HD
ATOM     10  H   UNL     1       0.573  -0.975   6.497  0.00  0.00    +0.144 HD
BRANCH   7  11
ATOM     11  O   UNL     1      -1.771  -0.820   6.443  0.00  0.00    -0.408 OA
ATOM     12  H   UNL     1      -2.722  -0.946   6.565  0.00  0.00    +0.328 HD
ENDBRANCH   7  11
ENDBRANCH   1   6
BRANCH   1  15
ATOM     13  N   UNL     1       0.505  -0.252   2.444  0.00  0.00    -0.300 N 
ATOM     14  C   UNL     1      -0.687  -0.945   2.940  0.00  0.00    +0.132 C 
ATOM     15  C   UNL     1       0.965   0.841   3.085  0.00  0.00    +0.229 C 
ATOM     16  O   UNL     1       2.033   1.323   2.771  0.00  0.00    -0.275 OA
BRANCH  13  23
ATOM     17  C   UNL     1      -1.004  -1.297   0.203  0.00  0.00    +0.009 C 
ATOM     18  C   UNL     1       0.364  -1.854   0.602  0.00  0.00    +0.006 C 
ATOM     19  C   UNL     1       0.178  -3.002   1.596  0.00  0.00    +0.005 C 
ATOM     20  C   UNL     1       1.546  -3.559   1.994  0.00  0.00    +0.000 C 
ATOM     21  C   UNL     1       2.378  -2.452   2.644  0.00  0.00    +0.002 C 
ATOM     22  C   UNL     1       2.565  -1.304   1.649  0.00  0.00    +0.023 C 
ATOM     23  C   UNL     1       1.197  -0.747   1.251  0.00  0.00    +0.079 C 
ENDBRANCH  13  23
ENDBRANCH   1  15
TORSDOF 4
