REMARK  Name = ZINC01727455
REMARK  6 active torsions:
REMARK  status: ('A' for Active; 'I' for Inactive)
REMARK    1  A    between atoms: C_1  and  C_2
REMARK    2  A    between atoms: C_3  and  C_12
REMARK    3  A    between atoms: C_12  and  C_13
REMARK    4  A    between atoms: C_12  and  C_14
REMARK    5  A    between atoms: C_12  and  C_25
REMARK    6  A    between atoms: C_14  and  C_15
REMARK                            x       y       z     vdW  Elec       q    Type
REMARK                         _______ _______ _______ _____ _____    ______ ____
ROOT
ATOM      1  C   UNL     1      -0.203   1.310  -0.089  0.00  0.00    +0.025 C 
ATOM      2  C   UNL     1      -0.841   1.579   1.276  0.00  0.00    +0.021 C 
ENDROOT
BRANCH   1   5
ATOM      3  C   UNL     1       1.221  -0.066  -2.479  0.00  0.00    +0.063 C 
ATOM      4  C   UNL     1       0.624  -0.776  -1.291  0.00  0.00    +0.018 A 
ATOM      5  C   UNL     1       0.009  -0.172  -0.262  0.00  0.00    -0.009 A 
ATOM      6  C   UNL     1      -0.410  -1.226   0.665  0.00  0.00    +0.004 A 
ATOM      7  C   UNL     1      -1.089  -1.232   1.885  0.00  0.00    +0.010 A 
ATOM      8  C   UNL     1      -1.341  -2.417   2.515  0.00  0.00    +0.001 A 
ATOM      9  C   UNL     1      -0.935  -3.618   1.948  0.00  0.00    +0.002 A 
ATOM     10  C   UNL     1      -0.270  -3.635   0.742  0.00  0.00    +0.026 A 
ATOM     11  C   UNL     1      -0.002  -2.440   0.083  0.00  0.00    +0.047 A 
ATOM     12  N   UNL     1       0.626  -2.131  -1.102  0.00  0.00    -0.358 N 
ATOM     13  H   UNL     1       1.013  -2.778  -1.713  0.00  0.00    +0.166 HD
ENDBRANCH   1   5
BRANCH   1  14
ATOM     14  C   UNL     1      -1.113   1.818  -1.177  0.00  0.00    -0.034 A 
ATOM     15  C   UNL     1      -1.724   0.939  -2.059  0.00  0.00    +0.024 A 
ATOM     16  C   UNL     1      -2.556   1.441  -3.042  0.00  0.00    +0.111 A 
ATOM     17  N   UNL     1      -2.763   2.739  -3.152  0.00  0.00    -0.263 NA
ATOM     18  C   UNL     1      -2.195   3.604  -2.335  0.00  0.00    +0.111 A 
ATOM     19  C   UNL     1      -1.355   3.175  -1.325  0.00  0.00    +0.024 A 
ENDBRANCH   1  14
BRANCH   1  20
ATOM     20  C   UNL     1       1.144   2.031  -0.173  0.00  0.00    +0.069 C 
BRANCH  20  21
ATOM     21  C   UNL     1       2.090   1.450   0.846  0.00  0.00    +0.018 A 
ATOM     22  C   UNL     1       2.177   1.840   2.128  0.00  0.00    +0.031 A 
ATOM     23  C   UNL     1       3.212   1.017   2.757  0.00  0.00    -0.000 A 
ATOM     24  C   UNL     1       3.747   0.947   4.044  0.00  0.00    +0.010 A 
ATOM     25  C   UNL     1       4.738   0.047   4.319  0.00  0.00    +0.001 A 
ATOM     26  C   UNL     1       5.216  -0.800   3.329  0.00  0.00    +0.002 A 
ATOM     27  C   UNL     1       4.703  -0.748   2.051  0.00  0.00    +0.026 A 
ATOM     28  C   UNL     1       3.694   0.161   1.749  0.00  0.00    +0.047 A 
ATOM     29  N   UNL     1       2.991   0.450   0.601  0.00  0.00    -0.358 N 
ATOM     30  H   UNL     1       3.116   0.010  -0.255  0.00  0.00    +0.166 HD
ENDBRANCH  20  21
ENDBRANCH   1  20
TORSDOF 4
