REMARK  Name = ZINC66562168
REMARK  6 active torsions:
REMARK  status: ('A' for Active; 'I' for Inactive)
REMARK    1  A    between atoms: C_1  and  C_2
REMARK    2  A    between atoms: N_5  and  C_9
REMARK    3  A    between atoms: N_12  and  C_15
REMARK    4  A    between atoms: C_15  and  C_17
REMARK    5  A    between atoms: C_15  and  C_18
REMARK    6  A    between atoms: N_20  and  C_21
REMARK                            x       y       z     vdW  Elec       q    Type
REMARK                         _______ _______ _______ _____ _____    ______ ____
ROOT
ATOM      1  C   UNL     1       1.771  -4.740  -6.041  0.00  0.00    +0.016 C 
ATOM      2  C   UNL     1       1.344  -6.037  -5.350  0.00  0.00    -0.004 C 
ENDROOT
BRANCH   1   6
ATOM      3  C   UNL     1       2.957  -1.519  -3.516  0.00  0.00    +0.053 C 
ATOM      4  C   UNL     1       2.086  -1.233  -4.743  0.00  0.00    +0.000 C 
ATOM      5  C   UNL     1       2.196  -2.402  -5.723  0.00  0.00    -0.076 C 
ATOM      6  N   UNL     1       1.737  -3.636  -5.073  0.00  0.00    +0.387 N 
ATOM      7  C   UNL     1       2.611  -3.955  -3.938  0.00  0.00    -0.076 C 
ATOM      8  C   UNL     1       2.518  -2.845  -2.889  0.00  0.00    +0.000 C 
ATOM      9  H   UNL     1       0.792  -3.509  -4.743  0.00  0.00    -0.081 HD
BRANCH   3  13
ATOM     10  C   UNL     1       3.474   3.295  -2.632  0.00  0.00    +0.039 C 
ATOM     11  C   UNL     1       2.972   1.961  -2.075  0.00  0.00    +0.129 C 
ATOM     12  C   UNL     1       3.211   0.855  -3.106  0.00  0.00    +0.116 C 
ATOM     13  N   UNL     1       2.797  -0.436  -2.537  0.00  0.00    -0.295 NA
ATOM     14  C   UNL     1       3.545  -0.725  -1.304  0.00  0.00    +0.113 C 
ATOM     15  C   UNL     1       3.303   0.397  -0.292  0.00  0.00    +0.175 C 
ATOM     16  O   UNL     1       3.681   1.648  -0.874  0.00  0.00    -0.374 OA
ENDBRANCH   3  13
ENDBRANCH   1   6
BRANCH   1  17
ATOM     17  C   UNL     1       0.826  -4.441  -7.176  0.00  0.00    +0.200 C 
ATOM     18  O   UNL     1      -0.138  -3.728  -6.992  0.00  0.00    -0.278 OA
ATOM     19  N   UNL     1       1.051  -4.967  -8.397  0.00  0.00    -0.311 N 
ATOM     20  H   UNL     1       1.822  -5.537  -8.544  0.00  0.00    +0.149 HD
BRANCH  19  21
ATOM     21  C   UNL     1       0.133  -4.677  -9.501  0.00  0.00    +0.035 C 
ATOM     22  C   UNL     1      -1.270  -5.170  -9.139  0.00  0.00    +0.029 C 
ATOM     23  C   UNL     1      -2.230  -4.867 -10.292  0.00  0.00    -0.008 C 
ATOM     24  C   UNL     1      -1.748  -5.580 -11.557  0.00  0.00    +0.007 C 
ATOM     25  C   UNL     1      -0.346  -5.087 -11.918  0.00  0.00    -0.008 C 
ATOM     26  C   UNL     1       0.614  -5.390 -10.765  0.00  0.00    +0.029 C 
ATOM     27  C   UNL     1      -0.384  -3.578 -12.167  0.00  0.00    +0.007 C 
ATOM     28  C   UNL     1      -0.865  -2.865 -10.902  0.00  0.00    -0.008 C 
ATOM     29  C   UNL     1      -2.268  -3.357 -10.541  0.00  0.00    +0.007 C 
ATOM     30  C   UNL     1       0.095  -3.168  -9.749  0.00  0.00    +0.029 C 
ENDBRANCH  19  21
ENDBRANCH   1  17
TORSDOF 4
