REMARK  Name = ZINC26460491
REMARK  15 active torsions:
REMARK  status: ('A' for Active; 'I' for Inactive)
REMARK    1  A    between atoms: C_1  and  C_2
REMARK    2  A    between atoms: C_2  and  C_3
REMARK    3  A    between atoms: C_6  and  C_34
REMARK    4  A    between atoms: C_7  and  S_9
REMARK    5  A    between atoms: S_9  and  N_12
REMARK    6  A    between atoms: N_12  and  C_13
REMARK    7  A    between atoms: C_13  and  C_14
REMARK    8  A    between atoms: C_14  and  N_15
REMARK    9  A    between atoms: N_18  and  S_21
REMARK   10  A    between atoms: S_21  and  C_24
REMARK   11  A    between atoms: C_26  and  C_32
REMARK   12  A    between atoms: C_29  and  C_30
REMARK   13  A    between atoms: C_30  and  C_31
REMARK   14  A    between atoms: C_32  and  C_33
REMARK   15  A    between atoms: C_34  and  C_35
REMARK                            x       y       z     vdW  Elec       q    Type
REMARK                         _______ _______ _______ _____ _____    ______ ____
ROOT
ATOM      1  N   UNL     1      -2.001   0.555   9.247  0.00  0.00    +0.382 N 
ATOM      2  C   UNL     1      -0.862   1.410   8.887  0.00  0.00    -0.061 C 
ATOM      3  C   UNL     1      -0.704   2.514   9.937  0.00  0.00    +0.091 C 
ATOM      4  N   UNL     1      -0.617   1.888  11.265  0.00  0.00    -0.180 NA
ATOM      5  C   UNL     1      -1.651   0.913  11.644  0.00  0.00    +0.091 C 
ATOM      6  C   UNL     1      -1.771  -0.129  10.527  0.00  0.00    -0.061 C 
ATOM      7  H   UNL     1      -2.881   1.204   9.368  0.00  0.00    -0.082 HD
ENDROOT
BRANCH   4   8
ATOM      8  S   UNL     1       0.614   2.269  12.305  0.00  0.00    +0.061 S 
ATOM      9  O   UNL     1       0.977   3.615  12.029  0.00  0.00    -0.153 OA
ATOM     10  O   UNL     1       0.202   1.841  13.596  0.00  0.00    -0.153 OA
BRANCH   8  11
ATOM     11  C   UNL     1       1.998   1.273  11.862  0.00  0.00    +0.109 A 
ATOM     12  C   UNL     1       1.829   0.189  11.021  0.00  0.00    +0.032 A 
ATOM     13  C   UNL     1       2.915  -0.590  10.670  0.00  0.00    -0.046 A 
ATOM     14  C   UNL     1       4.170  -0.290  11.168  0.00  0.00    +0.004 A 
ATOM     15  C   UNL     1       4.339   0.791  12.012  0.00  0.00    +0.006 A 
ATOM     16  C   UNL     1       3.253   1.572  12.360  0.00  0.00    -0.021 A 
BRANCH  16  17
ATOM     17  C   UNL     1       3.436   2.751  13.281  0.00  0.00    +0.034 C 
ATOM     18  C   UNL     1       3.136   2.325  14.720  0.00  0.00    +0.009 C 
ENDBRANCH  16  17
BRANCH  13  19
ATOM     19  C   UNL     1       2.732  -1.769   9.750  0.00  0.00    +0.032 C 
ATOM     20  C   UNL     1       2.421  -3.018  10.577  0.00  0.00    +0.009 C 
ENDBRANCH  13  19
ENDBRANCH   8  11
ENDBRANCH   4   8
BRANCH   1  21
ATOM     21  C   UNL     1      -2.292  -0.411   8.179  0.00  0.00    -0.062 C 
BRANCH  21  22
ATOM     22  C   UNL     1      -2.729   0.339   6.919  0.00  0.00    +0.087 C 
BRANCH  22  23
ATOM     23  N   UNL     1      -3.139  -0.626   5.895  0.00  0.00    -0.192 NA
ATOM     24  H   UNL     1      -2.726  -1.645   5.903  0.00  0.00    +0.148 HD
BRANCH  23  25
ATOM     25  S   UNL     1      -4.022  -0.120   4.588  0.00  0.00    +0.059 S 
ATOM     26  O   UNL     1      -5.114   0.631   5.102  0.00  0.00    -0.153 OA
ATOM     27  O   UNL     1      -4.205  -1.258   3.757  0.00  0.00    -0.153 OA
BRANCH  25  32
ATOM     28  C   UNL     1      -2.611   3.215   2.849  0.00  0.00    -0.046 A 
ATOM     29  C   UNL     1      -1.440   2.776   2.259  0.00  0.00    +0.004 A 
ATOM     30  C   UNL     1      -1.053   1.456   2.388  0.00  0.00    +0.006 A 
ATOM     31  C   UNL     1      -1.843   0.571   3.098  0.00  0.00    -0.021 A 
ATOM     32  C   UNL     1      -3.016   1.008   3.683  0.00  0.00    +0.109 A 
ATOM     33  C   UNL     1      -3.400   2.330   3.558  0.00  0.00    +0.032 A 
BRANCH  28  35
ATOM     34  C   UNL     1      -2.449   5.467   3.872  0.00  0.00    +0.009 C 
ATOM     35  C   UNL     1      -3.029   4.656   2.712  0.00  0.00    +0.032 C 
ENDBRANCH  28  35
BRANCH  31  36
ATOM     36  C   UNL     1      -1.423  -0.871   3.235  0.00  0.00    +0.034 C 
ATOM     37  C   UNL     1      -1.999  -1.682   2.072  0.00  0.00    +0.009 C 
ENDBRANCH  31  36
ENDBRANCH  25  32
ENDBRANCH  23  25
ENDBRANCH  22  23
ENDBRANCH  21  22
ENDBRANCH   1  21
TORSDOF 11
