REMARK  Name = ZINC64774009
REMARK  7 active torsions:
REMARK  status: ('A' for Active; 'I' for Inactive)
REMARK    1  A    between atoms: C_3  and  C_8
REMARK    2  A    between atoms: C_8  and  S_9
REMARK    3  A    between atoms: S_9  and  C_10
REMARK    4  A    between atoms: C_16  and  C_24
REMARK    5  A    between atoms: C_27  and  O_30
REMARK    6  A    between atoms: O_30  and  C_31
REMARK    7  A    between atoms: C_31  and  C_32
REMARK                            x       y       z     vdW  Elec       q    Type
REMARK                         _______ _______ _______ _____ _____    ______ ____
ROOT
ATOM      1  C   UNL     1       5.996   3.536   2.725  0.00  0.00    +0.182 C 
ATOM      2  N   UNL     1       5.988   3.770   1.424  0.00  0.00    -0.154 NA
ATOM      3  C   UNL     1       6.963   4.455   0.821  0.00  0.00    +0.249 C 
ATOM      4  O   UNL     1       6.960   4.643  -0.381  0.00  0.00    -0.273 OA
ATOM      5  C   UNL     1       8.071   4.985   1.706  0.00  0.00    +0.148 C 
ATOM      6  C   UNL     1       9.406   4.475   1.161  0.00  0.00    +0.047 C 
ATOM      7  C   UNL     1      10.541   5.143   1.942  0.00  0.00    +0.105 C 
ATOM      8  C   UNL     1      10.306   5.045   3.422  0.00  0.00    +0.219 C 
ATOM      9  O   UNL     1      11.247   5.202   4.169  0.00  0.00    -0.275 OA
ATOM     10  N   UNL     1       9.099   4.790   3.954  0.00  0.00    -0.273 N 
ATOM     11  C   UNL     1       8.017   4.558   3.162  0.00  0.00    +0.117 C 
ATOM     12  N   UNL     1       6.975   3.889   3.566  0.00  0.00    -0.212 NA
ATOM     13  H   UNL     1       8.992   4.783   4.918  0.00  0.00    +0.156 HD
ENDROOT
BRANCH   6  14
ATOM     14  C   UNL     1       9.483   2.980   1.329  0.00  0.00    -0.042 A 
ATOM     15  C   UNL     1       9.311   2.152   0.235  0.00  0.00    +0.007 A 
ATOM     16  C   UNL     1       9.381   0.781   0.386  0.00  0.00    +0.046 A 
ATOM     17  C   UNL     1       9.624   0.234   1.638  0.00  0.00    +0.121 A 
ATOM     18  C   UNL     1       9.797   1.067   2.734  0.00  0.00    +0.046 A 
ATOM     19  C   UNL     1       9.732   2.437   2.576  0.00  0.00    +0.007 A 
BRANCH  17  20
ATOM     20  O   UNL     1       9.693  -1.115   1.790  0.00  0.00    -0.483 OA
BRANCH  20  21
ATOM     21  C   UNL     1       9.947  -1.607   3.107  0.00  0.00    +0.324 C 
BRANCH  21  22
ATOM     22  C   UNL     1       9.988  -3.113   3.081  0.00  0.00    +0.248 C 
ATOM     23  O   UNL     1       9.817  -3.707   2.037  0.00  0.00    -0.272 OA
ATOM     24  N   UNL     1      10.215  -3.801   4.218  0.00  0.00    -0.327 N 
ATOM     25  H   UNL     1      10.352  -3.326   5.052  0.00  0.00    +0.145 HD
ATOM     26  H   UNL     1      10.241  -4.770   4.201  0.00  0.00    +0.145 HD
ENDBRANCH  21  22
ENDBRANCH  20  21
ENDBRANCH  17  20
ENDBRANCH   6  14
BRANCH   1  27
ATOM     27  S   UNL     1       4.604   2.699   3.407  0.00  0.00    -0.084 S 
BRANCH  27  28
ATOM     28  C   UNL     1       3.527   2.401   1.977  0.00  0.00    +0.112 C 
BRANCH  28  31
ATOM     29  C   UNL     1       0.028   1.743   3.234  0.00  0.00    +0.002 A 
ATOM     30  C   UNL     1       1.171   2.402   2.821  0.00  0.00    +0.004 A 
ATOM     31  C   UNL     1       2.282   1.681   2.427  0.00  0.00    -0.036 A 
ATOM     32  C   UNL     1       2.251   0.299   2.445  0.00  0.00    +0.024 A 
ATOM     33  C   UNL     1       1.108  -0.362   2.858  0.00  0.00    +0.041 A 
ATOM     34  C   UNL     1      -0.004   0.361   3.252  0.00  0.00    +0.020 A 
ATOM     35 CL   UNL     1       1.069  -2.097   2.880  0.00  0.00    -0.084 Cl
ENDBRANCH  28  31
ENDBRANCH  27  28
ENDBRANCH   1  27
TORSDOF 7
