REMARK  Name = ZINC38548177
REMARK  9 active torsions:
REMARK  status: ('A' for Active; 'I' for Inactive)
REMARK    1  A    between atoms: C_1  and  C_2
REMARK    2  A    between atoms: C_4  and  C_31
REMARK    3  A    between atoms: N_8  and  C_9
REMARK    4  A    between atoms: C_9  and  C_11
REMARK    5  A    between atoms: C_9  and  C_16
REMARK    6  A    between atoms: C_17  and  C_30
REMARK    7  A    between atoms: C_18  and  C_29
REMARK    8  A    between atoms: C_20  and  N_21
REMARK    9  A    between atoms: C_22  and  C_24
REMARK                            x       y       z     vdW  Elec       q    Type
REMARK                         _______ _______ _______ _____ _____    ______ ____
ROOT
ATOM      1  C   UNL     1       0.015  -1.937   3.576  0.00  0.00    +0.137 C 
ENDROOT
BRANCH   1   9
ATOM      2  C   UNL     1       0.746   1.171  -0.234  0.00  0.00    +0.066 C 
ATOM      3  C   UNL     1       0.620  -0.327  -0.131  0.00  0.00    +0.044 A 
ATOM      4  C   UNL     1       0.708  -1.119  -1.265  0.00  0.00    +0.046 A 
ATOM      5  C   UNL     1       0.587  -2.493  -1.126  0.00  0.00    +0.044 A 
ATOM      6  N   UNL     1       0.392  -3.004   0.078  0.00  0.00    -0.220 NA
ATOM      7  C   UNL     1       0.312  -2.220   1.142  0.00  0.00    +0.216 A 
ATOM      8  N   UNL     1       0.429  -0.903   1.044  0.00  0.00    -0.220 NA
ATOM      9  N   UNL     1       0.106  -2.789   2.387  0.00  0.00    -0.303 N 
ATOM     10  C   UNL     1       0.676  -3.392  -2.332  0.00  0.00    +0.066 C 
ATOM     11  H   UNL     1       0.023  -3.751   2.473  0.00  0.00    +0.150 HD
ENDBRANCH   1   9
BRANCH   1  12
ATOM     12  C   UNL     1      -0.658  -2.698   4.689  0.00  0.00    +0.009 A 
ATOM     13  C   UNL     1      -1.662  -2.111   5.436  0.00  0.00    -0.033 A 
ATOM     14  C   UNL     1      -2.247  -2.823   6.429  0.00  0.00    -0.008 A 
ATOM     15  S   UNL     1      -1.377  -4.379   6.334  0.00  0.00    -0.078 S 
ATOM     16  C   UNL     1      -0.293  -3.980   4.973  0.00  0.00    +0.078 A 
ATOM     17  C   UNL     1      -3.349  -2.409   7.370  0.00  0.00    +0.052 C 
ATOM     18  C   UNL     1      -2.100  -0.697   5.150  0.00  0.00    +0.045 C 
BRANCH  16  19
ATOM     19  N   UNL     1       0.678  -4.774   4.360  0.00  0.00    -0.273 N 
ATOM     20  C   UNL     1       0.947  -6.003   4.844  0.00  0.00    +0.284 C 
ATOM     21  O   UNL     1       0.344  -6.420   5.815  0.00  0.00    -0.266 OA
ATOM     22  H   UNL     1       1.159  -4.441   3.586  0.00  0.00    +0.156 HD
BRANCH  20  23
ATOM     23  C   UNL     1       1.967  -6.837   4.200  0.00  0.00    +0.189 A 
ATOM     24  C   UNL     1       2.333  -8.096   4.583  0.00  0.00    +0.054 A 
ATOM     25  C   UNL     1       3.335  -8.513   3.693  0.00  0.00    +0.042 A 
ATOM     26  C   UNL     1       3.534  -7.504   2.817  0.00  0.00    +0.196 A 
ATOM     27  O   UNL     1       2.705  -6.497   3.123  0.00  0.00    -0.458 OA
ENDBRANCH  20  23
ENDBRANCH  16  19
ENDBRANCH   1  12
BRANCH   1  28
ATOM     28  C   UNL     1       1.400  -1.532   4.011  0.00  0.00    -0.016 A 
ATOM     29  C   UNL     1       1.618  -0.302   4.603  0.00  0.00    +0.013 A 
ATOM     30  C   UNL     1       2.876   0.031   4.982  0.00  0.00    +0.045 A 
ATOM     31  S   UNL     1       3.803  -1.418   4.502  0.00  0.00    -0.105 S 
ATOM     32  C   UNL     1       2.450  -2.372   3.833  0.00  0.00    +0.051 A 
ENDBRANCH   1  28
TORSDOF 5
