REMARK  Name = ZINC12871869
REMARK  7 active torsions:
REMARK  status: ('A' for Active; 'I' for Inactive)
REMARK    1  A    between atoms: C_5  and  C_7
REMARK    2  A    between atoms: C_7  and  N_8
REMARK    3  A    between atoms: N_8  and  C_9
REMARK    4  A    between atoms: C_9  and  C_11
REMARK    5  A    between atoms: C_9  and  C_17
REMARK    6  A    between atoms: N_19  and  C_20
REMARK    7  A    between atoms: C_25  and  C_27
REMARK                            x       y       z     vdW  Elec       q    Type
REMARK                         _______ _______ _______ _____ _____    ______ ____
ROOT
ATOM      1  N   UNL     1       1.541  -2.659   1.351  0.00  0.00    -0.275 N 
ATOM      2  C   UNL     1       2.827  -2.711   1.753  0.00  0.00    +0.268 C 
ATOM      3  O   UNL     1       3.721  -2.494   0.958  0.00  0.00    -0.268 OA
ENDROOT
BRANCH   2   4
ATOM      4  C   UNL     1       3.149  -3.030   3.156  0.00  0.00    +0.156 A 
ATOM      5  C   UNL     1       4.437  -2.991   3.659  0.00  0.00    +0.101 A 
ATOM      6  S   UNL     1       4.198  -3.435   5.261  0.00  0.00    +0.029 S 
ATOM      7  N   UNL     1       2.594  -3.642   5.250  0.00  0.00    -0.110 NA
ATOM      8  N   UNL     1       2.227  -3.375   4.046  0.00  0.00    -0.136 NA
ENDBRANCH   2   4
BRANCH   1   9
ATOM      9  C   UNL     1       1.217  -2.238  -0.014  0.00  0.00    +0.147 C 
BRANCH   9  14
ATOM     10  C   UNL     1      -0.585   1.080  -0.059  0.00  0.00    +0.000 A 
ATOM     11  C   UNL     1       0.473   1.970  -0.067  0.00  0.00    +0.003 A 
ATOM     12  C   UNL     1       1.773   1.500  -0.058  0.00  0.00    +0.038 A 
ATOM     13  C   UNL     1       2.015   0.136  -0.041  0.00  0.00    +0.128 A 
ATOM     14  C   UNL     1       0.955  -0.754  -0.032  0.00  0.00    +0.005 A 
ATOM     15  C   UNL     1      -0.344  -0.281  -0.041  0.00  0.00    +0.008 A 
ATOM     16  F   UNL     1       3.285  -0.325  -0.032  0.00  0.00    -0.205 F 
ENDBRANCH   9  14
ENDBRANCH   1   9
BRANCH   1  17
ATOM     17  C   UNL     1       0.469  -3.025   2.280  0.00  0.00    +0.211 C 
BRANCH  17  18
ATOM     18  C   UNL     1       0.426  -2.033   3.413  0.00  0.00    +0.071 A 
ATOM     19  C   UNL     1      -0.735  -1.889   4.151  0.00  0.00    +0.026 A 
ATOM     20  C   UNL     1      -0.764  -0.974   5.192  0.00  0.00    +0.003 A 
ATOM     21  C   UNL     1       0.381  -0.235   5.453  0.00  0.00    +0.020 A 
ATOM     22  C   UNL     1       1.504  -0.434   4.673  0.00  0.00    +0.111 A 
ATOM     23  N   UNL     1       1.497  -1.318   3.694  0.00  0.00    -0.258 NA
ENDBRANCH  17  18
BRANCH  17  24
ATOM     24  C   UNL     1       0.728  -4.405   2.828  0.00  0.00    +0.240 C 
ATOM     25  O   UNL     1       1.712  -5.021   2.478  0.00  0.00    -0.273 OA
ATOM     26  N   UNL     1      -0.133  -4.953   3.708  0.00  0.00    -0.311 N 
ATOM     27  H   UNL     1      -0.920  -4.460   3.988  0.00  0.00    +0.149 HD
BRANCH  26  28
ATOM     28  C   UNL     1       0.119  -6.294   4.242  0.00  0.00    +0.073 C 
ATOM     29  C   UNL     1      -0.496  -7.358   3.309  0.00  0.00    +0.022 C 
ATOM     30  C   UNL     1      -1.030  -8.446   4.273  0.00  0.00    +0.002 C 
ATOM     31  C   UNL     1      -1.580  -7.612   5.457  0.00  0.00    +0.002 C 
ATOM     32  C   UNL     1      -0.571  -6.456   5.608  0.00  0.00    +0.022 C 
ENDBRANCH  26  28
ENDBRANCH  17  24
ENDBRANCH   1  17
TORSDOF 7
