REMARK  Name = ZINC22748727
REMARK  6 active torsions:
REMARK  status: ('A' for Active; 'I' for Inactive)
REMARK    1  A    between atoms: C_1  and  O_2
REMARK    2  A    between atoms: O_2  and  C_3
REMARK    3  A    between atoms: C_6  and  C_11
REMARK    4  A    between atoms: C_8  and  O_9
REMARK    5  A    between atoms: O_9  and  C_10
REMARK    6  A    between atoms: C_16  and  C_28
REMARK                            x       y       z     vdW  Elec       q    Type
REMARK                         _______ _______ _______ _____ _____    ______ ____
ROOT
ATOM      1  C   UNL     1       4.170   1.984  -0.427  0.00  0.00    +0.032 C 
ATOM      2  C   UNL     1       3.218   3.129  -0.775  0.00  0.00    +0.060 C 
ATOM      3  C   UNL     1       1.797   2.616  -0.808  0.00  0.00    +0.020 C 
ATOM      4  C   UNL     1       1.407   1.606  -0.003  0.00  0.00    +0.039 C 
ATOM      5  C   UNL     1      -0.013   1.086   0.008  0.00  0.00    +0.158 C 
ATOM      6  N   UNL     1      -0.735   1.566  -1.167  0.00  0.00    -0.301 N 
ATOM      7  C   UNL     1      -1.922   1.151  -1.697  0.00  0.00    +0.069 A 
ATOM      8  C   UNL     1      -2.825   0.160  -1.332  0.00  0.00    +0.028 A 
ATOM      9  C   UNL     1      -3.955   0.013  -2.120  0.00  0.00    +0.002 A 
ATOM     10  C   UNL     1      -4.186   0.813  -3.226  0.00  0.00    +0.002 A 
ATOM     11  C   UNL     1      -3.304   1.806  -3.611  0.00  0.00    +0.028 A 
ATOM     12  C   UNL     1      -2.155   1.972  -2.830  0.00  0.00    +0.066 A 
ATOM     13  N   UNL     1      -1.115   2.824  -2.929  0.00  0.00    -0.327 N 
ATOM     14  C   UNL     1      -0.272   2.592  -1.960  0.00  0.00    +0.179 A 
ATOM     15  N   UNL     1       0.929   3.223  -1.684  0.00  0.00    -0.290 N 
ATOM     16  C   UNL     1       2.320   0.987   0.871  0.00  0.00    +0.164 C 
ATOM     17  O   UNL     1       1.935   0.087   1.592  0.00  0.00    -0.292 OA
ATOM     18  C   UNL     1       3.760   1.413   0.934  0.00  0.00    +0.088 C 
ATOM     19  H   UNL     1       1.197   4.184  -2.146  0.00  0.00    +0.155 HD
ATOM     20  H   UNL     1      -1.085   3.563  -3.743  0.00  0.00    +0.169 HD
ENDROOT
BRANCH   5  21
ATOM     21  C   UNL     1      -0.712   1.569   1.252  0.00  0.00    +0.005 A 
ATOM     22  C   UNL     1      -0.923   2.847   1.605  0.00  0.00    +0.089 A 
ATOM     23  N   UNL     1      -1.590   2.898   2.799  0.00  0.00    -0.360 N 
ATOM     24  H   UNL     1      -1.848   3.870   3.243  0.00  0.00    +0.165 HD
ATOM     25  C   UNL     1      -1.831   1.621   3.255  0.00  0.00    +0.047 A 
ATOM     26  C   UNL     1      -1.297   0.733   2.304  0.00  0.00    +0.005 A 
ATOM     27  C   UNL     1      -1.389  -0.645   2.508  0.00  0.00    +0.010 A 
ATOM     28  C   UNL     1      -2.010  -1.124   3.627  0.00  0.00    +0.001 A 
ATOM     29  C   UNL     1      -2.544  -0.252   4.566  0.00  0.00    +0.002 A 
ATOM     30  C   UNL     1      -2.458   1.111   4.387  0.00  0.00    +0.026 A 
ENDBRANCH   5  21
BRANCH   1  34
ATOM     31  C   UNL     1       8.179   3.458  -0.220  0.00  0.00    +0.161 A 
ATOM     32  C   UNL     1       7.205   3.971   0.621  0.00  0.00    +0.049 A 
ATOM     33  C   UNL     1       5.910   3.492   0.552  0.00  0.00    +0.008 A 
ATOM     34  C   UNL     1       5.583   2.502  -0.356  0.00  0.00    -0.040 A 
ATOM     35  C   UNL     1       6.552   1.982  -1.195  0.00  0.00    +0.053 A 
ATOM     36  C   UNL     1       7.851   2.461  -1.134  0.00  0.00    +0.162 A 
BRANCH  31  38
ATOM     37  C   UNL     1       9.718   4.951   0.809  0.00  0.00    +0.277 C 
ATOM     38  O   UNL     1       9.454   3.928  -0.153  0.00  0.00    -0.491 OA
ENDBRANCH  31  38
BRANCH  36  39
ATOM     39  O   UNL     1       8.803   1.955  -1.962  0.00  0.00    -0.491 OA
ATOM     40  C   UNL     1       8.394   0.934  -2.874  0.00  0.00    +0.277 C 
ENDBRANCH  36  39
ENDBRANCH   1  34
TORSDOF 4
