REMARK  Name = ZINC39970420
REMARK  6 active torsions:
REMARK  status: ('A' for Active; 'I' for Inactive)
REMARK    1  A    between atoms: C_1  and  C_2
REMARK    2  A    between atoms: C_2  and  C_4
REMARK    3  A    between atoms: C_2  and  N_10
REMARK    4  A    between atoms: N_10  and  C_11
REMARK    5  A    between atoms: C_11  and  N_13
REMARK    6  A    between atoms: N_13  and  C_14
REMARK                            x       y       z     vdW  Elec       q    Type
REMARK                         _______ _______ _______ _____ _____    ______ ____
ROOT
ATOM      1  C   UNL     1      -2.216  -0.312   1.151  0.00  0.00    +0.135 C 
ATOM      2  S   UNL     1      -1.721   0.522   2.562  0.00  0.00    -0.019 S 
ENDROOT
BRANCH   1   3
ATOM      3  N   UNL     1      -1.529  -0.159   0.002  0.00  0.00    -0.319 N 
ATOM      4  H   UNL     1      -1.810  -0.632  -0.797  0.00  0.00    +0.148 HD
BRANCH   3   6
ATOM      5  C   UNL     1      -0.812   2.160  -0.291  0.00  0.00    +0.033 C 
ATOM      6  C   UNL     1      -0.359   0.721  -0.040  0.00  0.00    +0.106 C 
BRANCH   6   7
ATOM      7  C   UNL     1       0.559   0.282  -1.152  0.00  0.00    +0.011 A 
ATOM      8  C   UNL     1       1.913   0.216  -1.164  0.00  0.00    +0.014 A 
ATOM      9  C   UNL     1       2.553  -0.222  -2.309  0.00  0.00    +0.028 A 
ATOM     10  C   UNL     1       1.806  -0.571  -3.386  0.00  0.00    +0.078 A 
ATOM     11  S   UNL     1       0.146  -0.291  -2.791  0.00  0.00    -0.080 S 
ATOM     12 CL   UNL     1       2.328  -1.148  -4.938  0.00  0.00    -0.076 Cl
ENDBRANCH   6   7
ENDBRANCH   3   6
ENDBRANCH   1   3
BRANCH   1  13
ATOM     13  N   UNL     1      -3.293  -1.122   1.190  0.00  0.00    -0.296 N 
ATOM     14  H   UNL     1      -3.621  -1.532   0.375  0.00  0.00    +0.154 HD
BRANCH  13  15
ATOM     15  C   UNL     1      -3.938  -1.371   2.408  0.00  0.00    +0.051 A 
ATOM     16  C   UNL     1      -3.193  -1.647   3.546  0.00  0.00    +0.026 A 
ATOM     17  C   UNL     1      -3.832  -1.892   4.746  0.00  0.00    +0.022 A 
ATOM     18  C   UNL     1      -5.213  -1.861   4.815  0.00  0.00    +0.042 A 
ATOM     19  C   UNL     1      -5.960  -1.586   3.683  0.00  0.00    +0.041 A 
ATOM     20  C   UNL     1      -5.325  -1.335   2.480  0.00  0.00    +0.063 A 
ATOM     21 CL   UNL     1      -6.261  -0.984   1.061  0.00  0.00    -0.082 Cl
ATOM     22 CL   UNL     1      -6.013  -2.170   6.325  0.00  0.00    -0.083 Cl
ENDBRANCH  13  15
ENDBRANCH   1  13
TORSDOF 5
