REMARK  Name = ZINC20920304
REMARK  13 active torsions:
REMARK  status: ('A' for Active; 'I' for Inactive)
REMARK    1  A    between atoms: C_1  and  C_2
REMARK    2  A    between atoms: C_2  and  C_3
REMARK    3  A    between atoms: C_3  and  C_4
REMARK    4  A    between atoms: C_4  and  N_5
REMARK    5  A    between atoms: N_5  and  C_6
REMARK    6  A    between atoms: N_5  and  C_8
REMARK    7  A    between atoms: C_6  and  C_7
REMARK    8  A    between atoms: C_8  and  C_9
REMARK    9  A    between atoms: C_9  and  N_10
REMARK   10  A    between atoms: C_16  and  C_32
REMARK   11  A    between atoms: C_19  and  C_20
REMARK   12  A    between atoms: C_19  and  C_21
REMARK   13  A    between atoms: N_23  and  C_24
REMARK                            x       y       z     vdW  Elec       q    Type
REMARK                         _______ _______ _______ _____ _____    ______ ____
ROOT
ATOM      1  N   UNL     1       5.080  -2.989   2.671  0.00  0.00    -0.282 N 
ATOM      2  C   UNL     1       4.335  -2.570   3.721  0.00  0.00    +0.264 C 
ATOM      3  O   UNL     1       4.718  -1.687   4.467  0.00  0.00    -0.268 OA
ATOM      4  C   UNL     1       3.043  -3.236   3.913  0.00  0.00    +0.105 A 
ATOM      5  C   UNL     1       1.999  -2.941   4.745  0.00  0.00    +0.033 A 
ATOM      6  C   UNL     1       1.008  -3.900   4.525  0.00  0.00    +0.032 A 
ATOM      7  C   UNL     1       1.476  -4.778   3.559  0.00  0.00    +0.085 A 
ATOM      8  N   UNL     1       2.721  -4.383   3.196  0.00  0.00    -0.331 N 
ATOM      9  C   UNL     1       3.658  -4.981   2.240  0.00  0.00    +0.157 C 
ATOM     10  C   UNL     1       4.540  -3.881   1.650  0.00  0.00    +0.128 C 
ATOM     11  C   UNL     1       5.702  -4.531   0.897  0.00  0.00    +0.043 C 
ENDROOT
BRANCH   7  12
ATOM     12  C   UNL     1       0.747  -5.936   3.023  0.00  0.00    +0.151 A 
ATOM     13  C   UNL     1      -0.538  -6.282   3.320  0.00  0.00    +0.051 A 
ATOM     14  C   UNL     1      -0.824  -7.446   2.584  0.00  0.00    +0.042 A 
ATOM     15  C   UNL     1       0.288  -7.758   1.888  0.00  0.00    +0.196 A 
ATOM     16  O   UNL     1       1.235  -6.845   2.155  0.00  0.00    -0.461 OA
ENDBRANCH   7  12
BRANCH  10  17
ATOM     17  C   UNL     1       3.723  -3.070   0.677  0.00  0.00    +0.238 C 
ATOM     18  O   UNL     1       3.708  -3.368  -0.498  0.00  0.00    -0.273 OA
ATOM     19  N   UNL     1       3.009  -2.014   1.114  0.00  0.00    -0.311 N 
ATOM     20  H   UNL     1       3.022  -1.743   2.180  0.00  0.00    +0.149 HD
BRANCH  19  21
ATOM     21  C   UNL     1       2.214  -1.226   0.168  0.00  0.00    +0.073 C 
ATOM     22  C   UNL     1       1.068  -0.539   0.913  0.00  0.00    +0.022 C 
ATOM     23  C   UNL     1       0.024  -0.053  -0.094  0.00  0.00    +0.002 C 
ATOM     24  C   UNL     1      -0.002   1.477  -0.105  0.00  0.00    +0.000 C 
ATOM     25  C   UNL     1       1.433   2.010  -0.108  0.00  0.00    +0.000 C 
ATOM     26  C   UNL     1       2.034   1.849  -1.506  0.00  0.00    +0.000 C 
ATOM     27  C   UNL     1       2.408   0.383  -1.734  0.00  0.00    +0.002 C 
ATOM     28  C   UNL     1       3.103  -0.166  -0.486  0.00  0.00    +0.022 C 
ENDBRANCH  19  21
ENDBRANCH  10  17
BRANCH   1  29
ATOM     29  C   UNL     1       6.467  -2.533   2.555  0.00  0.00    +0.091 C 
BRANCH  29  30
ATOM     30  C   UNL     1       6.512  -1.233   1.750  0.00  0.00    -0.060 C 
BRANCH  30  31
ATOM     31  N   UNL     1       7.884  -0.710   1.740  0.00  0.00    +0.381 N 
ATOM     32  H   UNL     1       8.296  -0.823   2.754  0.00  0.00    -0.082 HD
BRANCH  31  33
ATOM     33  C   UNL     1       7.900   0.720   1.403  0.00  0.00    -0.082 C 
ATOM     34  C   UNL     1       7.437   1.534   2.612  0.00  0.00    -0.017 C 
ENDBRANCH  31  33
BRANCH  31  35
ATOM     35  C   UNL     1       8.734  -1.478   0.820  0.00  0.00    -0.079 C 
BRANCH  35  36
ATOM     36  C   UNL     1      10.196  -1.074   1.018  0.00  0.00    -0.019 C 
BRANCH  36  38
ATOM     37  C   UNL     1      12.543  -1.469   0.257  0.00  0.00    +0.004 C 
ATOM     38  C   UNL     1      11.080  -1.873   0.059  0.00  0.00    -0.005 C 
ENDBRANCH  36  38
ENDBRANCH  35  36
ENDBRANCH  31  35
ENDBRANCH  30  31
ENDBRANCH  29  30
ENDBRANCH   1  29
TORSDOF 10
