REMARK  Name = ZINC39462288
REMARK  12 active torsions:
REMARK  status: ('A' for Active; 'I' for Inactive)
REMARK    1  A    between atoms: C_1  and  C_2
REMARK    2  A    between atoms: C_2  and  C_3
REMARK    3  A    between atoms: C_8  and  C_12
REMARK    4  A    between atoms: C_12  and  C_14
REMARK    5  A    between atoms: C_14  and  C_16
REMARK    6  A    between atoms: C_14  and  N_22
REMARK    7  A    between atoms: N_22  and  C_23
REMARK    8  A    between atoms: C_23  and  C_24
REMARK    9  A    between atoms: C_27  and  S_29
REMARK   10  A    between atoms: S_29  and  N_32
REMARK   11  A    between atoms: N_32  and  C_33
REMARK   12  A    between atoms: N_32  and  C_34
REMARK                            x       y       z     vdW  Elec       q    Type
REMARK                         _______ _______ _______ _____ _____    ______ ____
ROOT
ATOM      1  C   UNL     1      -5.758  -1.714  -4.267  0.00  0.00    +0.032 C 
ENDROOT
BRANCH   1   2
ATOM      2  C   UNL     1      -6.034  -0.303  -4.720  0.00  0.00    -0.054 A 
ATOM      3  C   UNL     1      -7.243   0.295  -4.419  0.00  0.00    +0.002 A 
ATOM      4  C   UNL     1      -7.496   1.589  -4.834  0.00  0.00    +0.000 A 
ATOM      5  C   UNL     1      -6.539   2.285  -5.550  0.00  0.00    +0.000 A 
ATOM      6  C   UNL     1      -5.330   1.687  -5.849  0.00  0.00    +0.000 A 
ATOM      7  C   UNL     1      -5.075   0.394  -5.430  0.00  0.00    +0.002 A 
ENDBRANCH   1   2
BRANCH   1   8
ATOM      8  N   UNL     1      -6.969  -2.528  -4.436  0.00  0.00    +0.391 N 
ATOM      9  H   UNL     1      -6.810  -3.450  -4.058  0.00  0.00    -0.084 HD
ATOM     10  H   UNL     1      -7.738  -2.092  -3.950  0.00  0.00    -0.084 HD
BRANCH   8  11
ATOM     11  C   UNL     1      -7.292  -2.635  -5.865  0.00  0.00    -0.038 C 
BRANCH  11  12
ATOM     12  C   UNL     1      -8.534  -3.470  -6.039  0.00  0.00    -0.025 A 
ATOM     13  C   UNL     1      -9.830  -3.075  -6.074  0.00  0.00    +0.011 A 
ATOM     14  C   UNL     1     -10.817  -4.027  -6.246  0.00  0.00    +0.036 A 
ATOM     15  C   UNL     1     -10.459  -5.328  -6.375  0.00  0.00    +0.143 A 
ATOM     16  S   UNL     1      -8.680  -5.235  -6.261  0.00  0.00    -0.075 S 
BRANCH  15  17
ATOM     17  S   UNL     1     -11.484  -6.743  -6.603  0.00  0.00    +0.067 S 
ATOM     18  O   UNL     1     -10.744  -7.861  -6.132  0.00  0.00    -0.152 OA
ATOM     19  O   UNL     1     -12.764  -6.405  -6.088  0.00  0.00    -0.152 OA
BRANCH  17  20
ATOM     20  N   UNL     1     -11.671  -6.954  -8.235  0.00  0.00    -0.182 NA
ATOM     21  C   UNL     1     -10.725  -7.789  -8.979  0.00  0.00    +0.131 C 
ATOM     22  C   UNL     1     -12.783  -6.306  -8.935  0.00  0.00    +0.131 C 
ENDBRANCH  17  20
ENDBRANCH  15  17
ENDBRANCH  11  12
ENDBRANCH   8  11
ENDBRANCH   1   8
BRANCH   1  23
ATOM     23  C   UNL     1      -5.357  -1.706  -2.814  0.00  0.00    +0.152 C 
ATOM     24  O   UNL     1      -6.142  -2.078  -1.966  0.00  0.00    -0.294 OA
BRANCH  23  30
ATOM     25  C   UNL     1      -1.412  -0.526   0.013  0.00  0.00    -0.024 A 
ATOM     26  C   UNL     1      -2.010  -0.859   1.177  0.00  0.00    +0.005 A 
ATOM     27  C   UNL     1      -3.325  -1.347   1.223  0.00  0.00    +0.001 A 
ATOM     28  C   UNL     1      -4.077  -1.516   0.112  0.00  0.00    +0.010 A 
ATOM     29  C   UNL     1      -3.548  -1.198  -1.161  0.00  0.00    +0.006 A 
ATOM     30  C   UNL     1      -4.069  -1.267  -2.441  0.00  0.00    +0.022 C 
ATOM     31  C   UNL     1      -2.969  -0.774  -3.355  0.00  0.00    +0.152 C 
ATOM     32  N   UNL     1      -1.837  -0.441  -2.485  0.00  0.00    -0.380 N 
ATOM     33  C   UNL     1      -2.162  -0.673  -1.245  0.00  0.00    +0.046 A 
ATOM     34  H   UNL     1      -0.981  -0.097  -2.785  0.00  0.00    +0.160 HD
BRANCH  25  36
ATOM     35  C   UNL     1      -0.019   1.526   0.010  0.00  0.00    +0.009 C 
ATOM     36  C   UNL     1       0.002  -0.004   0.002  0.00  0.00    +0.034 C 
ENDBRANCH  25  36
ENDBRANCH  23  30
ENDBRANCH   1  23
TORSDOF 9
