REMARK  Name = ZINC42918450
REMARK  9 active torsions:
REMARK  status: ('A' for Active; 'I' for Inactive)
REMARK    1  A    between atoms: C_1  and  C_2
REMARK    2  A    between atoms: C_5  and  O_9
REMARK    3  A    between atoms: C_6  and  C_8
REMARK    4  A    between atoms: O_9  and  C_10
REMARK    5  A    between atoms: C_10  and  C_11
REMARK    6  A    between atoms: N_13  and  C_14
REMARK    7  A    between atoms: C_16  and  N_24
REMARK    8  A    between atoms: C_19  and  O_20
REMARK    9  A    between atoms: O_20  and  C_21
REMARK                            x       y       z     vdW  Elec       q    Type
REMARK                         _______ _______ _______ _____ _____    ______ ____
ROOT
ATOM      1  C   UNL     1       0.071  -6.266  -1.108  0.00  0.00    +0.255 C 
ATOM      2  O   UNL     1       0.086  -6.737   0.010  0.00  0.00    -0.272 OA
ATOM      3  N   UNL     1       0.084  -7.081  -2.182  0.00  0.00    -0.280 N 
ATOM      4  H   UNL     1       0.006  -6.708  -3.074  0.00  0.00    +0.155 HD
ENDROOT
BRANCH   3   5
ATOM      5  C   UNL     1       0.208  -8.466  -2.009  0.00  0.00    +0.078 A 
ATOM      6  C   UNL     1      -0.369  -9.084  -0.909  0.00  0.00    +0.059 A 
ATOM      7  C   UNL     1      -0.244 -10.450  -0.741  0.00  0.00    +0.128 A 
ATOM      8  C   UNL     1       0.454 -11.204  -1.667  0.00  0.00    +0.036 A 
ATOM      9  C   UNL     1       1.032 -10.594  -2.765  0.00  0.00    +0.050 A 
ATOM     10  C   UNL     1       0.907  -9.226  -2.944  0.00  0.00    +0.148 A 
BRANCH   7  11
ATOM     11  N   UNL     1      -0.860 -11.109   0.433  0.00  0.00    +0.056 N 
ATOM     12  O   UNL     1      -1.471 -10.451   1.243  0.00  0.00    -0.126 OA
ATOM     13  O   UNL     1      -0.752 -12.304   0.581  0.00  0.00    -0.126 OA
ENDBRANCH   7  11
BRANCH  10  14
ATOM     14  O   UNL     1       1.470  -8.626  -4.027  0.00  0.00    -0.432 OA
BRANCH  14  15
ATOM     15  C   UNL     1       2.171  -9.468  -4.944  0.00  0.00    +0.541 C 
ATOM     16  F   UNL     1       3.223 -10.107  -4.279  0.00  0.00    -0.166 F 
ATOM     17  F   UNL     1       1.294 -10.428  -5.460  0.00  0.00    -0.166 F 
ENDBRANCH  14  15
ENDBRANCH  10  14
ENDBRANCH   3   5
BRANCH   1  18
ATOM     18  C   UNL     1       0.039  -4.772  -1.296  0.00  0.00    +0.324 C 
BRANCH  18  19
ATOM     19  O   UNL     1       0.031  -4.130  -0.019  0.00  0.00    -0.483 OA
BRANCH  19  24
ATOM     20  C   UNL     1      -0.091   1.500   0.015  0.00  0.00    +0.044 C 
ATOM     21  C   UNL     1      -0.058  -0.006   0.005  0.00  0.00    -0.050 A 
ATOM     22  C   UNL     1      -0.048  -0.689  -1.197  0.00  0.00    +0.007 A 
ATOM     23  C   UNL     1      -0.018  -2.070  -1.208  0.00  0.00    +0.046 A 
ATOM     24  C   UNL     1       0.002  -2.772  -0.011  0.00  0.00    +0.124 A 
ATOM     25  C   UNL     1      -0.008  -2.084   1.194  0.00  0.00    -0.009 A 
ATOM     26  C   UNL     1      -0.032  -0.703   1.199  0.00  0.00    +0.010 A 
ATOM     27  C   UNL     1       0.014  -2.844   2.495  0.00  0.00    +0.047 C 
ENDBRANCH  19  24
ENDBRANCH  18  19
ENDBRANCH   1  18
TORSDOF 7
