REMARK  Name = ZINC07684049
REMARK  10 active torsions:
REMARK  status: ('A' for Active; 'I' for Inactive)
REMARK    1  A    between atoms: C_1  and  C_2
REMARK    2  A    between atoms: C_2  and  C_4
REMARK    3  A    between atoms: C_2  and  C_27
REMARK    4  A    between atoms: C_4  and  N_5
REMARK    5  A    between atoms: C_6  and  C_8
REMARK    6  A    between atoms: N_11  and  S_14
REMARK    7  A    between atoms: S_14  and  C_17
REMARK    8  A    between atoms: C_27  and  N_60
REMARK    9  A    between atoms: C_28  and  N_60
REMARK   10  A    between atoms: C_29  and  N_60
REMARK                            x       y       z     vdW  Elec       q    Type
REMARK                         _______ _______ _______ _____ _____    ______ ____
ROOT
ATOM      1  C   UNL     1      -3.067   3.930  -4.045  0.00  0.00    +0.077 C 
ATOM      2  C   UNL     1      -2.102   5.040  -3.623  0.00  0.00    +0.030 C 
ATOM      3  C   UNL     1      -0.662   4.528  -3.732  0.00  0.00    +0.110 C 
ATOM      4  N   UNL     1      -0.539   3.291  -2.949  0.00  0.00    -0.177 NA
ATOM      5  C   UNL     1      -1.474   2.190  -3.216  0.00  0.00    +0.110 C 
ATOM      6  C   UNL     1      -2.908   2.730  -3.109  0.00  0.00    +0.030 C 
ENDROOT
BRANCH   1   8
ATOM      7  N   UNL     1      -5.509   3.631  -4.300  0.00  0.00    -0.315 N 
ATOM      8  C   UNL     1      -4.483   4.440  -3.971  0.00  0.00    +0.216 C 
ATOM      9  O   UNL     1      -4.699   5.579  -3.616  0.00  0.00    -0.276 OA
ATOM     10  H   UNL     1      -5.336   2.720  -4.584  0.00  0.00    +0.149 HD
BRANCH   7  11
ATOM     11  C   UNL     1      -6.886   4.127  -4.228  0.00  0.00    +0.105 C 
BRANCH  11  13
ATOM     12  C   UNL     1      -7.620   2.675  -6.123  0.00  0.00    +0.007 C 
ATOM     13  C   UNL     1      -7.851   3.017  -4.650  0.00  0.00    -0.014 C 
BRANCH  13  14
ATOM     14  C   UNL     1      -9.292   3.494  -4.457  0.00  0.00    -0.075 C 
BRANCH  14  17
ATOM     15  C   UNL     1     -10.777   4.488  -2.823  0.00  0.00    -0.097 C 
ATOM     16  C   UNL     1      -9.611   2.430  -2.305  0.00  0.00    -0.097 C 
ATOM     17  N   UNL     1      -9.526   3.723  -3.015  0.00  0.00    +0.376 N 
ATOM     18  H   UNL     1      -8.742   4.264  -2.632  0.00  0.00    -0.083 HD
ENDBRANCH  14  17
ENDBRANCH  13  14
ENDBRANCH  11  13
ENDBRANCH   7  11
ENDBRANCH   1   8
BRANCH   4  19
ATOM     19  S   UNL     1       0.636   3.139  -1.792  0.00  0.00    +0.061 S 
ATOM     20  O   UNL     1       0.868   1.746  -1.630  0.00  0.00    -0.153 OA
ATOM     21  O   UNL     1       1.671   4.047  -2.142  0.00  0.00    -0.153 OA
BRANCH  19  22
ATOM     22  C   UNL     1      -0.049   3.716  -0.275  0.00  0.00    +0.106 A 
ATOM     23  C   UNL     1       0.081   5.060   0.069  0.00  0.00    +0.029 A 
ATOM     24  C   UNL     1      -0.442   5.539   1.231  0.00  0.00    +0.010 A 
ATOM     25  C   UNL     1      -1.112   4.666   2.105  0.00  0.00    -0.018 A 
ATOM     26  C   UNL     1      -1.658   5.122   3.316  0.00  0.00    +0.008 A 
ATOM     27  C   UNL     1      -2.301   4.248   4.137  0.00  0.00    +0.001 A 
ATOM     28  C   UNL     1      -2.425   2.902   3.796  0.00  0.00    +0.001 A 
ATOM     29  C   UNL     1      -1.909   2.424   2.631  0.00  0.00    +0.008 A 
ATOM     30  C   UNL     1      -1.239   3.298   1.757  0.00  0.00    -0.016 A 
ATOM     31  C   UNL     1      -0.691   2.841   0.546  0.00  0.00    +0.037 A 
ENDBRANCH  19  22
ENDBRANCH   4  19
TORSDOF 7
