REMARK  Name = ZINC62243113
REMARK  6 active torsions:
REMARK  status: ('A' for Active; 'I' for Inactive)
REMARK    1  A    between atoms: C_1  and  C_2
REMARK    2  A    between atoms: C_2  and  C_3
REMARK    3  A    between atoms: C_6  and  C_9
REMARK    4  A    between atoms: C_6  and  N_13
REMARK    5  A    between atoms: N_10  and  O_11
REMARK    6  A    between atoms: C_14  and  C_16
REMARK                            x       y       z     vdW  Elec       q    Type
REMARK                         _______ _______ _______ _____ _____    ______ ____
ROOT
ATOM      1  C   UNL     1      -1.381  -0.573  -0.030  0.00  0.00    -0.011 C 
ATOM      2  C   UNL     1      -2.087  -0.154   1.261  0.00  0.00    +0.006 C 
ATOM      3  C   UNL     1      -1.341  -0.737   2.463  0.00  0.00    +0.034 C 
ATOM      4  C   UNL     1      -1.326  -2.263   2.362  0.00  0.00    +0.093 C 
ATOM      5  C   UNL     1      -0.619  -2.682   1.072  0.00  0.00    +0.034 C 
ATOM      6  C   UNL     1      -1.365  -2.099  -0.130  0.00  0.00    +0.006 C 
ENDROOT
BRANCH   4   7
ATOM      7  C   UNL     1      -0.591  -2.837   3.546  0.00  0.00    +0.155 C 
ATOM      8  N   UNL     1      -0.010  -2.050   4.390  0.00  0.00    -0.075 NA
ATOM      9  N   UNL     1      -0.538  -4.202   3.729  0.00  0.00    -0.342 N 
ATOM     10  H   UNL     1      -0.910  -4.795   3.058  0.00  0.00    +0.144 HD
ATOM     11  H   UNL     1      -0.128  -4.569   4.528  0.00  0.00    +0.144 HD
BRANCH   8  12
ATOM     12  O   UNL     1       0.680  -2.590   5.502  0.00  0.00    -0.408 OA
ATOM     13  H   UNL     1       1.082  -1.923   6.077  0.00  0.00    +0.328 HD
ENDBRANCH   8  12
ENDBRANCH   4   7
BRANCH   4  14
ATOM     14  N   UNL     1      -2.702  -2.766   2.351  0.00  0.00    -0.303 N 
ATOM     15  C   UNL     1      -3.543  -2.450   3.356  0.00  0.00    +0.219 C 
ATOM     16  O   UNL     1      -3.134  -1.834   4.318  0.00  0.00    -0.275 OA
ATOM     17  H   UNL     1      -3.007  -3.326   1.621  0.00  0.00    +0.150 HD
BRANCH  15  18
ATOM     18  C   UNL     1      -4.991  -2.861   3.284  0.00  0.00    +0.101 C 
ATOM     19  C   UNL     1      -5.723  -2.379   4.540  0.00  0.00    +0.017 C 
ATOM     20  C   UNL     1      -7.208  -2.733   4.420  0.00  0.00    +0.029 C 
ATOM     21  C   UNL     1      -7.773  -2.107   3.142  0.00  0.00    +0.160 C 
ATOM     22  O   UNL     1      -7.028  -2.573   2.015  0.00  0.00    -0.379 OA
ATOM     23  C   UNL     1      -5.641  -2.230   2.049  0.00  0.00    +0.172 C 
ENDBRANCH  15  18
ENDBRANCH   4  14
BRANCH   1  25
ATOM     24  C   UNL     1       0.041   1.482  -0.043  0.00  0.00    +0.004 C 
ATOM     25  C   UNL     1       0.056  -0.048  -0.018  0.00  0.00    -0.000 C 
ENDBRANCH   1  25
TORSDOF 5
