REMARK  Name = ZINC11428357
REMARK  6 active torsions:
REMARK  status: ('A' for Active; 'I' for Inactive)
REMARK    1  A    between atoms: C_3  and  C_6
REMARK    2  A    between atoms: C_6  and  N_7
REMARK    3  A    between atoms: C_11  and  S_12
REMARK    4  A    between atoms: S_12  and  C_13
REMARK    5  A    between atoms: C_13  and  C_14
REMARK    6  A    between atoms: N_16  and  C_17
REMARK                            x       y       z     vdW  Elec       q    Type
REMARK                         _______ _______ _______ _____ _____    ______ ____
ROOT
ATOM      1  N   UNL     1       1.487   3.756  -0.997  0.00  0.00    -0.283 N 
ATOM      2  C   UNL     1       2.581   3.687  -1.811  0.00  0.00    +0.221 A 
ATOM      3  N   UNL     1       2.259   4.210  -2.968  0.00  0.00    -0.112 NA
ATOM      4  N   UNL     1       0.926   4.637  -2.895  0.00  0.00    -0.121 NA
ATOM      5  C   UNL     1       0.477   4.354  -1.696  0.00  0.00    +0.194 A 
ATOM      6  N   UNL     1       3.817   3.151  -1.474  0.00  0.00    -0.300 N 
ATOM      7  C   UNL     1       3.727   1.680  -1.286  0.00  0.00    +0.108 C 
ATOM      8  C   UNL     1       5.195   1.211  -1.448  0.00  0.00    +0.020 C 
ATOM      9  C   UNL     1       5.730   2.132  -2.569  0.00  0.00    +0.020 C 
ATOM     10  C   UNL     1       4.800   3.359  -2.560  0.00  0.00    +0.108 C 
ENDROOT
BRANCH   1  11
ATOM     11  C   UNL     1       1.411   3.279   0.387  0.00  0.00    +0.201 C 
BRANCH  11  14
ATOM     12  C   UNL     1       1.503   6.203   2.628  0.00  0.00    +0.041 A 
ATOM     13  C   UNL     1       0.805   5.319   1.773  0.00  0.00    +0.046 A 
ATOM     14  C   UNL     1       1.701   4.420   1.328  0.00  0.00    +0.125 A 
ATOM     15  O   UNL     1       2.897   4.711   1.865  0.00  0.00    -0.466 OA
ATOM     16  C   UNL     1       2.783   5.791   2.654  0.00  0.00    +0.195 A 
ENDBRANCH  11  14
ENDBRANCH   1  11
BRANCH   5  17
ATOM     17  S   UNL     1      -1.145   4.688  -1.093  0.00  0.00    -0.077 S 
BRANCH  17  18
ATOM     18  C   UNL     1      -1.980   5.481  -2.494  0.00  0.00    +0.173 C 
BRANCH  18  19
ATOM     19  C   UNL     1      -3.396   5.823  -2.108  0.00  0.00    +0.228 C 
ATOM     20  O   UNL     1      -3.801   5.558  -0.996  0.00  0.00    -0.275 OA
ATOM     21  N   UNL     1      -4.211   6.424  -2.997  0.00  0.00    -0.284 N 
ATOM     22  H   UNL     1      -3.914   6.563  -3.910  0.00  0.00    +0.155 HD
BRANCH  21  23
ATOM     23  C   UNL     1      -5.486   6.848  -2.603  0.00  0.00    +0.053 A 
ATOM     24  C   UNL     1      -5.742   7.136  -1.269  0.00  0.00    +0.046 A 
ATOM     25  C   UNL     1      -7.000   7.559  -0.884  0.00  0.00    +0.061 A 
ATOM     26  C   UNL     1      -8.008   7.685  -1.825  0.00  0.00    +0.061 A 
ATOM     27  C   UNL     1      -7.757   7.393  -3.154  0.00  0.00    +0.043 A 
ATOM     28  C   UNL     1      -6.499   6.975  -3.545  0.00  0.00    +0.064 A 
ATOM     29 CL   UNL     1      -6.185   6.609  -5.213  0.00  0.00    -0.082 Cl
ATOM     30 CL   UNL     1      -9.589   8.209  -1.337  0.00  0.00    -0.082 Cl
ATOM     31 CL   UNL     1      -7.319   7.925   0.783  0.00  0.00    -0.082 Cl
ENDBRANCH  21  23
ENDBRANCH  18  19
ENDBRANCH  17  18
ENDBRANCH   5  17
TORSDOF 6
