REMARK  Name = ZINC00914666
REMARK  7 active torsions:
REMARK  status: ('A' for Active; 'I' for Inactive)
REMARK    1  A    between atoms: C_1  and  C_2
REMARK    2  A    between atoms: C_5  and  C_32
REMARK    3  A    between atoms: C_9  and  C_14
REMARK    4  A    between atoms: C_14  and  N_15
REMARK    5  A    between atoms: N_15  and  C_16
REMARK    6  A    between atoms: N_15  and  S_22
REMARK    7  A    between atoms: S_22  and  C_25
REMARK                            x       y       z     vdW  Elec       q    Type
REMARK                         _______ _______ _______ _____ _____    ______ ____
ROOT
ATOM      1  N   UNL     1       3.043   3.781   1.360  0.00  0.00    -0.169 NA
ENDROOT
BRANCH   1   2
ATOM      2  C   UNL     1       3.847   2.653   1.836  0.00  0.00    +0.080 C 
ATOM      3  C   UNL     1       5.147   2.577   1.032  0.00  0.00    +0.020 C 
ATOM      4  C   UNL     1       5.986   1.399   1.529  0.00  0.00    +0.002 C 
ATOM      5  C   UNL     1       5.199   0.099   1.349  0.00  0.00    +0.000 C 
ATOM      6  C   UNL     1       3.899   0.175   2.153  0.00  0.00    +0.002 C 
ATOM      7  C   UNL     1       3.059   1.354   1.656  0.00  0.00    +0.020 C 
ENDBRANCH   1   2
BRANCH   1   8
ATOM      8  S   UNL     1       2.794   5.092   2.340  0.00  0.00    +0.061 S 
ATOM      9  O   UNL     1       3.867   5.113   3.271  0.00  0.00    -0.153 OA
ATOM     10  O   UNL     1       2.506   6.190   1.485  0.00  0.00    -0.153 OA
BRANCH   8  11
ATOM     11  C   UNL     1       1.329   4.778   3.268  0.00  0.00    +0.106 A 
ATOM     12  C   UNL     1       0.101   5.178   2.775  0.00  0.00    +0.031 A 
ATOM     13  C   UNL     1      -1.050   4.928   3.499  0.00  0.00    +0.040 A 
ATOM     14  C   UNL     1      -0.970   4.286   4.723  0.00  0.00    +0.124 A 
ATOM     15  C   UNL     1       0.261   3.891   5.218  0.00  0.00    +0.040 A 
ATOM     16  C   UNL     1       1.409   4.137   4.490  0.00  0.00    +0.031 A 
ATOM     17  F   UNL     1      -2.094   4.045   5.434  0.00  0.00    -0.205 F 
ENDBRANCH   8  11
ENDBRANCH   1   8
BRANCH   1  18
ATOM     18  C   UNL     1       2.460   3.750   0.016  0.00  0.00    +0.150 C 
BRANCH  18  27
ATOM     19  C   UNL     1       5.565   0.983  -3.118  0.00  0.00    +0.044 C 
ATOM     20  C   UNL     1       5.873   2.439  -3.354  0.00  0.00    -0.041 A 
ATOM     21  C   UNL     1       6.815   2.801  -4.276  0.00  0.00    +0.004 A 
ATOM     22  C   UNL     1       7.106   4.139  -4.500  0.00  0.00    +0.005 A 
ATOM     23  C   UNL     1       6.444   5.129  -3.807  0.00  0.00    -0.026 A 
ATOM     24  C   UNL     1       5.474   4.786  -2.871  0.00  0.00    +0.052 A 
ATOM     25  C   UNL     1       5.185   3.427  -2.642  0.00  0.00    +0.002 A 
ATOM     26  C   UNL     1       4.157   3.076  -1.660  0.00  0.00    +0.020 A 
ATOM     27  C   UNL     1       3.523   4.077  -1.001  0.00  0.00    +0.033 A 
ATOM     28  C   UNL     1       3.854   5.423  -1.263  0.00  0.00    +0.254 A 
ATOM     29  O   UNL     1       3.272   6.307  -0.659  0.00  0.00    -0.268 OA
ATOM     30  N   UNL     1       4.796   5.756  -2.164  0.00  0.00    -0.322 N 
ATOM     31  H   UNL     1       4.999   6.691  -2.320  0.00  0.00    +0.169 HD
ATOM     32  C   UNL     1       6.771   6.578  -4.061  0.00  0.00    +0.046 C 
ENDBRANCH  18  27
ENDBRANCH   1  18
TORSDOF 5
