REMARK  Name = ZINC16970729
REMARK  4 active torsions:
REMARK  status: ('A' for Active; 'I' for Inactive)
REMARK    1  A    between atoms: C_7  and  C_12
REMARK    2  A    between atoms: N_13  and  N_14
REMARK    3  A    between atoms: N_14  and  C_15
REMARK    4  A    between atoms: C_15  and  N_17
REMARK                            x       y       z     vdW  Elec       q    Type
REMARK                         _______ _______ _______ _____ _____    ______ ____
ROOT
ATOM      1  C   UNL     1       0.042   1.273   0.882  0.00  0.00    +0.001 A 
ATOM      2  C   UNL     1       1.181   1.914   1.362  0.00  0.00    +0.002 A 
ATOM      3  C   UNL     1       2.325   1.219   1.618  0.00  0.00    +0.028 A 
ATOM      4  C   UNL     1       2.357  -0.165   1.397  0.00  0.00    +0.079 A 
ATOM      5  C   UNL     1       1.196  -0.815   0.909  0.00  0.00    +0.028 A 
ATOM      6  C   UNL     1       0.039  -0.073   0.655  0.00  0.00    +0.012 A 
ATOM      7  C   UNL     1       1.262  -2.260   0.689  0.00  0.00    +0.098 A 
ATOM      8  N   UNL     1       2.413  -2.872   0.962  0.00  0.00    -0.190 NA
ATOM      9  C   UNL     1       3.460  -2.197   1.417  0.00  0.00    +0.369 A 
ATOM     10  O   UNL     1       4.600  -2.882   1.674  0.00  0.00    -0.243 OA
ATOM     11  N   UNL     1       3.453  -0.899   1.631  0.00  0.00    -0.191 NA
ENDROOT
BRANCH   7  12
ATOM     12  C   UNL     1       0.102  -3.008   0.186  0.00  0.00    +0.158 C 
ATOM     13  N   UNL     1       0.223  -4.266  -0.119  0.00  0.00    -0.187 NA
BRANCH  13  14
ATOM     14  N   UNL     1       1.489  -4.865  -0.135  0.00  0.00    -0.219 N 
ATOM     15  H   UNL     1       2.283  -4.325   0.005  0.00  0.00    +0.176 HD
BRANCH  14  16
ATOM     16  C   UNL     1       1.605  -6.191  -0.345  0.00  0.00    +0.147 C 
ATOM     17  S   UNL     1       3.152  -6.923  -0.365  0.00  0.00    -0.017 S 
BRANCH  16  18
ATOM     18  N   UNL     1       0.502  -6.941  -0.540  0.00  0.00    -0.339 N 
ATOM     19  H   UNL     1      -0.375  -6.527  -0.529  0.00  0.00    +0.144 HD
ATOM     20  H   UNL     1       0.585  -7.896  -0.692  0.00  0.00    +0.144 HD
ENDBRANCH  16  18
ENDBRANCH  14  16
ENDBRANCH  13  14
ENDBRANCH   7  12
TORSDOF 4
