REMARK  Name = ZINC23100825
REMARK  11 active torsions:
REMARK  status: ('A' for Active; 'I' for Inactive)
REMARK    1  A    between atoms: C_1  and  C_2
REMARK    2  A    between atoms: C_2  and  C_3
REMARK    3  A    between atoms: C_3  and  C_4
REMARK    4  A    between atoms: C_3  and  C_5
REMARK    5  A    between atoms: C_3  and  C_6
REMARK    6  A    between atoms: N_14  and  C_18
REMARK    7  A    between atoms: C_18  and  C_19
REMARK    8  A    between atoms: N_21  and  C_22
REMARK    9  A    between atoms: C_26  and  O_28
REMARK   10  A    between atoms: O_28  and  C_29
REMARK   11  A    between atoms: C_29  and  C_30
REMARK                            x       y       z     vdW  Elec       q    Type
REMARK                         _______ _______ _______ _____ _____    ______ ____
ROOT
ATOM      1  C   UNL     1       2.612  -7.326   1.669  0.00  0.00    -0.005 C 
ATOM      2  C   UNL     1       1.520  -6.443   1.062  0.00  0.00    +0.006 C 
ATOM      3  C   UNL     1       1.735  -4.993   1.501  0.00  0.00    +0.035 C 
ATOM      4  C   UNL     1       3.109  -4.519   1.039  0.00  0.00    +0.113 C 
ATOM      5  C   UNL     1       4.207  -5.404   1.619  0.00  0.00    +0.035 C 
ATOM      6  C   UNL     1       3.983  -6.853   1.180  0.00  0.00    +0.006 C 
ATOM      7  C   UNL     1       3.336  -3.078   1.432  0.00  0.00    +0.247 C 
ATOM      8  O   UNL     1       3.365  -2.619   2.554  0.00  0.00    -0.273 OA
ATOM      9  N   UNL     1       3.497  -2.409   0.272  0.00  0.00    -0.215 N 
ATOM     10  C   UNL     1       3.411  -3.227  -0.784  0.00  0.00    +0.310 C 
ATOM     11  O   UNL     1       3.527  -2.857  -1.937  0.00  0.00    -0.252 OA
ATOM     12  N   UNL     1       3.182  -4.505  -0.427  0.00  0.00    -0.285 N 
ATOM     13  H   UNL     1       3.053  -5.439  -0.994  0.00  0.00    +0.151 HD
ENDROOT
BRANCH   1  14
ATOM     14  C   UNL     1       2.391  -8.778   1.239  0.00  0.00    -0.032 C 
ATOM     15  C   UNL     1       1.022  -9.252   1.729  0.00  0.00    +0.011 C 
ATOM     16  C   UNL     1       2.447  -8.873  -0.287  0.00  0.00    +0.011 C 
BRANCH  14  18
ATOM     17  C   UNL     1       3.263 -11.113   1.416  0.00  0.00    +0.004 C 
ATOM     18  C   UNL     1       3.484  -9.661   1.845  0.00  0.00    +0.003 C 
ENDBRANCH  14  18
ENDBRANCH   1  14
BRANCH   9  19
ATOM     19  C   UNL     1       3.741  -0.968   0.179  0.00  0.00    +0.214 C 
BRANCH  19  20
ATOM     20  C   UNL     1       2.425  -0.240   0.081  0.00  0.00    +0.235 C 
ATOM     21  O   UNL     1       1.385  -0.865   0.088  0.00  0.00    -0.274 OA
ATOM     22  N   UNL     1       2.403   1.104  -0.014  0.00  0.00    -0.284 N 
ATOM     23  H   UNL     1       3.345   1.665  -0.097  0.00  0.00    +0.155 HD
BRANCH  22  24
ATOM     24  C   UNL     1       1.181   1.786  -0.008  0.00  0.00    +0.037 A 
ATOM     25  C   UNL     1       1.082   3.030   0.602  0.00  0.00    +0.023 A 
ATOM     26  C   UNL     1      -0.125   3.701   0.612  0.00  0.00    +0.005 A 
ATOM     27  C   UNL     1      -1.235   3.142   0.008  0.00  0.00    +0.046 A 
ATOM     28  C   UNL     1      -1.142   1.899  -0.602  0.00  0.00    +0.122 A 
ATOM     29  C   UNL     1       0.066   1.220  -0.610  0.00  0.00    +0.069 A 
BRANCH  28  30
ATOM     30  O   UNL     1      -2.236   1.348  -1.192  0.00  0.00    -0.489 OA
BRANCH  30  31
ATOM     31  C   UNL     1      -3.448   2.103  -1.145  0.00  0.00    +0.260 C 
BRANCH  31  32
ATOM     32  C   UNL     1      -4.559   1.328  -1.855  0.00  0.00    +0.156 C 
ATOM     33  C   UNL     1      -5.847   2.178  -1.927  0.00  0.00    +0.037 C 
ATOM     34  C   UNL     1      -6.985   1.155  -1.720  0.00  0.00    +0.031 C 
ATOM     35  C   UNL     1      -6.251  -0.193  -1.547  0.00  0.00    +0.160 C 
ATOM     36  O   UNL     1      -4.930   0.163  -1.086  0.00  0.00    -0.373 OA
ENDBRANCH  31  32
ENDBRANCH  30  31
ENDBRANCH  28  30
ENDBRANCH  22  24
ENDBRANCH  19  20
ENDBRANCH   9  19
TORSDOF 8
