REMARK  Name = ZINC04843513
REMARK  6 active torsions:
REMARK  status: ('A' for Active; 'I' for Inactive)
REMARK    1  A    between atoms: C_1  and  C_2
REMARK    2  A    between atoms: C_7  and  S_15
REMARK    3  A    between atoms: S_15  and  C_16
REMARK    4  A    between atoms: C_16  and  C_18
REMARK    5  A    between atoms: C_16  and  C_19
REMARK    6  A    between atoms: N_21  and  C_22
REMARK                            x       y       z     vdW  Elec       q    Type
REMARK                         _______ _______ _______ _____ _____    ______ ____
ROOT
ATOM      1  C   UNL     1       4.978   1.425  -0.039  0.00  0.00    +0.044 C 
ATOM      2  C   UNL     1       3.654   2.144  -0.022  0.00  0.00    -0.038 A 
ATOM      3  C   UNL     1       3.610   3.496  -0.015  0.00  0.00    +0.052 A 
ATOM      4  C   UNL     1       2.366   4.171   0.001  0.00  0.00    +0.162 A 
ATOM      5  N   UNL     1       2.050   5.453   0.009  0.00  0.00    -0.129 NA
ATOM      6  N   UNL     1       0.771   5.587   0.022  0.00  0.00    -0.122 NA
ATOM      7  C   UNL     1       0.191   4.407   0.022  0.00  0.00    +0.197 A 
ATOM      8  N   UNL     1       1.181   3.469   0.009  0.00  0.00    -0.270 N 
ATOM      9  C   UNL     1       1.177   2.085   0.002  0.00  0.00    +0.058 A 
ATOM     10  C   UNL     1       2.398   1.388  -0.013  0.00  0.00    +0.002 A 
ATOM     11  C   UNL     1       2.400  -0.010  -0.021  0.00  0.00    +0.010 A 
ATOM     12  C   UNL     1       1.205  -0.694  -0.013  0.00  0.00    +0.001 A 
ATOM     13  C   UNL     1       0.002  -0.004   0.002  0.00  0.00    +0.002 A 
ATOM     14  C   UNL     1      -0.017   1.376   0.010  0.00  0.00    +0.027 A 
ENDROOT
BRANCH   7  15
ATOM     15  S   UNL     1      -1.544   4.095   0.037  0.00  0.00    -0.073 S 
BRANCH  15  16
ATOM     16  C   UNL     1      -2.168   5.794   0.050  0.00  0.00    +0.137 C 
ATOM     17  C   UNL     1      -1.784   6.489  -1.258  0.00  0.00    +0.029 C 
BRANCH  16  18
ATOM     18  C   UNL     1      -3.669   5.776   0.188  0.00  0.00    +0.226 C 
ATOM     19  O   UNL     1      -4.292   4.773  -0.090  0.00  0.00    -0.275 OA
ATOM     20  N   UNL     1      -4.319   6.875   0.620  0.00  0.00    -0.312 N 
ATOM     21  H   UNL     1      -3.821   7.677   0.842  0.00  0.00    +0.149 HD
BRANCH  20  22
ATOM     22  C   UNL     1      -5.777   6.858   0.754  0.00  0.00    +0.073 C 
ATOM     23  C   UNL     1      -6.548   8.077   0.244  0.00  0.00    +0.024 C 
ATOM     24  C   UNL     1      -6.407   7.835   1.749  0.00  0.00    +0.024 C 
ENDBRANCH  20  22
ENDBRANCH  16  18
ENDBRANCH  15  16
ENDBRANCH   7  15
TORSDOF 4
