REMARK  Name = ZINC65151846
REMARK  7 active torsions:
REMARK  status: ('A' for Active; 'I' for Inactive)
REMARK    1  A    between atoms: C_1  and  C_2
REMARK    2  A    between atoms: C_7  and  N_8
REMARK    3  A    between atoms: N_17  and  C_24
REMARK    4  A    between atoms: C_24  and  C_25
REMARK    5  A    between atoms: N_27  and  C_28
REMARK    6  A    between atoms: C_28  and  C_29
REMARK    7  A    between atoms: C_29  and  C_30
REMARK                            x       y       z     vdW  Elec       q    Type
REMARK                         _______ _______ _______ _____ _____    ______ ____
ROOT
ATOM      1  N   UNL     1      -0.148  -2.079   3.586  0.00  0.00    -0.327 N 
ATOM      2  C   UNL     1       1.100  -1.894   4.339  0.00  0.00    +0.124 C 
ATOM      3  C   UNL     1       1.300  -0.395   4.595  0.00  0.00    +0.125 C 
ATOM      4  N   UNL     1       0.054   0.159   5.143  0.00  0.00    -0.309 N 
ATOM      5  C   UNL     1      -1.194  -0.027   4.390  0.00  0.00    +0.125 C 
ATOM      6  C   UNL     1      -1.394  -1.521   4.132  0.00  0.00    +0.124 C 
ATOM      7  C   UNL     1       0.056   0.841   6.346  0.00  0.00    +0.167 A 
ATOM      8  C   UNL     1       1.319   1.142   7.032  0.00  0.00    +0.202 A 
ATOM      9  N   UNL     1       2.572   0.894   6.753  0.00  0.00    -0.145 NA
ATOM     10  N   UNL     1       3.357   1.425   7.786  0.00  0.00    -0.203 N 
ATOM     11  C   UNL     1       2.523   1.993   8.682  0.00  0.00    +0.352 A 
ATOM     12  O   UNL     1       2.850   2.555   9.712  0.00  0.00    -0.244 OA
ATOM     13  N   UNL     1       1.265   1.828   8.234  0.00  0.00    -0.247 N 
ATOM     14  C   UNL     1       0.030   2.198   8.731  0.00  0.00    +0.117 A 
ATOM     15  C   UNL     1      -1.091   1.897   8.060  0.00  0.00    +0.131 A 
ATOM     16  N   UNL     1      -1.074   1.238   6.893  0.00  0.00    -0.235 NA
ENDROOT
BRANCH   1  23
ATOM     17  C   UNL     1      -0.579  -4.891   3.640  0.00  0.00    +0.045 C 
ATOM     18  C   UNL     1      -0.357  -4.142   2.351  0.00  0.00    -0.029 A 
ATOM     19  C   UNL     1      -0.364  -4.820   1.147  0.00  0.00    +0.005 A 
ATOM     20  C   UNL     1      -0.160  -4.134  -0.035  0.00  0.00    +0.000 A 
ATOM     21  C   UNL     1       0.052  -2.767  -0.018  0.00  0.00    +0.002 A 
ATOM     22  C   UNL     1       0.060  -2.083   1.182  0.00  0.00    +0.023 A 
ATOM     23  C   UNL     1      -0.150  -2.769   2.372  0.00  0.00    +0.033 A 
ENDBRANCH   1  23
BRANCH  10  24
ATOM     24  C   UNL     1       4.818   1.372   7.877  0.00  0.00    +0.244 C 
BRANCH  24  25
ATOM     25  C   UNL     1       5.232   0.121   8.608  0.00  0.00    +0.235 C 
ATOM     26  O   UNL     1       4.388  -0.651   9.013  0.00  0.00    -0.274 OA
ATOM     27  N   UNL     1       6.538  -0.141   8.812  0.00  0.00    -0.313 N 
ATOM     28  H   UNL     1       7.212   0.477   8.487  0.00  0.00    +0.149 HD
BRANCH  27  29
ATOM     29  C   UNL     1       6.940  -1.357   9.522  0.00  0.00    +0.108 C 
BRANCH  29  30
ATOM     30  C   UNL     1       8.466  -1.412   9.617  0.00  0.00    +0.049 C 
BRANCH  30  31
ATOM     31  C   UNL     1       8.879  -2.663  10.348  0.00  0.00    -0.072 C 
ATOM     32  C   UNL     1       9.187  -3.704   9.643  0.00  0.00    -0.028 C 
ATOM     33  C   UNL     1       9.606  -5.022  10.228  0.00  0.00    +0.027 C 
ATOM     34  C   UNL     1      10.022  -4.841  11.689  0.00  0.00    +0.004 C 
ATOM     35  C   UNL     1       8.926  -4.048  12.411  0.00  0.00    +0.005 C 
ATOM     36  C   UNL     1       8.913  -2.623  11.848  0.00  0.00    +0.030 C 
ENDBRANCH  30  31
ENDBRANCH  29  30
ENDBRANCH  27  29
ENDBRANCH  24  25
ENDBRANCH  10  24
TORSDOF 6
