REMARK  Name = ZINC03850734
REMARK  9 active torsions:
REMARK  status: ('A' for Active; 'I' for Inactive)
REMARK    1  A    between atoms: C_1  and  C_2
REMARK    2  A    between atoms: C_4  and  O_27
REMARK    3  A    between atoms: C_6  and  O_26
REMARK    4  A    between atoms: C_7  and  C_8
REMARK    5  A    between atoms: C_8  and  C_10
REMARK    6  A    between atoms: C_11  and  C_17
REMARK    7  A    between atoms: C_15  and  O_16
REMARK    8  A    between atoms: C_17  and  C_18
REMARK    9  A    between atoms: C_23  and  O_25
REMARK                            x       y       z     vdW  Elec       q    Type
REMARK                         _______ _______ _______ _____ _____    ______ ____
ROOT
ATOM      1  C   UNL     1       2.326   5.193  -2.446  0.00  0.00    +0.067 A 
ATOM      2  C   UNL     1       2.976   4.160  -1.764  0.00  0.00    -0.026 A 
ATOM      3  C   UNL     1       3.748   3.257  -2.462  0.00  0.00    +0.005 A 
ATOM      4  C   UNL     1       3.875   3.361  -3.837  0.00  0.00    +0.004 A 
ATOM      5  C   UNL     1       3.239   4.377  -4.523  0.00  0.00    +0.046 A 
ATOM      6  C   UNL     1       2.461   5.298  -3.837  0.00  0.00    +0.128 A 
ENDROOT
BRANCH   1   7
ATOM      7  C   UNL     1       1.502   6.167  -1.705  0.00  0.00    +0.201 C 
ATOM      8  O   UNL     1       1.442   6.114  -0.491  0.00  0.00    -0.286 OA
BRANCH   7  15
ATOM      9  C   UNL     1       2.665   8.791  -2.047  0.00  0.00    +0.045 C 
ATOM     10  C   UNL     1       1.302   8.477  -2.608  0.00  0.00    -0.033 A 
ATOM     11  C   UNL     1       0.605   9.437  -3.285  0.00  0.00    +0.049 A 
ATOM     12  C   UNL     1      -0.654   9.156  -3.807  0.00  0.00    +0.121 A 
ATOM     13  C   UNL     1      -1.214   7.897  -3.644  0.00  0.00    +0.091 A 
ATOM     14  C   UNL     1      -0.516   6.914  -2.965  0.00  0.00    +0.131 A 
ATOM     15  C   UNL     1       0.752   7.203  -2.435  0.00  0.00    +0.067 A 
BRANCH  14  16
ATOM     16  O   UNL     1      -1.056   5.679  -2.807  0.00  0.00    -0.506 OA
ATOM     17  H   UNL     1      -1.651   5.604  -2.048  0.00  0.00    +0.292 HD
ENDBRANCH  14  16
BRANCH  12  18
ATOM     18  O   UNL     1      -1.337  10.118  -4.477  0.00  0.00    -0.507 OA
ATOM     19  H   UNL     1      -1.163  10.134  -5.428  0.00  0.00    +0.292 HD
ENDBRANCH  12  18
ENDBRANCH   7  15
ENDBRANCH   1   7
BRANCH   6  20
ATOM     20  O   UNL     1       1.835   6.295  -4.510  0.00  0.00    -0.506 OA
ATOM     21  H   UNL     1       2.374   7.089  -4.629  0.00  0.00    +0.292 HD
ENDBRANCH   6  20
BRANCH   2  22
ATOM     22  C   UNL     1       2.837   4.038  -0.269  0.00  0.00    +0.110 C 
BRANCH  22  23
ATOM     23  C   UNL     1       1.569   3.293   0.059  0.00  0.00    +0.117 A 
ATOM     24  C   UNL     1       1.600   1.953   0.175  0.00  0.00    +0.093 A 
ATOM     25  C   UNL     1       0.399   1.258   0.485  0.00  0.00    +0.189 A 
ATOM     26  O   UNL     1       0.391   0.041   0.598  0.00  0.00    -0.288 OA
ATOM     27  C   UNL     1      -0.783   2.010   0.654  0.00  0.00    +0.138 A 
ATOM     28  C   UNL     1      -0.727   3.362   0.524  0.00  0.00    +0.288 A 
ATOM     29  O   UNL     1       0.429   3.975   0.231  0.00  0.00    -0.429 OA
BRANCH  28  30
ATOM     30  O   UNL     1      -1.849   4.096   0.688  0.00  0.00    -0.480 OA
ATOM     31  H   UNL     1      -1.717   5.047   0.575  0.00  0.00    +0.295 HD
ENDBRANCH  28  30
ENDBRANCH  22  23
ENDBRANCH   2  22
TORSDOF 8
