REMARK  Name = ZINC07989182
REMARK  10 active torsions:
REMARK  status: ('A' for Active; 'I' for Inactive)
REMARK    1  A    between atoms: C_1  and  C_2
REMARK    2  A    between atoms: C_3  and  C_14
REMARK    3  A    between atoms: C_4  and  C_13
REMARK    4  A    between atoms: N_5  and  C_7
REMARK    5  A    between atoms: C_14  and  N_55
REMARK    6  A    between atoms: C_15  and  N_55
REMARK    7  A    between atoms: C_16  and  C_17
REMARK    8  A    between atoms: C_16  and  N_55
REMARK    9  A    between atoms: N_19  and  C_20
REMARK   10  A    between atoms: C_21  and  C_28
REMARK                            x       y       z     vdW  Elec       q    Type
REMARK                         _______ _______ _______ _____ _____    ______ ____
ROOT
ATOM      1  C   UNL     1      -2.522  -0.187   1.412  0.00  0.00    -0.095 C 
ATOM      2  N   UNL     1      -2.318   0.476   0.107  0.00  0.00    +0.386 N 
ATOM      3  H   UNL     1      -2.235  -0.242  -0.623  0.00  0.00    -0.081 HD
ENDROOT
BRANCH   2   4
ATOM      4  C   UNL     1      -3.473   1.345  -0.205  0.00  0.00    -0.039 C 
BRANCH   4   7
ATOM      5  C   UNL     1      -4.371   0.133  -2.992  0.00  0.00    +0.068 C 
ATOM      6  C   UNL     1      -5.079  -0.058  -1.675  0.00  0.00    +0.062 A 
ATOM      7  C   UNL     1      -4.682   0.478  -0.445  0.00  0.00    -0.020 A 
ATOM      8  C   UNL     1      -5.579   0.085   0.489  0.00  0.00    +0.043 A 
ATOM      9  N   UNL     1      -6.509  -0.678  -0.128  0.00  0.00    -0.237 N 
ATOM     10  N   UNL     1      -6.170  -0.755  -1.486  0.00  0.00    -0.171 NA
ATOM     11  C   UNL     1      -5.546   0.435   1.955  0.00  0.00    +0.066 C 
BRANCH   9  12
ATOM     12  C   UNL     1      -7.615  -1.286   0.482  0.00  0.00    +0.066 A 
ATOM     13  C   UNL     1      -7.972  -2.583   0.141  0.00  0.00    +0.028 A 
ATOM     14  C   UNL     1      -9.059  -3.181   0.748  0.00  0.00    +0.002 A 
ATOM     15  C   UNL     1      -9.798  -2.484   1.686  0.00  0.00    +0.000 A 
ATOM     16  C   UNL     1      -9.449  -1.190   2.024  0.00  0.00    +0.002 A 
ATOM     17  C   UNL     1      -8.359  -0.589   1.424  0.00  0.00    +0.028 A 
ENDBRANCH   9  12
ENDBRANCH   4   7
ENDBRANCH   2   4
BRANCH   2  18
ATOM     18  C   UNL     1      -1.077   1.278   0.136  0.00  0.00    +0.019 C 
BRANCH  18  19
ATOM     19  C   UNL     1       0.102   0.344   0.234  0.00  0.00    +0.201 C 
ATOM     20  O   UNL     1      -0.076  -0.854   0.292  0.00  0.00    -0.278 OA
ATOM     21  N   UNL     1       1.355   0.841   0.253  0.00  0.00    -0.281 N 
ATOM     22  H   UNL     1       1.498   1.799   0.207  0.00  0.00    +0.155 HD
BRANCH  21  23
ATOM     23  C   UNL     1       2.441  -0.019   0.338  0.00  0.00    +0.090 A 
ATOM     24  C   UNL     1       3.788   0.297   0.364  0.00  0.00    +0.084 A 
ATOM     25  C   UNL     1       4.741  -0.807   0.462  0.00  0.00    -0.018 A 
ATOM     26  C   UNL     1       4.191  -2.035   0.508  0.00  0.00    -0.004 A 
ATOM     27  S   UNL     1       2.440  -1.748   0.429  0.00  0.00    -0.077 S 
ATOM     28  C   UNL     1       5.232  -3.116   0.606  0.00  0.00    +0.043 C 
ATOM     29  C   UNL     1       6.516  -2.382   1.052  0.00  0.00    +0.010 C 
ATOM     30  C   UNL     1       6.262  -0.956   0.523  0.00  0.00    +0.037 C 
BRANCH  24  31
ATOM     31  C   UNL     1       4.232   1.657   0.302  0.00  0.00    +0.102 C 
ATOM     32  N   UNL     1       4.584   2.735   0.252  0.00  0.00    -0.191 NA
ENDBRANCH  24  31
ENDBRANCH  21  23
ENDBRANCH  18  19
ENDBRANCH   2  18
TORSDOF 7
