REMARK  Name = ZINC06303309
REMARK  5 active torsions:
REMARK  status: ('A' for Active; 'I' for Inactive)
REMARK    1  A    between atoms: C_2  and  C_3
REMARK    2  A    between atoms: C_3  and  N_4
REMARK    3  A    between atoms: N_13  and  C_14
REMARK    4  A    between atoms: C_14  and  C_16
REMARK    5  A    between atoms: C_20  and  N_22
REMARK                            x       y       z     vdW  Elec       q    Type
REMARK                         _______ _______ _______ _____ _____    ______ ____
ROOT
ATOM      1  N   UNL     1       0.002  -0.004   0.002  0.00  0.00    -0.310 N 
ATOM      2  C   UNL     1       1.208  -0.681  -0.014  0.00  0.00    +0.058 A 
ATOM      3  C   UNL     1       1.428  -2.067  -0.024  0.00  0.00    +0.027 A 
ATOM      4  C   UNL     1       2.705  -2.575  -0.040  0.00  0.00    +0.002 A 
ATOM      5  C   UNL     1       3.810  -1.741  -0.047  0.00  0.00    +0.001 A 
ATOM      6  C   UNL     1       3.622  -0.370  -0.036  0.00  0.00    +0.017 A 
ATOM      7  C   UNL     1       2.345   0.140  -0.020  0.00  0.00    +0.039 A 
ATOM      8  S   UNL     1       1.665   1.779  -0.004  0.00  0.00    -0.052 S 
ATOM      9  C   UNL     1      -0.016   1.356   0.009  0.00  0.00    +0.168 A 
ATOM     10  N   UNL     1      -1.070   2.166   0.019  0.00  0.00    -0.152 NA
ENDROOT
BRANCH  10  11
ATOM     11  C   UNL     1      -0.894   3.491   0.025  0.00  0.00    +0.270 C 
ATOM     12  O   UNL     1       0.232   3.956   0.022  0.00  0.00    -0.268 OA
BRANCH  11  13
ATOM     13  C   UNL     1      -2.068   4.394   0.036  0.00  0.00    +0.041 A 
ATOM     14  C   UNL     1      -3.359   3.864   0.034  0.00  0.00    +0.013 A 
ATOM     15  C   UNL     1      -4.449   4.710   0.050  0.00  0.00    +0.003 A 
ATOM     16  C   UNL     1      -4.264   6.081   0.057  0.00  0.00    +0.033 A 
ATOM     17  C   UNL     1      -2.986   6.612   0.053  0.00  0.00    +0.127 A 
ATOM     18  C   UNL     1      -1.889   5.777   0.043  0.00  0.00    +0.045 A 
BRANCH  17  19
ATOM     19  N   UNL     1      -2.797   8.081   0.059  0.00  0.00    +0.056 N 
ATOM     20  O   UNL     1      -1.673   8.550   0.056  0.00  0.00    -0.126 OA
ATOM     21  O   UNL     1      -3.765   8.819   0.068  0.00  0.00    -0.126 OA
ENDBRANCH  17  19
ENDBRANCH  11  13
ENDBRANCH  10  11
BRANCH   1  22
ATOM     22  C   UNL     1      -1.257  -0.753   0.010  0.00  0.00    +0.212 C 
BRANCH  22  24
ATOM     23  C   UNL     1      -2.039  -1.189  -2.480  0.00  0.00    +0.005 C 
ATOM     24  C   UNL     1      -1.692  -0.996  -1.375  0.00  0.00    -0.084 C 
ENDBRANCH  22  24
ENDBRANCH   1  22
TORSDOF 5
