REMARK  Name = ZINC39664988
REMARK  8 active torsions:
REMARK  status: ('A' for Active; 'I' for Inactive)
REMARK    1  A    between atoms: C_1  and  C_2
REMARK    2  A    between atoms: C_6  and  C_8
REMARK    3  A    between atoms: C_12  and  C_21
REMARK    4  A    between atoms: N_23  and  C_24
REMARK    5  A    between atoms: C_24  and  C_25
REMARK    6  A    between atoms: C_25  and  C_27
REMARK    7  A    between atoms: C_25  and  O_28
REMARK    8  A    between atoms: O_28  and  C_29
REMARK                            x       y       z     vdW  Elec       q    Type
REMARK                         _______ _______ _______ _____ _____    ______ ____
ROOT
ATOM      1  C   UNL     1       1.258  -2.343   3.257  0.00  0.00    +0.247 C 
ATOM      2  O   UNL     1       1.579  -1.876   4.332  0.00  0.00    -0.270 OA
ATOM      3  N   UNL     1       0.946  -3.651   3.156  0.00  0.00    -0.296 N 
ATOM      4  C   UNL     1       0.660  -4.423   1.925  0.00  0.00    +0.121 C 
ATOM      5  C   UNL     1       1.340  -5.792   2.155  0.00  0.00    +0.100 C 
ATOM      6  C   UNL     1       1.436  -5.929   3.684  0.00  0.00    -0.004 C 
ATOM      7  C   UNL     1       0.820  -4.642   4.251  0.00  0.00    +0.115 C 
ATOM      8  C   UNL     1       0.647  -7.146   4.156  0.00  0.00    -0.010 C 
ATOM      9  C   UNL     1       0.805  -7.295   5.672  0.00  0.00    -0.082 C 
ATOM     10  N   UNL     1       2.227  -7.450   6.005  0.00  0.00    +0.379 N 
ATOM     11  C   UNL     1       2.963  -6.236   5.631  0.00  0.00    -0.082 C 
ATOM     12  C   UNL     1       2.896  -6.042   4.114  0.00  0.00    -0.010 C 
ATOM     13  H   UNL     1       2.323  -7.609   6.996  0.00  0.00    -0.086 HD
ATOM     14  H   UNL     1       2.604  -8.239   5.502  0.00  0.00    -0.086 HD
ENDROOT
BRANCH   1  20
ATOM     15  C   UNL     1      -0.416  -1.448  -1.358  0.00  0.00    +0.044 C 
ATOM     16  C   UNL     1       0.405  -1.042  -0.162  0.00  0.00    -0.050 A 
ATOM     17  C   UNL     1       1.115   0.145  -0.182  0.00  0.00    +0.003 A 
ATOM     18  C   UNL     1       1.871   0.526   0.912  0.00  0.00    +0.001 A 
ATOM     19  C   UNL     1       1.921  -0.278   2.032  0.00  0.00    +0.013 A 
ATOM     20  C   UNL     1       1.208  -1.477   2.060  0.00  0.00    +0.037 A 
ATOM     21  C   UNL     1       0.443  -1.852   0.955  0.00  0.00    +0.016 A 
ENDBRANCH   1  20
BRANCH   5  22
ATOM     22  C   UNL     1       2.714  -5.806   1.538  0.00  0.00    +0.218 C 
ATOM     23  O   UNL     1       3.353  -4.778   1.456  0.00  0.00    -0.275 OA
ATOM     24  N   UNL     1       3.233  -6.960   1.076  0.00  0.00    -0.312 N 
ATOM     25  H   UNL     1       2.723  -7.782   1.141  0.00  0.00    +0.149 HD
BRANCH  24  26
ATOM     26  C   UNL     1       4.569  -6.974   0.475  0.00  0.00    +0.148 C 
BRANCH  26  27
ATOM     27  C   UNL     1       4.917  -8.398   0.036  0.00  0.00    +0.187 C 
ATOM     28  C   UNL     1       6.312  -8.412  -0.591  0.00  0.00    +0.053 C 
BRANCH  27  29
ATOM     29  O   UNL     1       4.897  -9.265   1.172  0.00  0.00    -0.488 OA
BRANCH  29  30
ATOM     30  C   UNL     1       4.658 -10.582   0.939  0.00  0.00    +0.121 A 
ATOM     31  C   UNL     1       4.504 -11.459   2.003  0.00  0.00    +0.045 A 
ATOM     32  C   UNL     1       4.261 -12.798   1.763  0.00  0.00    +0.004 A 
ATOM     33  C   UNL     1       4.172 -13.264   0.464  0.00  0.00    +0.000 A 
ATOM     34  C   UNL     1       4.326 -12.392  -0.598  0.00  0.00    +0.004 A 
ATOM     35  C   UNL     1       4.563 -11.051  -0.363  0.00  0.00    +0.045 A 
ENDBRANCH  29  30
ENDBRANCH  27  29
ENDBRANCH  26  27
ENDBRANCH  24  26
ENDBRANCH   5  22
TORSDOF 6
