REMARK  Name = ZINC36309256
REMARK  18 active torsions:
REMARK  status: ('A' for Active; 'I' for Inactive)
REMARK    1  A    between atoms: C_1  and  C_2
REMARK    2  A    between atoms: C_2  and  C_3
REMARK    3  A    between atoms: C_2  and  C_4
REMARK    4  A    between atoms: C_7  and  O_10
REMARK    5  A    between atoms: O_10  and  C_11
REMARK    6  A    between atoms: C_11  and  C_12
REMARK    7  A    between atoms: C_22  and  C_24
REMARK    8  A    between atoms: C_24  and  N_25
REMARK    9  A    between atoms: N_25  and  C_26
REMARK   10  A    between atoms: N_25  and  C_29
REMARK   11  A    between atoms: C_26  and  C_27
REMARK   12  A    between atoms: C_29  and  C_30
REMARK   13  A    between atoms: C_30  and  C_32
REMARK   14  A    between atoms: C_30  and  O_37
REMARK   15  A    between atoms: C_32  and  O_33
REMARK   16  A    between atoms: O_33  and  C_34
REMARK   17  A    between atoms: C_34  and  C_35
REMARK   18  A    between atoms: C_34  and  C_36
REMARK                            x       y       z     vdW  Elec       q    Type
REMARK                         _______ _______ _______ _____ _____    ______ ____
ROOT
ATOM      1  C   UNL     1      -6.620  -2.171  -1.046  0.00  0.00    +0.144 C 
ATOM      2  C   UNL     1      -6.565  -2.720   0.378  0.00  0.00    -0.014 A 
ATOM      3  C   UNL     1      -5.821  -3.843   0.736  0.00  0.00    +0.013 A 
ATOM      4  C   UNL     1      -5.816  -4.271   2.019  0.00  0.00    +0.046 A 
ATOM      5  S   UNL     1      -6.888  -3.080   2.808  0.00  0.00    -0.101 S 
ATOM      6  C   UNL     1      -7.264  -2.108   1.373  0.00  0.00    -0.004 A 
ATOM      7  C   UNL     1      -8.142  -0.903   1.272  0.00  0.00    +0.061 C 
ATOM      8  C   UNL     1      -7.843  -0.186  -0.053  0.00  0.00    +0.113 C 
ATOM      9  N   UNL     1      -7.721  -1.200  -1.113  0.00  0.00    -0.292 N 
ATOM     10  C   UNL     1      -8.607  -1.240  -2.128  0.00  0.00    +0.200 C 
ATOM     11  O   UNL     1      -8.498  -2.080  -2.995  0.00  0.00    -0.278 OA
ENDROOT
BRANCH   1  12
ATOM     12  C   UNL     1      -5.299  -1.479  -1.386  0.00  0.00    +0.256 C 
BRANCH  12  13
ATOM     13  O   UNL     1      -5.009  -0.491  -0.395  0.00  0.00    -0.490 OA
BRANCH  13  17
ATOM     14  C   UNL     1      -1.524   1.667  -0.863  0.00  0.00    -0.045 A 
ATOM     15  C   UNL     1      -2.350   1.916   0.218  0.00  0.00    +0.007 A 
ATOM     16  C   UNL     1      -3.518   1.194   0.377  0.00  0.00    +0.046 A 
ATOM     17  C   UNL     1      -3.861   0.220  -0.549  0.00  0.00    +0.121 A 
ATOM     18  C   UNL     1      -3.031  -0.028  -1.632  0.00  0.00    +0.046 A 
ATOM     19  C   UNL     1      -1.867   0.700  -1.790  0.00  0.00    +0.007 A 
BRANCH  14  21
ATOM     20  C   UNL     1      -0.585   3.943  -1.151  0.00  0.00    +0.012 C 
ATOM     21  C   UNL     1      -0.251   2.455  -1.033  0.00  0.00    +0.013 C 
ATOM     22  C   UNL     1       0.655   2.229   0.179  0.00  0.00    +0.012 C 
ENDBRANCH  14  21
ENDBRANCH  13  17
ENDBRANCH  12  13
ENDBRANCH   1  12
BRANCH  10  23
ATOM     23  C   UNL     1      -9.732  -0.239  -2.185  0.00  0.00    +0.019 C 
BRANCH  23  24
ATOM     24  N   UNL     1     -10.552  -0.492  -3.378  0.00  0.00    +0.389 N 
ATOM     25  H   UNL     1      -9.964  -0.483  -4.198  0.00  0.00    -0.081 HD
BRANCH  24  26
ATOM     26  C   UNL     1     -11.203  -1.803  -3.256  0.00  0.00    -0.051 C 
BRANCH  26  27
ATOM     27  C   UNL     1     -12.028  -1.838  -1.995  0.00  0.00    -0.053 C 
ATOM     28  C   UNL     1     -13.307  -2.114  -2.057  0.00  0.00    +0.002 C 
ENDBRANCH  26  27
ENDBRANCH  24  26
BRANCH  24  29
ATOM     29  C   UNL     1     -11.576   0.555  -3.499  0.00  0.00    -0.044 C 
BRANCH  29  30
ATOM     30  C   UNL     1     -12.323   0.386  -4.823  0.00  0.00    +0.124 C 
BRANCH  30  31
ATOM     31  O   UNL     1     -11.418   0.589  -5.910  0.00  0.00    -0.391 OA
ATOM     32  H   UNL     1     -11.009   1.466  -5.923  0.00  0.00    +0.210 HD
ENDBRANCH  30  31
BRANCH  30  33
ATOM     33  C   UNL     1     -13.456   1.411  -4.904  0.00  0.00    +0.189 C 
BRANCH  33  34
ATOM     34  O   UNL     1     -14.225   1.179  -6.085  0.00  0.00    -0.375 OA
BRANCH  34  35
ATOM     35  C   UNL     1     -15.315   2.087  -6.258  0.00  0.00    +0.112 C 
ATOM     36  C   UNL     1     -14.843   3.304  -7.055  0.00  0.00    +0.037 C 
ATOM     37  C   UNL     1     -16.447   1.389  -7.014  0.00  0.00    +0.037 C 
ENDBRANCH  34  35
ENDBRANCH  33  34
ENDBRANCH  30  33
ENDBRANCH  29  30
ENDBRANCH  24  29
ENDBRANCH  23  24
ENDBRANCH  10  23
TORSDOF 14
