REMARK  Name = ZINC14456980
REMARK  6 active torsions:
REMARK  status: ('A' for Active; 'I' for Inactive)
REMARK    1  A    between atoms: C_1  and  C_2
REMARK    2  A    between atoms: C_2  and  C_4
REMARK    3  A    between atoms: C_17  and  C_20
REMARK    4  A    between atoms: C_23  and  O_27
REMARK    5  A    between atoms: C_24  and  O_26
REMARK    6  A    between atoms: O_27  and  C_28
REMARK                            x       y       z     vdW  Elec       q    Type
REMARK                         _______ _______ _______ _____ _____    ______ ____
ROOT
ATOM      1  C   UNL     1       0.588   4.320  -0.124  0.00  0.00    +0.017 A 
ATOM      2  C   UNL     1       0.963   2.971  -0.171  0.00  0.00    +0.013 A 
ATOM      3  C   UNL     1      -0.000   2.004  -0.136  0.00  0.00    +0.024 A 
ATOM      4  C   UNL     1      -1.347   2.356  -0.059  0.00  0.00    +0.031 A 
ATOM      5  C   UNL     1      -1.730   3.692  -0.007  0.00  0.00    -0.019 A 
ATOM      6  C   UNL     1      -0.764   4.666  -0.043  0.00  0.00    +0.017 A 
ATOM      7  C   UNL     1      -3.164   4.109   0.079  0.00  0.00    +0.049 C 
ATOM      8  C   UNL     1      -3.515   4.590   1.468  0.00  0.00    -0.023 C 
ATOM      9  C   UNL     1      -4.736   4.228   1.778  0.00  0.00    -0.030 C 
ATOM     10  C   UNL     1      -5.369   3.460   0.634  0.00  0.00    +0.033 C 
ATOM     11  C   UNL     1      -4.144   2.948  -0.179  0.00  0.00    +0.029 C 
ATOM     12  C   UNL     1      -3.629   1.672   0.493  0.00  0.00    +0.105 C 
ATOM     13  N   UNL     1      -2.303   1.353  -0.047  0.00  0.00    -0.336 N 
ATOM     14  H   UNL     1      -2.100   0.461  -0.369  0.00  0.00    +0.147 HD
ENDROOT
BRANCH  12  15
ATOM     15  C   UNL     1      -3.531   1.889   1.981  0.00  0.00    -0.023 A 
ATOM     16  C   UNL     1      -4.612   1.600   2.792  0.00  0.00    +0.009 A 
ATOM     17  C   UNL     1      -4.526   1.792   4.159  0.00  0.00    +0.050 A 
ATOM     18  C   UNL     1      -3.357   2.286   4.716  0.00  0.00    +0.161 A 
ATOM     19  C   UNL     1      -2.271   2.583   3.899  0.00  0.00    +0.159 A 
ATOM     20  C   UNL     1      -2.362   2.383   2.531  0.00  0.00    +0.054 A 
BRANCH  19  21
ATOM     21  O   UNL     1      -1.122   3.067   4.441  0.00  0.00    -0.503 OA
ATOM     22  H   UNL     1      -1.090   4.032   4.497  0.00  0.00    +0.292 HD
ENDBRANCH  19  21
BRANCH  18  23
ATOM     23  O   UNL     1      -3.272   2.482   6.059  0.00  0.00    -0.491 OA
ATOM     24  C   UNL     1      -4.427   2.155   6.837  0.00  0.00    +0.277 C 
ENDBRANCH  18  23
ENDBRANCH  12  15
BRANCH   1  26
ATOM     25  C   UNL     1       3.073   4.997  -0.124  0.00  0.00    +0.091 C 
ATOM     26  C   UNL     1       1.614   5.369  -0.161  0.00  0.00    +0.160 C 
ATOM     27  O   UNL     1       1.286   6.536  -0.222  0.00  0.00    -0.292 OA
ENDBRANCH   1  26
TORSDOF 4
