REMARK  Name = ZINC16460974
REMARK  10 active torsions:
REMARK  status: ('A' for Active; 'I' for Inactive)
REMARK    1  A    between atoms: C_1  and  C_2
REMARK    2  A    between atoms: C_2  and  C_3
REMARK    3  A    between atoms: C_3  and  N_4
REMARK    4  A    between atoms: C_5  and  C_7
REMARK    5  A    between atoms: C_10  and  C_12
REMARK    6  A    between atoms: C_12  and  S_13
REMARK    7  A    between atoms: S_13  and  C_14
REMARK    8  A    between atoms: C_17  and  C_26
REMARK    9  A    between atoms: N_18  and  C_19
REMARK   10  A    between atoms: C_24  and  C_25
REMARK                            x       y       z     vdW  Elec       q    Type
REMARK                         _______ _______ _______ _____ _____    ______ ____
ROOT
ATOM      1  C   UNL     1       1.761  -4.431  -1.454  0.00  0.00    +0.197 A 
ATOM      2  N   UNL     1       1.869  -5.023  -0.286  0.00  0.00    -0.122 NA
ATOM      3  N   UNL     1       2.076  -6.282  -0.444  0.00  0.00    -0.125 NA
ATOM      4  C   UNL     1       2.114  -6.574  -1.726  0.00  0.00    +0.205 A 
ATOM      5  N   UNL     1       1.907  -5.396  -2.414  0.00  0.00    -0.268 N 
ENDROOT
BRANCH   5   6
ATOM      6  C   UNL     1       1.859  -5.223  -3.804  0.00  0.00    +0.053 A 
ATOM      7  C   UNL     1       3.021  -4.942  -4.511  0.00  0.00    +0.026 A 
ATOM      8  C   UNL     1       2.970  -4.772  -5.880  0.00  0.00    +0.002 A 
ATOM      9  C   UNL     1       1.764  -4.883  -6.548  0.00  0.00    +0.000 A 
ATOM     10  C   UNL     1       0.606  -5.163  -5.848  0.00  0.00    +0.005 A 
ATOM     11  C   UNL     1       0.651  -5.339  -4.478  0.00  0.00    -0.026 A 
ATOM     12  C   UNL     1      -0.611  -5.650  -3.716  0.00  0.00    +0.046 C 
ENDBRANCH   5   6
BRANCH   4  13
ATOM     13  C   UNL     1       2.328  -7.905  -2.314  0.00  0.00    +0.172 A 
ATOM     14  C   UNL     1       2.247  -9.094  -1.654  0.00  0.00    +0.053 A 
ATOM     15  C   UNL     1       2.522 -10.102  -2.599  0.00  0.00    +0.042 A 
ATOM     16  C   UNL     1       2.763  -9.487  -3.774  0.00  0.00    +0.196 A 
ATOM     17  O   UNL     1       2.646  -8.160  -3.599  0.00  0.00    -0.460 OA
ENDBRANCH   4  13
BRANCH   1  18
ATOM     18  S   UNL     1       1.473  -2.715  -1.733  0.00  0.00    -0.079 S 
BRANCH  18  19
ATOM     19  C   UNL     1       1.391  -2.128  -0.022  0.00  0.00    +0.140 C 
BRANCH  19  23
ATOM     20  C   UNL     1      -0.016   1.330   0.009  0.00  0.00    +0.133 A 
ATOM     21  C   UNL     1       1.192   1.980   0.001  0.00  0.00    +0.080 A 
ATOM     22  S   UNL     1       2.303   0.648  -0.016  0.00  0.00    -0.079 S 
ATOM     23  C   UNL     1       1.144  -0.642  -0.012  0.00  0.00    +0.089 A 
ATOM     24  N   UNL     1       0.002  -0.004   0.002  0.00  0.00    -0.239 NA
BRANCH  20  26
ATOM     25  N   UNL     1      -2.458   1.411   0.022  0.00  0.00    -0.310 N 
ATOM     26  C   UNL     1      -1.286   2.076   0.019  0.00  0.00    +0.263 C 
ATOM     27  O   UNL     1      -1.276   3.292   0.026  0.00  0.00    -0.269 OA
ATOM     28  H   UNL     1      -2.466   0.441   0.017  0.00  0.00    +0.149 HD
BRANCH  25  29
ATOM     29  C   UNL     1      -3.721   2.154   0.032  0.00  0.00    +0.104 C 
BRANCH  29  31
ATOM     30  C   UNL     1      -6.210   1.944   0.043  0.00  0.00    +0.005 C 
ATOM     31  C   UNL     1      -4.892   1.169   0.033  0.00  0.00    +0.015 C 
ENDBRANCH  29  31
ENDBRANCH  25  29
ENDBRANCH  20  26
ENDBRANCH  19  23
ENDBRANCH  18  19
ENDBRANCH   1  18
TORSDOF 8
