REMARK  Name = ZINC00982047
REMARK  4 active torsions:
REMARK  status: ('A' for Active; 'I' for Inactive)
REMARK    1  A    between atoms: C_1  and  C_2
REMARK    2  A    between atoms: C_6  and  C_13
REMARK    3  A    between atoms: C_11  and  C_12
REMARK    4  A    between atoms: N_17  and  C_18
REMARK                            x       y       z     vdW  Elec       q    Type
REMARK                         _______ _______ _______ _____ _____    ______ ____
ROOT
ATOM      1  C   UNL     1      -0.799   1.490  -0.210  0.00  0.00    +0.044 C 
ATOM      2  C   UNL     1      -0.605  -0.004  -0.177  0.00  0.00    -0.046 A 
ATOM      3  C   UNL     1      -0.618  -0.726  -1.362  0.00  0.00    +0.004 A 
ATOM      4  C   UNL     1      -0.443  -2.082  -1.350  0.00  0.00    +0.011 A 
ATOM      5  C   UNL     1      -0.250  -2.744  -0.139  0.00  0.00    +0.011 A 
ATOM      6  C   UNL     1      -0.036  -4.153   0.233  0.00  0.00    +0.046 A 
ATOM      7  C   UNL     1       0.088  -4.183   1.586  0.00  0.00    +0.095 A 
ATOM      8  N   UNL     1      -0.029  -2.921   2.087  0.00  0.00    -0.360 N 
ATOM      9  H   UNL     1       0.025  -2.690   3.027  0.00  0.00    +0.165 HD
ATOM     10  C   UNL     1      -0.235  -2.020   1.064  0.00  0.00    +0.050 A 
ATOM     11  C   UNL     1      -0.410  -0.640   1.030  0.00  0.00    -0.024 A 
ATOM     12  C   UNL     1      -0.393   0.157   2.310  0.00  0.00    +0.046 C 
ENDROOT
BRANCH   6  13
ATOM     13  C   UNL     1       0.031  -5.308  -0.684  0.00  0.00    +0.189 A 
ATOM     14  N   UNL     1       0.730  -5.386  -1.800  0.00  0.00    -0.108 NA
ATOM     15  N   UNL     1       0.563  -6.531  -2.355  0.00  0.00    -0.022 NA
ATOM     16  N   UNL     1      -0.237  -7.262  -1.658  0.00  0.00    -0.039 NA
ATOM     17  N   UNL     1      -0.615  -6.502  -0.537  0.00  0.00    -0.193 N 
BRANCH  17  18
ATOM     18  C   UNL     1      -1.471  -6.886   0.504  0.00  0.00    +0.070 A 
ATOM     19  C   UNL     1      -2.416  -5.993   0.992  0.00  0.00    +0.029 A 
ATOM     20  C   UNL     1      -3.258  -6.373   2.018  0.00  0.00    +0.022 A 
ATOM     21  C   UNL     1      -3.161  -7.643   2.560  0.00  0.00    +0.041 A 
ATOM     22  C   UNL     1      -2.220  -8.535   2.075  0.00  0.00    +0.022 A 
ATOM     23  C   UNL     1      -1.380  -8.161   1.045  0.00  0.00    +0.029 A 
ATOM     24 CL   UNL     1      -4.221  -8.118   3.850  0.00  0.00    -0.084 Cl
ENDBRANCH  17  18
ENDBRANCH   6  13
TORSDOF 2
