REMARK  Name = ZINC57984510
REMARK  8 active torsions:
REMARK  status: ('A' for Active; 'I' for Inactive)
REMARK    1  A    between atoms: C_1  and  N_2
REMARK    2  A    between atoms: N_2  and  C_3
REMARK    3  A    between atoms: N_2  and  C_27
REMARK    4  A    between atoms: C_3  and  C_4
REMARK    5  A    between atoms: C_9  and  N_10
REMARK    6  A    between atoms: N_13  and  C_14
REMARK    7  A    between atoms: N_13  and  C_15
REMARK    8  A    between atoms: C_15  and  C_16
REMARK                            x       y       z     vdW  Elec       q    Type
REMARK                         _______ _______ _______ _____ _____    ______ ____
ROOT
ATOM      1  N   UNL     1      -1.552  -1.973   2.069  0.00  0.00    -0.269 N 
ATOM      2  C   UNL     1      -2.057  -3.060   2.686  0.00  0.00    +0.306 C 
ATOM      3  O   UNL     1      -2.255  -3.041   3.886  0.00  0.00    -0.252 OA
ATOM      4  N   UNL     1      -2.341  -4.168   1.974  0.00  0.00    -0.285 N 
ATOM      5  C   UNL     1      -2.103  -4.192   0.529  0.00  0.00    +0.133 C 
ATOM      6  H   UNL     1      -1.455  -1.965   1.104  0.00  0.00    +0.156 HD
ENDROOT
BRANCH   1  12
ATOM      7  C   UNL     1      -0.074  -0.098   2.430  0.00  0.00    -0.043 A 
ATOM      8  C   UNL     1       0.298   1.007   3.171  0.00  0.00    +0.003 A 
ATOM      9  C   UNL     1      -0.416   1.355   4.302  0.00  0.00    +0.000 A 
ATOM     10  C   UNL     1      -1.504   0.598   4.697  0.00  0.00    +0.002 A 
ATOM     11  C   UNL     1      -1.881  -0.508   3.961  0.00  0.00    +0.023 A 
ATOM     12  C   UNL     1      -1.170  -0.856   2.820  0.00  0.00    +0.036 A 
BRANCH   7  13
ATOM     13  C   UNL     1       0.705  -0.477   1.197  0.00  0.00    -0.041 C 
BRANCH  13  15
ATOM     14  C   UNL     1      -0.034   1.471   0.008  0.00  0.00    -0.095 C 
ATOM     15  N   UNL     1      -0.004   0.002   0.004  0.00  0.00    +0.382 N 
ATOM     16  H   UNL     1      -0.948  -0.354   0.008  0.00  0.00    -0.081 HD
BRANCH  15  17
ATOM     17  C   UNL     1       0.691  -0.469  -1.202  0.00  0.00    -0.069 C 
ATOM     18  C   UNL     1      -0.048   0.030  -2.445  0.00  0.00    -0.015 C 
ATOM     19  C   UNL     1       0.677  -0.462  -3.700  0.00  0.00    -0.002 C 
ATOM     20  C   UNL     1       0.708  -1.991  -3.705  0.00  0.00    -0.000 C 
ATOM     21  C   UNL     1       1.447  -2.490  -2.462  0.00  0.00    -0.002 C 
ATOM     22  C   UNL     1       0.723  -1.999  -1.206  0.00  0.00    -0.015 C 
ENDBRANCH  15  17
ENDBRANCH  13  15
ENDBRANCH   7  13
ENDBRANCH   1  12
BRANCH   4  23
ATOM     23  C   UNL     1      -2.890  -5.349   2.645  0.00  0.00    +0.157 C 
BRANCH  23  24
ATOM     24  C   UNL     1      -4.418  -5.270   2.650  0.00  0.00    +0.228 C 
ATOM     25  C   UNL     1      -4.995  -6.448   3.447  0.00  0.00    +0.275 C 
ATOM     26  O   UNL     1      -6.423  -6.351   3.420  0.00  0.00    -0.485 OA
ATOM     27  C   UNL     1      -6.995  -6.098   2.211  0.00  0.00    +0.162 A 
ATOM     28  C   UNL     1      -8.348  -6.346   2.033  0.00  0.00    +0.049 A 
ATOM     29  C   UNL     1      -8.944  -6.090   0.813  0.00  0.00    +0.004 A 
ATOM     30  C   UNL     1      -8.194  -5.587  -0.234  0.00  0.00    +0.004 A 
ATOM     31  C   UNL     1      -6.846  -5.339  -0.064  0.00  0.00    +0.049 A 
ATOM     32  C   UNL     1      -6.241  -5.595   1.158  0.00  0.00    +0.163 A 
ATOM     33  O   UNL     1      -4.910  -5.352   1.308  0.00  0.00    -0.480 OA
ENDBRANCH  23  24
ENDBRANCH   4  23
TORSDOF 6
