REMARK  Name = ZINC09367361
REMARK  9 active torsions:
REMARK  status: ('A' for Active; 'I' for Inactive)
REMARK    1  A    between atoms: C_1  and  C_2
REMARK    2  A    between atoms: C_2  and  N_3
REMARK    3  A    between atoms: C_7  and  S_26
REMARK    4  A    between atoms: C_11  and  S_12
REMARK    5  A    between atoms: S_12  and  C_13
REMARK    6  A    between atoms: C_13  and  C_14
REMARK    7  A    between atoms: C_16  and  C_19
REMARK    8  A    between atoms: C_24  and  C_25
REMARK    9  A    between atoms: S_26  and  N_29
REMARK                            x       y       z     vdW  Elec       q    Type
REMARK                         _______ _______ _______ _____ _____    ______ ____
ROOT
ATOM      1  N   UNL     1      -3.909   4.095   2.434  0.00  0.00    -0.319 N 
ATOM      2  C   UNL     1      -4.912   4.816   1.807  0.00  0.00    +0.070 A 
ATOM      3  C   UNL     1      -5.976   5.579   2.263  0.00  0.00    +0.030 A 
ATOM      4  C   UNL     1      -6.822   6.188   1.359  0.00  0.00    +0.030 A 
ATOM      5  C   UNL     1      -6.616   6.042  -0.005  0.00  0.00    +0.107 A 
ATOM      6  C   UNL     1      -5.565   5.288  -0.475  0.00  0.00    +0.058 A 
ATOM      7  C   UNL     1      -4.699   4.665   0.427  0.00  0.00    +0.092 A 
ATOM      8  N   UNL     1      -3.598   3.882   0.276  0.00  0.00    -0.222 NA
ATOM      9  C   UNL     1      -3.135   3.541   1.453  0.00  0.00    +0.170 A 
ENDROOT
BRANCH   5  10
ATOM     10  S   UNL     1      -7.707   6.828  -1.143  0.00  0.00    +0.056 S 
ATOM     11  O   UNL     1      -7.626   6.093  -2.357  0.00  0.00    -0.153 OA
ATOM     12  O   UNL     1      -8.934   7.030  -0.456  0.00  0.00    -0.153 OA
BRANCH  10  13
ATOM     13  N   UNL     1      -7.088   8.331  -1.457  0.00  0.00    -0.204 NA
ATOM     14  H   UNL     1      -6.264   8.615  -1.031  0.00  0.00    +0.144 HD
ATOM     15  H   UNL     1      -7.548   8.927  -2.068  0.00  0.00    +0.144 HD
ENDBRANCH  10  13
ENDBRANCH   5  10
BRANCH   1  17
ATOM     16  C   UNL     1      -2.805   5.076   4.383  0.00  0.00    +0.027 C 
ATOM     17  C   UNL     1      -3.714   3.953   3.879  0.00  0.00    +0.121 C 
ENDBRANCH   1  17
BRANCH   9  18
ATOM     18  S   UNL     1      -1.722   2.526   1.731  0.00  0.00    -0.078 S 
BRANCH  18  19
ATOM     19  C   UNL     1      -1.240   2.184   0.020  0.00  0.00    +0.176 C 
BRANCH  19  20
ATOM     20  C   UNL     1      -0.016   1.306   0.009  0.00  0.00    +0.238 A 
ATOM     21  N   UNL     1       0.002  -0.004   0.002  0.00  0.00    -0.191 NA
ATOM     22  C   UNL     1       1.309  -0.349  -0.012  0.00  0.00    +0.202 A 
ATOM     23  N   UNL     1       2.002   0.760  -0.013  0.00  0.00    -0.056 NA
ATOM     24  O   UNL     1       1.256   1.716  -0.001  0.00  0.00    -0.337 OA
BRANCH  22  25
ATOM     25  C   UNL     1       1.856  -1.729  -0.025  0.00  0.00    +0.025 A 
ATOM     26  C   UNL     1       0.993  -2.823  -0.016  0.00  0.00    +0.012 A 
ATOM     27  C   UNL     1       1.507  -4.104  -0.033  0.00  0.00    +0.001 A 
ATOM     28  C   UNL     1       2.876  -4.303  -0.047  0.00  0.00    +0.000 A 
ATOM     29  C   UNL     1       3.737  -3.221  -0.050  0.00  0.00    +0.004 A 
ATOM     30  C   UNL     1       3.234  -1.935  -0.039  0.00  0.00    -0.040 A 
ATOM     31  C   UNL     1       4.173  -0.757  -0.042  0.00  0.00    +0.044 C 
ENDBRANCH  22  25
ENDBRANCH  19  20
ENDBRANCH  18  19
ENDBRANCH   9  18
TORSDOF 7
