REMARK  Name = ZINC06844056
REMARK  10 active torsions:
REMARK  status: ('A' for Active; 'I' for Inactive)
REMARK    1  A    between atoms: C_1  and  C_2
REMARK    2  A    between atoms: C_2  and  C_3
REMARK    3  A    between atoms: C_9  and  C_21
REMARK    4  A    between atoms: C_12  and  C_14
REMARK    5  A    between atoms: C_24  and  O_30
REMARK    6  A    between atoms: C_25  and  O_27
REMARK    7  A    between atoms: O_27  and  C_28
REMARK    8  A    between atoms: C_28  and  C_29
REMARK    9  A    between atoms: O_30  and  C_31
REMARK   10  A    between atoms: C_31  and  C_32
REMARK                            x       y       z     vdW  Elec       q    Type
REMARK                         _______ _______ _______ _____ _____    ______ ____
ROOT
ATOM      1  C   UNL     1       0.420  -0.050  -0.600  0.00  0.00    -0.047 A 
ATOM      2  C   UNL     1       1.691  -0.592  -0.596  0.00  0.00    +0.005 A 
ATOM      3  C   UNL     1       2.789   0.222  -0.397  0.00  0.00    +0.024 A 
ATOM      4  C   UNL     1       2.631   1.598  -0.196  0.00  0.00    +0.042 A 
ATOM      5  C   UNL     1       1.342   2.143  -0.194  0.00  0.00    +0.024 A 
ATOM      6  C   UNL     1       0.244   1.306  -0.401  0.00  0.00    +0.015 A 
ATOM      7  C   UNL     1       1.073   3.583   0.023  0.00  0.00    +0.100 C 
ATOM      8  N   UNL     1       1.730   4.305   0.871  0.00  0.00    -0.172 NA
ATOM      9  N   UNL     1       2.820   3.774   1.573  0.00  0.00    -0.263 N 
ATOM     10  C   UNL     1       3.894   3.306   0.835  0.00  0.00    +0.124 C 
ATOM     11  N   UNL     1       3.766   2.335  -0.014  0.00  0.00    -0.299 N 
ATOM     12  H   UNL     1       2.842   3.720   2.671  0.00  0.00    +0.190 HD
ATOM     13  H   UNL     1       4.664   2.120  -0.613  0.00  0.00    +0.154 HD
ENDROOT
BRANCH  10  14
ATOM     14  C   UNL     1       5.219   3.929   1.021  0.00  0.00    +0.015 A 
ATOM     15  C   UNL     1       6.319   3.470   0.292  0.00  0.00    +0.012 A 
ATOM     16  C   UNL     1       7.553   4.060   0.466  0.00  0.00    +0.016 A 
ATOM     17  C   UNL     1       7.706   5.099   1.369  0.00  0.00    +0.018 A 
ATOM     18  C   UNL     1       6.621   5.555   2.099  0.00  0.00    +0.016 A 
ATOM     19  C   UNL     1       5.380   4.978   1.931  0.00  0.00    +0.012 A 
ATOM     20 BR   UNL     1       9.403   5.897   1.607  0.00  0.00    -0.050 Br
ENDBRANCH  10  14
BRANCH   7  21
ATOM     21  C   UNL     1       0.003   4.226  -0.769  0.00  0.00    +0.006 A 
ATOM     22  C   UNL     1      -0.385   3.681  -1.994  0.00  0.00    +0.014 A 
ATOM     23  C   UNL     1      -1.388   4.278  -2.729  0.00  0.00    +0.050 A 
ATOM     24  C   UNL     1      -2.005   5.428  -2.259  0.00  0.00    +0.162 A 
ATOM     25  C   UNL     1      -1.619   5.981  -1.040  0.00  0.00    +0.163 A 
ATOM     26  C   UNL     1      -0.618   5.384  -0.296  0.00  0.00    +0.059 A 
BRANCH  25  27
ATOM     27  O   UNL     1      -2.226   7.109  -0.582  0.00  0.00    -0.489 OA
BRANCH  27  28
ATOM     28  C   UNL     1      -1.780   7.620   0.676  0.00  0.00    +0.226 C 
ATOM     29  C   UNL     1      -2.573   8.882   1.023  0.00  0.00    +0.048 C 
ENDBRANCH  27  28
ENDBRANCH  25  27
BRANCH  24  30
ATOM     30  O   UNL     1      -2.988   6.017  -2.990  0.00  0.00    -0.489 OA
BRANCH  30  31
ATOM     31  C   UNL     1      -3.335   5.398  -4.230  0.00  0.00    +0.226 C 
ATOM     32  C   UNL     1      -4.451   6.197  -4.905  0.00  0.00    +0.048 C 
ENDBRANCH  30  31
ENDBRANCH  24  30
ENDBRANCH   7  21
BRANCH   1  34
ATOM     33  C   UNL     1      -1.083  -1.020  -2.318  0.00  0.00    +0.009 C 
ATOM     34  C   UNL     1      -0.777  -0.940  -0.821  0.00  0.00    +0.032 C 
ENDBRANCH   1  34
TORSDOF 7
