REMARK  Name = ZINC09713033
REMARK  7 active torsions:
REMARK  status: ('A' for Active; 'I' for Inactive)
REMARK    1  A    between atoms: C_1  and  C_2
REMARK    2  A    between atoms: C_2  and  C_3
REMARK    3  A    between atoms: C_3  and  C_4
REMARK    4  A    between atoms: C_3  and  C_6
REMARK    5  A    between atoms: C_4  and  C_5
REMARK    6  A    between atoms: C_12  and  C_14
REMARK    7  A    between atoms: C_18  and  N_20
REMARK                            x       y       z     vdW  Elec       q    Type
REMARK                         _______ _______ _______ _____ _____    ______ ____
ROOT
ATOM      1  C   UNL     1      -4.804   1.871   0.030  0.00  0.00    +0.039 A 
ATOM      2  C   UNL     1      -5.021   0.491   0.023  0.00  0.00    +0.013 A 
ATOM      3  C   UNL     1      -3.948  -0.376   0.013  0.00  0.00    +0.003 A 
ATOM      4  C   UNL     1      -2.656   0.117   0.006  0.00  0.00    +0.024 A 
ATOM      5  C   UNL     1      -2.429   1.487   0.020  0.00  0.00    +0.045 A 
ATOM      6  C   UNL     1      -3.500   2.367   0.029  0.00  0.00    +0.037 A 
ENDROOT
BRANCH   5   7
ATOM      7  N   UNL     1      -1.117   1.980   0.018  0.00  0.00    -0.202 N 
ATOM      8  C   UNL     1      -0.014   1.210   0.009  0.00  0.00    +0.258 C 
ATOM      9  O   UNL     1       0.002  -0.004   0.002  0.00  0.00    -0.269 OA
ATOM     10  C   UNL     1       1.174   2.089   0.002  0.00  0.00    +0.050 A 
ATOM     11  C   UNL     1       2.542   1.867  -0.012  0.00  0.00    +0.014 A 
ATOM     12  C   UNL     1       3.413   2.946  -0.015  0.00  0.00    +0.001 A 
ATOM     13  C   UNL     1       2.926   4.240  -0.004  0.00  0.00    +0.001 A 
ATOM     14  C   UNL     1       1.560   4.477   0.011  0.00  0.00    +0.014 A 
ATOM     15  C   UNL     1       0.678   3.409   0.014  0.00  0.00    +0.050 A 
ATOM     16  C   UNL     1      -0.795   3.287   0.027  0.00  0.00    +0.258 C 
ATOM     17  O   UNL     1      -1.583   4.211   0.040  0.00  0.00    -0.269 OA
ENDBRANCH   5   7
BRANCH   1  24
ATOM     18  C   UNL     1     -10.570   4.571   0.065  0.00  0.00    +0.107 A 
ATOM     19  N   UNL     1      -9.395   5.169   0.065  0.00  0.00    -0.144 NA
ATOM     20  N   UNL     1      -8.312   4.522   0.058  0.00  0.00    -0.126 NA
ATOM     21  C   UNL     1      -8.290   3.196   0.050  0.00  0.00    +0.188 A 
ATOM     22  S   UNL     1     -10.048   2.858   0.047  0.00  0.00    -0.035 S 
ATOM     23  N   UNL     1      -7.210   2.321   0.042  0.00  0.00    -0.259 N 
ATOM     24  C   UNL     1      -5.952   2.802   0.040  0.00  0.00    +0.250 C 
ATOM     25  O   UNL     1      -5.760   4.003   0.046  0.00  0.00    -0.270 OA
ATOM     26  H   UNL     1      -7.363   1.363   0.036  0.00  0.00    +0.157 HD
BRANCH  18  27
ATOM     27  C   UNL     1     -11.957   5.160   0.073  0.00  0.00    +0.046 C 
BRANCH  27  29
ATOM     28  C   UNL     1     -13.586   6.513   1.399  0.00  0.00    +0.004 C 
ATOM     29  C   UNL     1     -12.140   6.016   1.328  0.00  0.00    +0.007 C 
ENDBRANCH  27  29
BRANCH  27  30
ATOM     30  C   UNL     1     -12.148   6.031  -1.171  0.00  0.00    +0.007 C 
ATOM     31  C   UNL     1     -12.088   5.153  -2.422  0.00  0.00    +0.004 C 
ENDBRANCH  27  30
ENDBRANCH  18  27
ENDBRANCH   1  24
TORSDOF 5
