REMARK  Name = ZINC35343183
REMARK  11 active torsions:
REMARK  status: ('A' for Active; 'I' for Inactive)
REMARK    1  A    between atoms: C_1  and  C_2
REMARK    2  A    between atoms: C_2  and  C_3
REMARK    3  A    between atoms: C_2  and  C_4
REMARK    4  A    between atoms: C_2  and  N_5
REMARK    5  A    between atoms: C_6  and  C_8
REMARK    6  A    between atoms: C_11  and  C_13
REMARK    7  A    between atoms: C_13  and  S_14
REMARK    8  A    between atoms: S_14  and  C_15
REMARK    9  A    between atoms: C_18  and  C_27
REMARK   10  A    between atoms: N_19  and  C_20
REMARK   11  A    between atoms: C_27  and  C_28
REMARK                            x       y       z     vdW  Elec       q    Type
REMARK                         _______ _______ _______ _____ _____    ______ ____
ROOT
ATOM      1  C   UNL     1       1.128  -3.262  -8.193  0.00  0.00    +0.197 A 
ATOM      2  N   UNL     1       1.243  -4.563  -8.330  0.00  0.00    -0.122 NA
ATOM      3  N   UNL     1       0.717  -4.935  -9.442  0.00  0.00    -0.133 NA
ATOM      4  C   UNL     1       0.238  -3.904 -10.078  0.00  0.00    +0.143 A 
ATOM      5  N   UNL     1       0.477  -2.800  -9.303  0.00  0.00    -0.274 N 
ENDROOT
BRANCH   5   6
ATOM      6  C   UNL     1       0.129  -1.472  -9.590  0.00  0.00    +0.052 A 
ATOM      7  C   UNL     1      -1.207  -1.095  -9.624  0.00  0.00    +0.026 A 
ATOM      8  C   UNL     1      -1.548   0.214  -9.907  0.00  0.00    +0.003 A 
ATOM      9  C   UNL     1      -0.559   1.148 -10.156  0.00  0.00    +0.020 A 
ATOM     10  C   UNL     1       0.773   0.776 -10.123  0.00  0.00    +0.043 A 
ATOM     11  C   UNL     1       1.119  -0.531  -9.835  0.00  0.00    +0.046 A 
ATOM     12 CL   UNL     1       2.010   1.952 -10.438  0.00  0.00    -0.083 Cl
ENDBRANCH   5   6
BRANCH   1  13
ATOM     13  S   UNL     1       1.699  -2.297  -6.834  0.00  0.00    -0.079 S 
BRANCH  13  14
ATOM     14  C   UNL     1       2.462  -3.511  -5.723  0.00  0.00    +0.140 C 
BRANCH  14  18
ATOM     15  C   UNL     1       3.050  -1.921  -2.415  0.00  0.00    +0.133 A 
ATOM     16  C   UNL     1       4.340  -1.570  -2.708  0.00  0.00    +0.080 A 
ATOM     17  S   UNL     1       4.526  -2.151  -4.274  0.00  0.00    -0.079 S 
ATOM     18  C   UNL     1       2.998  -2.807  -4.503  0.00  0.00    +0.089 A 
ATOM     19  N   UNL     1       2.385  -2.571  -3.375  0.00  0.00    -0.239 NA
BRANCH  15  21
ATOM     20  N   UNL     1       1.161  -1.977  -0.866  0.00  0.00    -0.305 N 
ATOM     21  C   UNL     1       2.433  -1.608  -1.115  0.00  0.00    +0.263 C 
ATOM     22  O   UNL     1       3.072  -1.015  -0.266  0.00  0.00    -0.268 OA
ATOM     23  H   UNL     1       0.652  -2.449  -1.543  0.00  0.00    +0.150 HD
BRANCH  20  25
ATOM     24  C   UNL     1       0.540  -0.149   0.636  0.00  0.00    +0.031 C 
ATOM     25  C   UNL     1       0.548  -1.665   0.427  0.00  0.00    +0.027 C 
ATOM     26  C   UNL     1       1.351  -2.330   1.547  0.00  0.00    +0.031 C 
ATOM     27  C   UNL     1      -0.889  -2.190   0.450  0.00  0.00    +0.031 C 
ENDBRANCH  20  25
ENDBRANCH  15  21
ENDBRANCH  14  18
ENDBRANCH  13  14
ENDBRANCH   1  13
BRANCH   4  28
ATOM     28  C   UNL     1      -0.456  -3.923 -11.416  0.00  0.00    +0.111 C 
BRANCH  28  29
ATOM     29  C   UNL     1       0.573  -3.872 -12.516  0.00  0.00    -0.040 A 
ATOM     30  C   UNL     1       0.920  -2.659 -13.081  0.00  0.00    +0.004 A 
ATOM     31  C   UNL     1       1.863  -2.612 -14.091  0.00  0.00    +0.000 A 
ATOM     32  C   UNL     1       2.460  -3.777 -14.534  0.00  0.00    +0.000 A 
ATOM     33  C   UNL     1       2.113  -4.990 -13.968  0.00  0.00    +0.000 A 
ATOM     34  C   UNL     1       1.173  -5.037 -12.956  0.00  0.00    +0.004 A 
ENDBRANCH  28  29
ENDBRANCH   4  28
TORSDOF 8
