REMARK  Name = ZINC39693991
REMARK  10 active torsions:
REMARK  status: ('A' for Active; 'I' for Inactive)
REMARK    1  A    between atoms: C_1  and  N_2
REMARK    2  A    between atoms: N_5  and  C_8
REMARK    3  A    between atoms: C_11  and  C_14
REMARK    4  A    between atoms: C_14  and  N_15
REMARK    5  A    between atoms: C_16  and  C_18
REMARK    6  A    between atoms: C_29  and  C_31
REMARK    7  A    between atoms: C_31  and  C_32
REMARK    8  A    between atoms: C_32  and  C_33
REMARK    9  A    between atoms: C_36  and  O_39
REMARK   10  A    between atoms: O_39  and  C_40
REMARK                            x       y       z     vdW  Elec       q    Type
REMARK                         _______ _______ _______ _____ _____    ______ ____
ROOT
ATOM      1  C   UNL     1       8.991  -6.416  -0.128  0.00  0.00    +0.100 C 
ATOM      2  C   UNL     1       9.308  -5.699   1.203  0.00  0.00    +0.121 C 
ATOM      3  N   UNL     1       9.950  -6.736   2.044  0.00  0.00    -0.300 N 
ATOM      4  C   UNL     1      10.815  -7.489   1.104  0.00  0.00    +0.115 C 
ATOM      5  C   UNL     1       9.984  -7.588  -0.191  0.00  0.00    -0.004 C 
ATOM      6  C   UNL     1      10.890  -7.449  -1.411  0.00  0.00    -0.010 C 
ATOM      7  C   UNL     1      11.830  -8.655  -1.484  0.00  0.00    -0.082 C 
ATOM      8  N   UNL     1      11.039  -9.889  -1.576  0.00  0.00    +0.379 N 
ATOM      9  C   UNL     1      10.240 -10.063  -0.357  0.00  0.00    -0.082 C 
ATOM     10  C   UNL     1       9.233  -8.916  -0.235  0.00  0.00    -0.010 C 
ATOM     11  C   UNL     1       9.786  -6.947   3.365  0.00  0.00    +0.216 C 
ATOM     12  O   UNL     1      10.387  -7.845   3.915  0.00  0.00    -0.276 OA
ATOM     13  H   UNL     1      10.424  -9.834  -2.374  0.00  0.00    -0.086 HD
ATOM     14  H   UNL     1      11.659 -10.677  -1.686  0.00  0.00    -0.086 HD
ENDROOT
BRANCH   1  16
ATOM     15  N   UNL     1       6.951  -7.199  -1.288  0.00  0.00    -0.311 N 
ATOM     16  C   UNL     1       7.574  -6.929  -0.123  0.00  0.00    +0.218 C 
ATOM     17  O   UNL     1       6.994  -7.099   0.928  0.00  0.00    -0.275 OA
ATOM     18  H   UNL     1       7.415  -7.062  -2.129  0.00  0.00    +0.149 HD
BRANCH  15  19
ATOM     19  C   UNL     1       5.574  -7.697  -1.283  0.00  0.00    +0.139 C 
BRANCH  19  23
ATOM     20  C   UNL     1       4.270  -8.321  -5.306  0.00  0.00    +0.030 A 
ATOM     21  C   UNL     1       4.891  -9.349  -4.608  0.00  0.00    +0.023 A 
ATOM     22  C   UNL     1       5.312  -9.144  -3.308  0.00  0.00    +0.007 A 
ATOM     23  C   UNL     1       5.114  -7.917  -2.702  0.00  0.00    -0.030 A 
ATOM     24  C   UNL     1       4.496  -6.891  -3.393  0.00  0.00    +0.007 A 
ATOM     25  C   UNL     1       4.078  -7.088  -4.695  0.00  0.00    +0.023 A 
BRANCH  20  30
ATOM     26  C   UNL     1       1.043  -9.846  -9.434  0.00  0.00    -0.096 C 
ATOM     27  N   UNL     1       2.229  -9.289  -8.769  0.00  0.00    +0.380 N 
ATOM     28  C   UNL     1       1.829  -8.146  -7.939  0.00  0.00    -0.060 C 
ATOM     29  C   UNL     1       3.078  -7.493  -7.336  0.00  0.00    +0.086 C 
ATOM     30  N   UNL     1       3.844  -8.525  -6.620  0.00  0.00    -0.333 N 
ATOM     31  C   UNL     1       4.148  -9.778  -7.328  0.00  0.00    +0.086 C 
ATOM     32  C   UNL     1       2.849 -10.323  -7.931  0.00  0.00    -0.060 C 
ATOM     33  H   UNL     1       2.890  -8.980  -9.466  0.00  0.00    -0.082 HD
ENDBRANCH  20  30
ENDBRANCH  19  23
ENDBRANCH  15  19
ENDBRANCH   1  16
BRANCH  11  34
ATOM     34  C   UNL     1       8.854  -6.068   4.159  0.00  0.00    +0.100 C 
BRANCH  34  35
ATOM     35  C   UNL     1       8.851  -6.517   5.621  0.00  0.00    +0.044 C 
BRANCH  35  36
ATOM     36  C   UNL     1       7.919  -5.638   6.415  0.00  0.00    -0.047 A 
ATOM     37  C   UNL     1       8.396  -4.482   7.006  0.00  0.00    +0.007 A 
ATOM     38  C   UNL     1       7.545  -3.675   7.734  0.00  0.00    +0.046 A 
ATOM     39  C   UNL     1       6.209  -4.023   7.872  0.00  0.00    +0.120 A 
ATOM     40  C   UNL     1       5.732  -5.183   7.277  0.00  0.00    +0.046 A 
ATOM     41  C   UNL     1       6.587  -5.984   6.546  0.00  0.00    +0.007 A 
BRANCH  39  42
ATOM     42  O   UNL     1       5.369  -3.231   8.588  0.00  0.00    -0.495 OA
ATOM     43  C   UNL     1       4.007  -3.651   8.687  0.00  0.00    +0.277 C 
ENDBRANCH  39  42
ENDBRANCH  35  36
ENDBRANCH  34  35
ENDBRANCH  11  34
TORSDOF 8
