REMARK  Name = ZINC33264362
REMARK  10 active torsions:
REMARK  status: ('A' for Active; 'I' for Inactive)
REMARK    1  A    between atoms: C_1  and  C_2
REMARK    2  A    between atoms: C_5  and  C_9
REMARK    3  A    between atoms: C_6  and  C_8
REMARK    4  A    between atoms: C_9  and  C_11
REMARK    5  A    between atoms: C_9  and  N_12
REMARK    6  A    between atoms: C_13  and  C_15
REMARK    7  A    between atoms: C_19  and  C_21
REMARK    8  A    between atoms: N_30  and  C_31
REMARK    9  A    between atoms: C_31  and  C_32
REMARK   10  A    between atoms: C_31  and  C_33
REMARK                            x       y       z     vdW  Elec       q    Type
REMARK                         _______ _______ _______ _____ _____    ______ ____
ROOT
ATOM      1  C   UNL     1      -7.358  -0.483  -5.534  0.00  0.00    +0.037 A 
ATOM      2  C   UNL     1      -7.628  -1.824  -5.810  0.00  0.00    +0.013 A 
ATOM      3  C   UNL     1      -7.170  -2.807  -4.957  0.00  0.00    +0.001 A 
ATOM      4  C   UNL     1      -6.440  -2.465  -3.832  0.00  0.00    +0.004 A 
ATOM      5  C   UNL     1      -6.173  -1.137  -3.550  0.00  0.00    -0.042 A 
ATOM      6  C   UNL     1      -6.626  -0.145  -4.395  0.00  0.00    +0.017 A 
ENDROOT
BRANCH   5   7
ATOM      7  C   UNL     1      -5.383  -0.774  -2.319  0.00  0.00    +0.036 C 
ATOM      8  C   UNL     1      -6.119  -1.272  -1.073  0.00  0.00    +0.011 C 
ATOM      9  C   UNL     1      -5.333  -0.875   0.178  0.00  0.00    +0.020 C 
ATOM     10  C   UNL     1      -3.950  -1.533   0.139  0.00  0.00    +0.109 C 
ATOM     11  N   UNL     1      -3.292  -1.175  -1.125  0.00  0.00    -0.285 N 
ATOM     12  C   UNL     1      -4.003  -1.426  -2.387  0.00  0.00    +0.117 C 
ATOM     13  C   UNL     1      -2.063  -0.622  -1.127  0.00  0.00    +0.302 C 
ATOM     14  O   UNL     1      -1.571  -0.240  -2.171  0.00  0.00    -0.253 OA
ATOM     15  N   UNL     1      -1.381  -0.493   0.028  0.00  0.00    -0.297 N 
ATOM     16  H   UNL     1      -1.857  -0.763   0.981  0.00  0.00    +0.150 HD
BRANCH  15  17
ATOM     17  C   UNL     1      -0.004   0.007   0.013  0.00  0.00    +0.068 C 
ATOM     18  C   UNL     1      -0.017   1.537   0.020  0.00  0.00    +0.027 C 
ATOM     19  C   UNL     1       0.738  -0.503   1.250  0.00  0.00    +0.027 C 
ENDBRANCH  15  17
ENDBRANCH   5   7
BRANCH   1  21
ATOM     20  N   UNL     1      -8.553   0.246  -7.543  0.00  0.00    -0.305 N 
ATOM     21  C   UNL     1      -7.846   0.576  -6.444  0.00  0.00    +0.245 C 
ATOM     22  O   UNL     1      -7.610   1.743  -6.200  0.00  0.00    -0.270 OA
ATOM     23  H   UNL     1      -8.767  -0.810  -7.763  0.00  0.00    +0.150 HD
BRANCH  20  24
ATOM     24  C   UNL     1      -9.037   1.295  -8.444  0.00  0.00    +0.101 C 
ATOM     25  C   UNL     1      -7.980   1.574  -9.515  0.00  0.00    +0.033 C 
BRANCH  24  30
ATOM     26  C   UNL     1     -13.930  -0.447 -10.976  0.00  0.00    +0.044 C 
ATOM     27  C   UNL     1     -12.654   0.007 -10.316  0.00  0.00    -0.050 A 
ATOM     28  C   UNL     1     -11.744  -0.926  -9.855  0.00  0.00    +0.004 A 
ATOM     29  C   UNL     1     -10.571  -0.509  -9.254  0.00  0.00    +0.006 A 
ATOM     30  C   UNL     1     -10.313   0.841  -9.104  0.00  0.00    -0.025 A 
ATOM     31  C   UNL     1     -11.223   1.774  -9.564  0.00  0.00    -0.045 A 
ATOM     32  C   UNL     1     -12.394   1.357 -10.170  0.00  0.00    +0.007 A 
ATOM     33  C   UNL     1     -10.939   3.245  -9.406  0.00  0.00    +0.044 C 
ENDBRANCH  24  30
ENDBRANCH  20  24
ENDBRANCH   1  21
TORSDOF 5
