REMARK  Name = ZINC41006597
REMARK  12 active torsions:
REMARK  status: ('A' for Active; 'I' for Inactive)
REMARK    1  A    between atoms: C_1  and  C_2
REMARK    2  A    between atoms: C_7  and  N_8
REMARK    3  A    between atoms: C_9  and  C_11
REMARK    4  A    between atoms: C_13  and  C_33
REMARK    5  A    between atoms: C_15  and  C_23
REMARK    6  A    between atoms: C_17  and  C_21
REMARK    7  A    between atoms: C_17  and  O_22
REMARK    8  A    between atoms: N_25  and  C_26
REMARK    9  A    between atoms: C_31  and  C_32
REMARK   10  A    between atoms: C_36  and  C_39
REMARK   11  A    between atoms: C_39  and  O_41
REMARK   12  A    between atoms: O_41  and  C_42
REMARK                            x       y       z     vdW  Elec       q    Type
REMARK                         _______ _______ _______ _____ _____    ______ ____
ROOT
ATOM      1  C   UNL     1      -0.388   0.041   4.535  0.00  0.00    +0.149 C 
ATOM      2  C   UNL     1      -0.350  -1.121   5.533  0.00  0.00    +0.053 C 
ATOM      3  C   UNL     1       1.064  -1.701   5.585  0.00  0.00    +0.115 C 
ATOM      4  C   UNL     1       2.038  -0.646   6.115  0.00  0.00    +0.082 C 
ATOM      5  C   UNL     1       2.090   0.534   5.139  0.00  0.00    +0.110 C 
ATOM      6  C   UNL     1       0.679   1.043   4.918  0.00  0.00    +0.148 C 
ATOM      7  O   UNL     1       0.411   2.214   5.046  0.00  0.00    -0.296 OA
ATOM      8  C   UNL     1       1.563  -0.156   7.484  0.00  0.00    +0.042 C 
ENDROOT
BRANCH   2   9
ATOM      9  C   UNL     1      -1.316  -2.191   5.094  0.00  0.00    -0.042 A 
ATOM     10  C   UNL     1      -2.650  -2.104   5.452  0.00  0.00    +0.005 A 
ATOM     11  C   UNL     1      -3.540  -3.080   5.054  0.00  0.00    +0.015 A 
ATOM     12  C   UNL     1      -3.092  -4.158   4.288  0.00  0.00    +0.059 A 
ATOM     13  C   UNL     1      -1.745  -4.240   3.930  0.00  0.00    +0.015 A 
ATOM     14  C   UNL     1      -0.867  -3.254   4.330  0.00  0.00    +0.005 A 
BRANCH  12  15
ATOM     15  C   UNL     1      -4.039  -5.207   3.858  0.00  0.00    +0.339 C 
ATOM     16  O   UNL     1      -5.210  -5.134   4.172  0.00  0.00    -0.245 OA
BRANCH  15  17
ATOM     17  O   UNL     1      -3.603  -6.246   3.119  0.00  0.00    -0.464 OA
ATOM     18  C   UNL     1      -4.574  -7.224   2.739  0.00  0.00    +0.280 C 
ENDBRANCH  15  17
ENDBRANCH  12  15
ENDBRANCH   2   9
BRANCH   1  20
ATOM     19  N   UNL     1      -1.135  -0.609   2.269  0.00  0.00    -0.285 N 
ATOM     20  C   UNL     1      -0.120  -0.476   3.145  0.00  0.00    +0.228 C 
ATOM     21  O   UNL     1       1.009  -0.773   2.815  0.00  0.00    -0.275 OA
ATOM     22  H   UNL     1      -2.024  -0.300   2.505  0.00  0.00    +0.155 HD
BRANCH  19  29
ATOM     23  C   UNL     1      -3.267  -2.047   1.049  0.00  0.00    +0.045 C 
ATOM     24  C   UNL     1      -1.920  -1.904   0.387  0.00  0.00    -0.029 A 
ATOM     25  C   UNL     1      -1.694  -2.474  -0.851  0.00  0.00    +0.005 A 
ATOM     26  C   UNL     1      -0.460  -2.343  -1.458  0.00  0.00    +0.000 A 
ATOM     27  C   UNL     1       0.553  -1.641  -0.831  0.00  0.00    +0.002 A 
ATOM     28  C   UNL     1       0.333  -1.067   0.406  0.00  0.00    +0.023 A 
ATOM     29  C   UNL     1      -0.908  -1.193   1.018  0.00  0.00    +0.036 A 
ENDBRANCH  19  29
ENDBRANCH   1  20
BRANCH   3  30
ATOM     30  C   UNL     1       1.081  -2.900   6.498  0.00  0.00    +0.224 C 
ATOM     31  O   UNL     1       0.062  -3.254   7.052  0.00  0.00    -0.275 OA
ATOM     32  N   UNL     1       2.228  -3.577   6.699  0.00  0.00    -0.285 N 
ATOM     33  H   UNL     1       3.061  -3.243   6.330  0.00  0.00    +0.155 HD
BRANCH  32  34
ATOM     34  C   UNL     1       2.219  -4.764   7.441  0.00  0.00    +0.036 A 
ATOM     35  C   UNL     1       1.385  -4.888   8.544  0.00  0.00    +0.023 A 
ATOM     36  C   UNL     1       1.378  -6.060   9.274  0.00  0.00    +0.002 A 
ATOM     37  C   UNL     1       2.202  -7.109   8.909  0.00  0.00    +0.000 A 
ATOM     38  C   UNL     1       3.034  -6.988   7.811  0.00  0.00    +0.005 A 
ATOM     39  C   UNL     1       3.041  -5.821   7.073  0.00  0.00    -0.029 A 
ATOM     40  C   UNL     1       3.943  -5.693   5.872  0.00  0.00    +0.045 C 
ENDBRANCH  32  34
ENDBRANCH   3  30
BRANCH   4  41
ATOM     41  O   UNL     1       3.340  -1.220   6.239  0.00  0.00    -0.388 OA
ATOM     42  H   UNL     1       4.010  -0.607   6.571  0.00  0.00    +0.210 HD
ENDBRANCH   4  41
TORSDOF 8
