REMARK  Name = ZINC53274646
REMARK  9 active torsions:
REMARK  status: ('A' for Active; 'I' for Inactive)
REMARK    1  A    between atoms: C_1  and  C_2
REMARK    2  A    between atoms: C_2  and  C_26
REMARK    3  A    between atoms: C_4  and  N_10
REMARK    4  A    between atoms: C_6  and  C_8
REMARK    5  A    between atoms: C_6  and  C_9
REMARK    6  A    between atoms: C_11  and  C_13
REMARK    7  A    between atoms: C_13  and  C_14
REMARK    8  A    between atoms: C_14  and  C_15
REMARK    9  A    between atoms: C_17  and  C_20
REMARK                            x       y       z     vdW  Elec       q    Type
REMARK                         _______ _______ _______ _____ _____    ______ ____
ROOT
ATOM      1  N   UNL     1       2.615  -0.819  -2.626  0.00  0.00    -0.313 N 
ATOM      2  C   UNL     1       3.770  -0.334  -3.123  0.00  0.00    +0.214 C 
ATOM      3  O   UNL     1       4.374   0.530  -2.523  0.00  0.00    -0.276 OA
ATOM      4  H   UNL     1       2.133  -1.510  -3.106  0.00  0.00    +0.149 HD
ENDROOT
BRANCH   1   8
ATOM      5  C   UNL     1      -0.019   1.528   0.010  0.00  0.00    -0.010 C 
ATOM      6  C   UNL     1       0.002  -0.004   0.002  0.00  0.00    -0.072 C 
ATOM      7  C   UNL     1       0.573  -0.505  -1.321  0.00  0.00    +0.009 C 
ATOM      8  C   UNL     1       2.088  -0.301  -1.357  0.00  0.00    +0.070 C 
ATOM      9  C   UNL     1       2.703  -1.086  -0.198  0.00  0.00    +0.009 C 
ATOM     10  C   UNL     1       2.147  -0.590   1.133  0.00  0.00    -0.072 C 
ATOM     11  N   UNL     1       0.697  -0.529   1.164  0.00  0.00    +0.386 N 
ATOM     12  C   UNL     1       2.769   0.766   1.481  0.00  0.00    -0.010 C 
ATOM     13  C   UNL     1       2.600  -1.589   2.223  0.00  0.00    -0.010 C 
ATOM     14  C   UNL     1      -1.468  -0.478   0.079  0.00  0.00    -0.010 C 
ATOM     15  H   UNL     1       0.416   0.021   1.982  0.00  0.00    -0.084 HD
ATOM     16  H   UNL     1       0.341  -1.472   1.351  0.00  0.00    -0.084 HD
ENDBRANCH   1   8
BRANCH   2  17
ATOM     17  C   UNL     1       4.312  -0.866  -4.426  0.00  0.00    +0.105 C 
BRANCH  17  18
ATOM     18  C   UNL     1       5.623  -0.153  -4.762  0.00  0.00    +0.108 C 
BRANCH  18  19
ATOM     19  C   UNL     1       6.164  -0.684  -6.064  0.00  0.00    +0.228 A 
ATOM     20  N   UNL     1       5.904  -0.207  -7.248  0.00  0.00    -0.191 NA
ATOM     21  C   UNL     1       6.553  -0.921  -8.185  0.00  0.00    +0.202 A 
ATOM     22  N   UNL     1       7.239  -1.866  -7.591  0.00  0.00    -0.056 NA
ATOM     23  O   UNL     1       6.999  -1.723  -6.199  0.00  0.00    -0.338 OA
BRANCH  21  24
ATOM     24  C   UNL     1       6.502  -0.678  -9.648  0.00  0.00    +0.022 A 
ATOM     25  C   UNL     1       5.735   0.369 -10.156  0.00  0.00    +0.012 A 
ATOM     26  C   UNL     1       5.691   0.590 -11.518  0.00  0.00    +0.001 A 
ATOM     27  C   UNL     1       6.405  -0.225 -12.377  0.00  0.00    +0.000 A 
ATOM     28  C   UNL     1       7.168  -1.266 -11.878  0.00  0.00    +0.001 A 
ATOM     29  C   UNL     1       7.224  -1.492 -10.518  0.00  0.00    +0.012 A 
ENDBRANCH  21  24
ENDBRANCH  18  19
ENDBRANCH  17  18
ENDBRANCH   2  17
TORSDOF 5
