REMARK  Name = ZINC16095380
REMARK  7 active torsions:
REMARK  status: ('A' for Active; 'I' for Inactive)
REMARK    1  A    between atoms: C_1  and  C_2
REMARK    2  A    between atoms: C_2  and  C_3
REMARK    3  A    between atoms: C_2  and  N_4
REMARK    4  A    between atoms: C_13  and  C_15
REMARK    5  A    between atoms: N_17  and  N_18
REMARK    6  A    between atoms: N_18  and  S_19
REMARK    7  A    between atoms: S_19  and  C_22
REMARK                            x       y       z     vdW  Elec       q    Type
REMARK                         _______ _______ _______ _____ _____    ______ ____
ROOT
ATOM      1  C   UNL     1      -1.861   6.656  -3.045  0.00  0.00    +0.279 C 
ATOM      2  O   UNL     1      -1.590   7.833  -2.908  0.00  0.00    -0.267 OA
ATOM      3  N   UNL     1      -1.149   5.719  -2.389  0.00  0.00    -0.226 N 
ATOM      4  H   UNL     1      -1.365   4.780  -2.498  0.00  0.00    +0.171 HD
ENDROOT
BRANCH   1  14
ATOM      5  N   UNL     1      -4.216   4.555  -4.832  0.00  0.00    -0.226 N 
ATOM      6  C   UNL     1      -5.021   5.361  -5.554  0.00  0.00    +0.275 A 
ATOM      7  O   UNL     1      -5.905   4.896  -6.250  0.00  0.00    -0.266 OA
ATOM      8  C   UNL     1      -4.805   6.812  -5.483  0.00  0.00    +0.050 A 
ATOM      9  C   UNL     1      -5.580   7.728  -6.188  0.00  0.00    +0.014 A 
ATOM     10  C   UNL     1      -5.313   9.075  -6.066  0.00  0.00    +0.001 A 
ATOM     11  C   UNL     1      -4.283   9.523  -5.250  0.00  0.00    +0.001 A 
ATOM     12  C   UNL     1      -3.503   8.632  -4.543  0.00  0.00    +0.011 A 
ATOM     13  C   UNL     1      -3.759   7.269  -4.647  0.00  0.00    +0.020 A 
ATOM     14  C   UNL     1      -2.972   6.253  -3.931  0.00  0.00    +0.155 A 
ATOM     15  N   UNL     1      -3.271   4.986  -4.085  0.00  0.00    -0.163 NA
BRANCH   5  17
ATOM     16  C   UNL     1      -3.172   2.427  -5.436  0.00  0.00    +0.032 C 
ATOM     17  C   UNL     1      -4.436   3.108  -4.906  0.00  0.00    +0.105 C 
ATOM     18  C   UNL     1      -4.759   2.569  -3.511  0.00  0.00    +0.032 C 
ENDBRANCH   5  17
ENDBRANCH   1  14
BRANCH   3  19
ATOM     19  N   UNL     1      -0.095   6.101  -1.548  0.00  0.00    -0.108 NA
ATOM     20  H   UNL     1       0.621   6.657  -1.891  0.00  0.00    +0.172 HD
BRANCH  19  21
ATOM     21  S   UNL     1      -0.074   5.604   0.031  0.00  0.00    +0.074 S 
ATOM     22  O   UNL     1      -1.319   5.990   0.596  0.00  0.00    -0.152 OA
ATOM     23  O   UNL     1       1.171   6.024   0.573  0.00  0.00    -0.152 OA
BRANCH  21  24
ATOM     24  C   UNL     1      -0.050   3.842   0.022  0.00  0.00    +0.110 A 
ATOM     25  C   UNL     1       1.156   3.167   0.007  0.00  0.00    +0.048 A 
ATOM     26  C   UNL     1       1.176   1.784   0.000  0.00  0.00    +0.044 A 
ATOM     27  C   UNL     1      -0.013   1.076   0.008  0.00  0.00    +0.040 A 
ATOM     28  C   UNL     1      -1.220   1.751   0.017  0.00  0.00    +0.044 A 
ATOM     29  C   UNL     1      -1.238   3.135   0.029  0.00  0.00    +0.048 A 
ATOM     30 CL   UNL     1      -2.712   0.864   0.019  0.00  0.00    -0.083 Cl
ATOM     31 CL   UNL     1       2.691   0.937  -0.019  0.00  0.00    -0.083 Cl
ENDBRANCH  21  24
ENDBRANCH  19  21
ENDBRANCH   3  19
TORSDOF 5
