REMARK  Name = ZINC04877357
REMARK  5 active torsions:
REMARK  status: ('A' for Active; 'I' for Inactive)
REMARK    1  A    between atoms: C_1  and  C_2
REMARK    2  A    between atoms: C_2  and  C_10
REMARK    3  A    between atoms: C_5  and  N_9
REMARK    4  A    between atoms: C_10  and  C_11
REMARK    5  A    between atoms: C_11  and  C_12
REMARK                            x       y       z     vdW  Elec       q    Type
REMARK                         _______ _______ _______ _____ _____    ______ ____
ROOT
ATOM      1  C   UNL     1       0.614   3.916   1.386  0.00  0.00    +0.019 C 
ATOM      2  C   UNL     1       1.288   3.520   0.070  0.00  0.00    +0.032 C 
ATOM      3  C   UNL     1       2.679   4.157  -0.005  0.00  0.00    +0.020 C 
ATOM      4  C   UNL     1       2.526   5.680  -0.020  0.00  0.00    +0.051 C 
ATOM      5  C   UNL     1       1.655   6.088  -1.178  0.00  0.00    +0.005 C 
ATOM      6  C   UNL     1       0.689   5.269  -1.649  0.00  0.00    +0.065 C 
ATOM      7  C   UNL     1       0.457   4.009  -1.088  0.00  0.00    +0.163 C 
ATOM      8  O   UNL     1      -0.423   3.303  -1.539  0.00  0.00    -0.292 OA
ENDROOT
BRANCH   5   9
ATOM      9  N   UNL     1       1.845   7.304  -1.763  0.00  0.00    -0.361 N 
ATOM     10  H   UNL     1       1.214   7.611  -2.610  0.00  0.00    +0.142 HD
ATOM     11  H   UNL     1       2.629   7.978  -1.388  0.00  0.00    +0.142 HD
ENDBRANCH   5   9
BRANCH   2  12
ATOM     12  C   UNL     1       1.417   1.997  -0.001  0.00  0.00    +0.029 C 
BRANCH  12  13
ATOM     13  C   UNL     1       2.367   1.515   1.098  0.00  0.00    +0.119 C 
BRANCH  13  14
ATOM     14  C   UNL     1       2.416   0.044   1.093  0.00  0.00    +0.063 C 
ATOM     15  N   UNL     1       2.453  -1.092   1.089  0.00  0.00    -0.197 NA
ENDBRANCH  13  14
ENDBRANCH  12  13
ENDBRANCH   2  12
TORSDOF 4
