REMARK  Name = ZINC15978659
REMARK  8 active torsions:
REMARK  status: ('A' for Active; 'I' for Inactive)
REMARK    1  A    between atoms: C_1  and  C_2
REMARK    2  A    between atoms: C_5  and  N_9
REMARK    3  A    between atoms: C_6  and  C_8
REMARK    4  A    between atoms: N_9  and  C_10
REMARK    5  A    between atoms: N_9  and  S_18
REMARK    6  A    between atoms: C_10  and  C_11
REMARK    7  A    between atoms: S_18  and  C_21
REMARK    8  A    between atoms: C_23  and  N_28
REMARK                            x       y       z     vdW  Elec       q    Type
REMARK                         _______ _______ _______ _____ _____    ______ ____
ROOT
ATOM      1  N   UNL     1      -6.030   1.424   1.410  0.00  0.00    -0.198 N 
ENDROOT
BRANCH   1   6
ATOM      2  C   UNL     1      -5.150  -1.302   6.304  0.00  0.00    +0.044 C 
ATOM      3  C   UNL     1      -5.384  -0.577   5.003  0.00  0.00    -0.050 A 
ATOM      4  C   UNL     1      -6.495  -0.878   4.236  0.00  0.00    +0.005 A 
ATOM      5  C   UNL     1      -6.713  -0.216   3.044  0.00  0.00    +0.025 A 
ATOM      6  C   UNL     1      -5.813   0.753   2.615  0.00  0.00    +0.055 A 
ATOM      7  C   UNL     1      -4.696   1.048   3.386  0.00  0.00    -0.028 A 
ATOM      8  C   UNL     1      -4.488   0.386   4.580  0.00  0.00    +0.008 A 
ATOM      9  C   UNL     1      -3.715   2.094   2.922  0.00  0.00    +0.046 C 
ENDBRANCH   1   6
BRANCH   1  10
ATOM     10  S   UNL     1      -5.271   0.911   0.029  0.00  0.00    +0.076 S 
ATOM     11  O   UNL     1      -4.189   0.088   0.442  0.00  0.00    -0.150 OA
ATOM     12  O   UNL     1      -5.086   2.062  -0.783  0.00  0.00    -0.150 OA
BRANCH  10  13
ATOM     13  C   UNL     1      -6.401  -0.134  -0.828  0.00  0.00    +0.129 A 
ATOM     14  C   UNL     1      -6.996   0.302  -1.997  0.00  0.00    +0.063 A 
ATOM     15  C   UNL     1      -7.881  -0.518  -2.670  0.00  0.00    +0.128 A 
ATOM     16  C   UNL     1      -8.176  -1.774  -2.172  0.00  0.00    +0.034 A 
ATOM     17  C   UNL     1      -7.578  -2.213  -1.006  0.00  0.00    +0.024 A 
ATOM     18  C   UNL     1      -6.691  -1.393  -0.332  0.00  0.00    +0.068 A 
ATOM     19 CL   UNL     1      -5.944  -1.942   1.135  0.00  0.00    -0.082 Cl
BRANCH  15  20
ATOM     20  N   UNL     1      -8.519  -0.050  -3.921  0.00  0.00    +0.056 N 
ATOM     21  O   UNL     1      -8.263   1.058  -4.357  0.00  0.00    -0.126 OA
ATOM     22  O   UNL     1      -9.295  -0.775  -4.517  0.00  0.00    -0.126 OA
ENDBRANCH  15  20
ENDBRANCH  10  13
ENDBRANCH   1  10
BRANCH   1  23
ATOM     23  C   UNL     1      -6.927   2.581   1.366  0.00  0.00    +0.166 C 
BRANCH  23  24
ATOM     24  C   UNL     1      -8.356   2.106   1.297  0.00  0.00    -0.028 A 
ATOM     25  C   UNL     1      -8.955   1.893   0.070  0.00  0.00    +0.006 A 
ATOM     26  C   UNL     1     -10.264   1.452   0.007  0.00  0.00    +0.015 A 
ATOM     27  C   UNL     1     -10.977   1.235   1.172  0.00  0.00    +0.018 A 
ATOM     28  C   UNL     1     -10.379   1.453   2.400  0.00  0.00    +0.015 A 
ATOM     29  C   UNL     1      -9.068   1.889   2.462  0.00  0.00    +0.006 A 
ATOM     30 BR   UNL     1     -12.770   0.639   1.086  0.00  0.00    -0.050 Br
ENDBRANCH  23  24
ENDBRANCH   1  23
TORSDOF 6
