REMARK  Name = ZINC20417384
REMARK  12 active torsions:
REMARK  status: ('A' for Active; 'I' for Inactive)
REMARK    1  A    between atoms: C_1  and  C_2
REMARK    2  A    between atoms: N_6  and  C_21
REMARK    3  A    between atoms: C_10  and  C_20
REMARK    4  A    between atoms: N_11  and  C_12
REMARK    5  A    between atoms: C_12  and  C_13
REMARK    6  A    between atoms: C_21  and  C_22
REMARK    7  A    between atoms: N_24  and  C_25
REMARK    8  A    between atoms: C_25  and  C_26
REMARK    9  A    between atoms: C_26  and  C_27
REMARK   10  A    between atoms: C_27  and  N_28
REMARK   11  A    between atoms: C_30  and  C_37
REMARK   12  A    between atoms: C_33  and  C_36
REMARK                            x       y       z     vdW  Elec       q    Type
REMARK                         _______ _______ _______ _____ _____    ______ ____
ROOT
ATOM      1  C   UNL     1       0.029  -3.263  -1.716  0.00  0.00    +0.064 C 
ATOM      2  C   UNL     1       0.023  -2.103  -0.755  0.00  0.00    +0.026 A 
ATOM      3  C   UNL     1       0.037  -2.194   0.597  0.00  0.00    +0.028 A 
ATOM      4  C   UNL     1       0.061  -3.276   1.584  0.00  0.00    +0.143 A 
ATOM      5  N   UNL     1       0.069  -2.994   2.851  0.00  0.00    -0.176 NA
ATOM      6  N   UNL     1       0.056  -1.694   3.350  0.00  0.00    -0.220 N 
ATOM      7  C   UNL     1       0.034  -0.607   2.552  0.00  0.00    +0.277 A 
ATOM      8  O   UNL     1       0.024   0.513   3.029  0.00  0.00    -0.265 OA
ATOM      9  C   UNL     1       0.023  -0.802   1.100  0.00  0.00    +0.070 A 
ATOM     10  C   UNL     1       0.002  -0.004   0.002  0.00  0.00    +0.029 A 
ATOM     11  N   UNL     1      -0.003  -0.785  -1.098  0.00  0.00    -0.343 N 
ATOM     12  C   UNL     1      -0.018   1.503   0.010  0.00  0.00    +0.064 C 
ENDROOT
BRANCH  11  13
ATOM     13  C   UNL     1      -0.029  -0.285  -2.475  0.00  0.00    +0.157 C 
BRANCH  13  14
ATOM     14  C   UNL     1       1.382  -0.094  -2.967  0.00  0.00    -0.028 A 
ATOM     15  C   UNL     1       2.018   1.120  -2.788  0.00  0.00    +0.008 A 
ATOM     16  C   UNL     1       3.314   1.295  -3.235  0.00  0.00    +0.038 A 
ATOM     17  C   UNL     1       3.972   0.256  -3.871  0.00  0.00    +0.123 A 
ATOM     18  C   UNL     1       3.333  -0.958  -4.054  0.00  0.00    +0.038 A 
ATOM     19  C   UNL     1       2.038  -1.132  -3.602  0.00  0.00    +0.008 A 
ATOM     20  F   UNL     1       5.238   0.427  -4.312  0.00  0.00    -0.205 F 
ENDBRANCH  13  14
ENDBRANCH  11  13
BRANCH   6  21
ATOM     21  C   UNL     1       0.068  -1.500   4.803  0.00  0.00    +0.243 C 
BRANCH  21  22
ATOM     22  C   UNL     1      -1.348  -1.452   5.314  0.00  0.00    +0.235 C 
ATOM     23  O   UNL     1      -2.276  -1.569   4.542  0.00  0.00    -0.274 OA
ATOM     24  N   UNL     1      -1.584  -1.279   6.630  0.00  0.00    -0.314 N 
ATOM     25  H   UNL     1      -0.742  -1.173   7.330  0.00  0.00    +0.149 HD
BRANCH  24  26
ATOM     26  C   UNL     1      -2.961  -1.232   7.128  0.00  0.00    +0.102 C 
BRANCH  26  27
ATOM     27  C   UNL     1      -2.949  -1.029   8.644  0.00  0.00    +0.000 C 
BRANCH  27  28
ATOM     28  C   UNL     1      -4.387  -0.980   9.164  0.00  0.00    -0.077 C 
BRANCH  28  29
ATOM     29  N   UNL     1      -4.375  -0.785  10.620  0.00  0.00    +0.380 N 
ATOM     30  C   UNL     1      -3.791  -1.947  11.302  0.00  0.00    -0.076 C 
ATOM     31  C   UNL     1      -3.661  -1.650  12.797  0.00  0.00    -0.031 C 
ATOM     32  C   UNL     1      -5.046  -1.339  13.373  0.00  0.00    +0.003 C 
ATOM     33  C   UNL     1      -5.652  -0.157  12.613  0.00  0.00    -0.031 C 
ATOM     34  C   UNL     1      -5.724  -0.497  11.123  0.00  0.00    -0.076 C 
ATOM     35  C   UNL     1      -7.061   0.122  13.142  0.00  0.00    +0.005 C 
ATOM     36  C   UNL     1      -2.741  -0.444  13.001  0.00  0.00    +0.005 C 
ATOM     37  H   UNL     1      -3.742   0.087  10.841  0.00  0.00    -0.082 HD
ENDBRANCH  28  29
ENDBRANCH  27  28
ENDBRANCH  26  27
ENDBRANCH  24  26
ENDBRANCH  21  22
ENDBRANCH   6  21
TORSDOF 8
