REMARK  Name = ZINC23230844
REMARK  6 active torsions:
REMARK  status: ('A' for Active; 'I' for Inactive)
REMARK    1  A    between atoms: C_1  and  C_2
REMARK    2  A    between atoms: C_5  and  C_23
REMARK    3  A    between atoms: C_6  and  C_8
REMARK    4  A    between atoms: N_9  and  N_10
REMARK    5  A    between atoms: C_11  and  C_13
REMARK    6  A    between atoms: C_15  and  N_21
REMARK                            x       y       z     vdW  Elec       q    Type
REMARK                         _______ _______ _______ _____ _____    ______ ____
ROOT
ATOM      1  N   UNL     1       0.015   1.105   0.782  0.00  0.00    -0.202 N 
ATOM      2  C   UNL     1      -1.151   1.781   0.800  0.00  0.00    +0.283 C 
ATOM      3  O   UNL     1      -1.162   2.980   0.597  0.00  0.00    -0.267 OA
ATOM      4  H   UNL     1       0.025   0.021   0.970  0.00  0.00    +0.178 HD
ENDROOT
BRANCH   2   5
ATOM      5  C   UNL     1      -2.418   1.065   1.067  0.00  0.00    +0.149 A 
ATOM      6  C   UNL     1      -3.618   1.771   1.091  0.00  0.00    +0.094 A 
ATOM      7  C   UNL     1      -4.804   1.079   1.338  0.00  0.00    +0.067 A 
ATOM      8  C   UNL     1      -4.734  -0.294   1.564  0.00  0.00    +0.100 A 
ATOM      9  C   UNL     1      -3.501  -0.925   1.531  0.00  0.00    +0.150 A 
ATOM     10  N   UNL     1      -2.399  -0.246   1.289  0.00  0.00    -0.228 NA
ATOM     11 CL   UNL     1      -3.407  -2.635   1.812  0.00  0.00    -0.060 Cl
ATOM     12 CL   UNL     1      -6.177  -1.205   1.885  0.00  0.00    -0.078 Cl
ATOM     13 CL   UNL     1      -3.638   3.484   0.808  0.00  0.00    -0.079 Cl
BRANCH   7  14
ATOM     14  N   UNL     1      -6.027   1.746   1.365  0.00  0.00    -0.356 N 
ATOM     15  H   UNL     1      -6.954   1.188   1.561  0.00  0.00    +0.142 HD
ATOM     16  H   UNL     1      -6.066   2.832   1.189  0.00  0.00    +0.142 HD
ENDBRANCH   7  14
ENDBRANCH   2   5
BRANCH   1  18
ATOM     17  C   UNL     1       2.335   1.130   0.500  0.00  0.00    +0.138 C 
ATOM     18  N   UNL     1       1.213   1.782   0.523  0.00  0.00    -0.187 NA
BRANCH  17  24
ATOM     19  C   UNL     1       7.310   1.113   0.140  0.00  0.00    +0.044 C 
ATOM     20  C   UNL     1       5.993   1.840   0.053  0.00  0.00    -0.050 A 
ATOM     21  C   UNL     1       5.967   3.182  -0.285  0.00  0.00    +0.003 A 
ATOM     22  C   UNL     1       4.762   3.858  -0.368  0.00  0.00    +0.004 A 
ATOM     23  C   UNL     1       3.578   3.197  -0.114  0.00  0.00    -0.042 A 
ATOM     24  C   UNL     1       3.597   1.843   0.227  0.00  0.00    -0.002 A 
ATOM     25  C   UNL     1       4.817   1.169   0.315  0.00  0.00    +0.013 A 
ATOM     26  C   UNL     1       2.267   3.935  -0.205  0.00  0.00    +0.044 C 
ENDBRANCH  17  24
ENDBRANCH   1  18
TORSDOF 4
