REMARK  Name = ZINC20431220
REMARK  4 active torsions:
REMARK  status: ('A' for Active; 'I' for Inactive)
REMARK    1  A    between atoms: C_1  and  N_2
REMARK    2  A    between atoms: C_6  and  C_12
REMARK    3  A    between atoms: C_12  and  C_14
REMARK    4  A    between atoms: C_12  and  N_22
REMARK                            x       y       z     vdW  Elec       q    Type
REMARK                         _______ _______ _______ _____ _____    ______ ____
ROOT
ATOM      1  C   UNL     1       2.492   1.042  -0.015  0.00  0.00    -0.012 C 
ENDROOT
BRANCH   1   7
ATOM      2  C   UNL     1      -3.724   3.617   0.056  0.00  0.00    +0.138 C 
ATOM      3  N   UNL     1      -2.318   4.030   0.044  0.00  0.00    -0.274 N 
ATOM      4  C   UNL     1      -1.245   3.139   0.030  0.00  0.00    +0.040 A 
ATOM      5  C   UNL     1      -1.219   1.745   0.017  0.00  0.00    +0.024 A 
ATOM      6  C   UNL     1      -0.013   1.076   0.008  0.00  0.00    +0.004 A 
ATOM      7  C   UNL     1       1.178   1.780   0.000  0.00  0.00    -0.057 A 
ATOM      8  C   UNL     1       1.159   3.163   0.007  0.00  0.00    +0.008 A 
ATOM      9  C   UNL     1      -0.043   3.834   0.022  0.00  0.00    -0.017 A 
ATOM     10  C   UNL     1      -0.401   5.302   0.033  0.00  0.00    +0.133 C 
ATOM     11  C   UNL     1      -1.915   5.312   0.047  0.00  0.00    +0.224 C 
ATOM     12  O   UNL     1      -2.629   6.292   0.059  0.00  0.00    -0.275 OA
ENDBRANCH   1   7
BRANCH   1  13
ATOM     13  C   UNL     1       2.796   0.587  -1.419  0.00  0.00    -0.041 A 
ATOM     14  C   UNL     1       2.451  -0.689  -1.822  0.00  0.00    +0.041 A 
ATOM     15  C   UNL     1       2.731  -1.107  -3.112  0.00  0.00    +0.124 A 
ATOM     16  C   UNL     1       3.356  -0.245  -3.998  0.00  0.00    +0.039 A 
ATOM     17  C   UNL     1       3.700   1.031  -3.594  0.00  0.00    +0.018 A 
ATOM     18  C   UNL     1       3.415   1.449  -2.306  0.00  0.00    +0.020 A 
ATOM     19 BR   UNL     1       3.879   3.198  -1.756  0.00  0.00    -0.050 Br
ATOM     20  F   UNL     1       2.395  -2.354  -3.507  0.00  0.00    -0.205 F 
ENDBRANCH   1  13
BRANCH   1  21
ATOM     21  N   UNL     1       2.407  -0.127   0.870  0.00  0.00    +0.385 N 
ATOM     22  H   UNL     1       3.366  -0.666   0.859  0.00  0.00    -0.089 HD
ATOM     23  H   UNL     1       1.607  -0.796   0.520  0.00  0.00    -0.089 HD
ATOM     24  H   UNL     1       2.185   0.204   1.895  0.00  0.00    -0.089 HD
ENDBRANCH   1  21
TORSDOF 3
