REMARK  Name = ZINC21047324
REMARK  5 active torsions:
REMARK  status: ('A' for Active; 'I' for Inactive)
REMARK    1  A    between atoms: C_4  and  C_7
REMARK    2  A    between atoms: N_9  and  C_10
REMARK    3  A    between atoms: C_10  and  C_11
REMARK    4  A    between atoms: C_11  and  C_12
REMARK    5  A    between atoms: N_14  and  C_15
REMARK                            x       y       z     vdW  Elec       q    Type
REMARK                         _______ _______ _______ _____ _____    ______ ____
ROOT
ATOM      1  C   UNL     1       3.643  -1.968  -0.628  0.00  0.00    +0.219 C 
ATOM      2  O   UNL     1       4.551  -2.559  -1.173  0.00  0.00    -0.275 OA
ATOM      3  N   UNL     1       2.648  -2.659  -0.037  0.00  0.00    -0.285 N 
ATOM      4  H   UNL     1       1.865  -2.126   0.521  0.00  0.00    +0.155 HD
ENDROOT
BRANCH   3   5
ATOM      5  C   UNL     1       2.611  -4.056  -0.135  0.00  0.00    +0.037 A 
ATOM      6  C   UNL     1       1.391  -4.715  -0.217  0.00  0.00    +0.027 A 
ATOM      7  C   UNL     1       1.354  -6.092  -0.320  0.00  0.00    +0.051 A 
ATOM      8  C   UNL     1       2.532  -6.821  -0.329  0.00  0.00    +0.167 A 
ATOM      9  C   UNL     1       3.757  -6.164  -0.241  0.00  0.00    +0.169 A 
ATOM     10  C   UNL     1       3.794  -4.783  -0.144  0.00  0.00    +0.072 A 
ATOM     11  O   UNL     1       4.756  -7.095  -0.269  0.00  0.00    -0.447 OA
ATOM     12  C   UNL     1       4.147  -8.296  -0.764  0.00  0.00    +0.254 C 
ATOM     13  O   UNL     1       2.762  -8.165  -0.411  0.00  0.00    -0.448 OA
ATOM     14  C   UNL     1       4.753  -9.518  -0.082  0.00  0.00    +0.093 C 
ATOM     15  C   UNL     1       6.236  -9.626  -0.446  0.00  0.00    +0.008 C 
ATOM     16  C   UNL     1       6.378  -9.747  -1.965  0.00  0.00    +0.000 C 
ATOM     17  C   UNL     1       5.788  -8.504  -2.634  0.00  0.00    +0.008 C 
ATOM     18  C   UNL     1       4.304  -8.389  -2.278  0.00  0.00    +0.093 C 
ENDBRANCH   3   5
BRANCH   1  19
ATOM     19  C   UNL     1       3.627  -0.462  -0.613  0.00  0.00    +0.115 C 
BRANCH  19  20
ATOM     20  C   UNL     1       4.860   0.070  -1.346  0.00  0.00    +0.113 C 
BRANCH  20  23
ATOM     21  C   UNL     1       5.842   2.225  -1.917  0.00  0.00    +0.244 C 
ATOM     22  O   UNL     1       6.755   1.633  -2.458  0.00  0.00    -0.270 OA
ATOM     23  N   UNL     1       4.844   1.534  -1.331  0.00  0.00    -0.311 N 
ATOM     24  H   UNL     1       4.018   2.071  -0.841  0.00  0.00    +0.149 HD
BRANCH  21  28
ATOM     25  C   UNL     1       5.796   6.472  -1.873  0.00  0.00    +0.000 A 
ATOM     26  C   UNL     1       6.837   5.801  -2.490  0.00  0.00    +0.001 A 
ATOM     27  C   UNL     1       6.858   4.422  -2.508  0.00  0.00    +0.013 A 
ATOM     28  C   UNL     1       5.826   3.704  -1.902  0.00  0.00    +0.037 A 
ATOM     29  C   UNL     1       4.776   4.387  -1.286  0.00  0.00    +0.013 A 
ATOM     30  C   UNL     1       4.770   5.766  -1.270  0.00  0.00    +0.001 A 
ENDBRANCH  21  28
ENDBRANCH  20  23
ENDBRANCH  19  20
ENDBRANCH   1  19
TORSDOF 5
