REMARK  Name = ZINC39665063
REMARK  6 active torsions:
REMARK  status: ('A' for Active; 'I' for Inactive)
REMARK    1  A    between atoms: C_3  and  C_6
REMARK    2  A    between atoms: C_10  and  S_19
REMARK    3  A    between atoms: N_12  and  C_13
REMARK    4  A    between atoms: S_19  and  C_20
REMARK    5  A    between atoms: C_20  and  C_21
REMARK    6  A    between atoms: C_29  and  C_33
REMARK                            x       y       z     vdW  Elec       q    Type
REMARK                         _______ _______ _______ _____ _____    ______ ____
ROOT
ATOM      1  C   UNL     1       3.599   0.625  -0.029  0.00  0.00    +0.086 C 
ATOM      2  N   UNL     1       4.126   1.795  -0.768  0.00  0.00    -0.264 NA
ATOM      3  N   UNL     1       4.360   1.294  -2.132  0.00  0.00    -0.261 NA
ATOM      4  C   UNL     1       4.865  -0.085  -1.901  0.00  0.00    +0.078 C 
ATOM      5  N   UNL     1       4.071  -0.576  -0.750  0.00  0.00    +0.414 N 
ATOM      6  H   UNL     1       4.984   2.128  -0.354  0.00  0.00    +0.139 HD
ATOM      7  H   UNL     1       5.048   1.855  -2.611  0.00  0.00    +0.140 HD
ATOM      8  H   UNL     1       3.283  -1.115  -1.077  0.00  0.00    -0.075 HD
ENDROOT
BRANCH   5   9
ATOM      9  C   UNL     1       4.913  -1.395   0.133  0.00  0.00    -0.062 C 
ATOM     10  C   UNL     1       5.393  -2.634  -0.626  0.00  0.00    -0.015 C 
ATOM     11  C   UNL     1       6.271  -3.486   0.293  0.00  0.00    -0.002 C 
ATOM     12  C   UNL     1       5.458  -3.919   1.515  0.00  0.00    -0.000 C 
ATOM     13  C   UNL     1       4.978  -2.681   2.274  0.00  0.00    -0.002 C 
ATOM     14  C   UNL     1       4.101  -1.828   1.355  0.00  0.00    -0.015 C 
ENDBRANCH   5   9
BRANCH   1  17
ATOM     15  C   UNL     1      -0.016   1.341   0.009  0.00  0.00    +0.041 A 
ATOM     16  C   UNL     1       1.331   1.769  -0.001  0.00  0.00    +0.044 A 
ATOM     17  C   UNL     1       2.092   0.660  -0.014  0.00  0.00    +0.106 A 
ATOM     18  O   UNL     1       1.282  -0.411  -0.012  0.00  0.00    -0.468 OA
ATOM     19  C   UNL     1       0.002  -0.004   0.002  0.00  0.00    +0.195 A 
ENDBRANCH   1  17
BRANCH   4  20
ATOM     20  S   UNL     1       4.576  -1.120  -3.363  0.00  0.00    -0.152 S 
BRANCH  20  21
ATOM     21  C   UNL     1       2.779  -1.056  -3.598  0.00  0.00    +0.143 C 
BRANCH  21  22
ATOM     22  C   UNL     1       2.399  -1.886  -4.797  0.00  0.00    +0.120 A 
ATOM     23  N   UNL     1       1.087  -1.958  -5.142  0.00  0.00    -0.310 N 
ATOM     24  H   UNL     1       0.426  -1.481  -4.617  0.00  0.00    +0.170 HD
ATOM     25  C   UNL     1       0.695  -2.690  -6.210  0.00  0.00    +0.259 A 
ATOM     26  O   UNL     1      -0.477  -2.764  -6.530  0.00  0.00    -0.267 OA
ATOM     27  C   UNL     1       1.741  -3.394  -6.972  0.00  0.00    +0.065 A 
ATOM     28  C   UNL     1       1.440  -4.172  -8.088  0.00  0.00    +0.016 A 
ATOM     29  C   UNL     1       2.441  -4.807  -8.765  0.00  0.00    +0.016 A 
ATOM     30  C   UNL     1       3.773  -4.684  -8.348  0.00  0.00    +0.065 A 
ATOM     31  C   UNL     1       4.095  -3.912  -7.237  0.00  0.00    +0.043 A 
ATOM     32  C   UNL     1       3.078  -3.259  -6.538  0.00  0.00    +0.079 A 
ATOM     33  N   UNL     1       3.344  -2.490  -5.452  0.00  0.00    -0.233 NA
BRANCH  30  34
ATOM     34  C   UNL     1       4.843  -5.379  -9.094  0.00  0.00    +0.387 C 
ATOM     35  O   UNL     1       4.565  -6.059 -10.072  0.00  0.00    -0.241 OA
ATOM     36  O   UNL     1       6.007  -5.274  -8.734  0.00  0.00    -0.241 OA
ENDBRANCH  30  34
ENDBRANCH  21  22
ENDBRANCH  20  21
ENDBRANCH   4  20
TORSDOF 6
