REMARK  Name = ZINC33266041
REMARK  11 active torsions:
REMARK  status: ('A' for Active; 'I' for Inactive)
REMARK    1  A    between atoms: C_1  and  C_2
REMARK    2  A    between atoms: C_5  and  C_8
REMARK    3  A    between atoms: C_8  and  N_9
REMARK    4  A    between atoms: C_10  and  C_12
REMARK    5  A    between atoms: C_12  and  C_34
REMARK    6  A    between atoms: C_17  and  C_30
REMARK    7  A    between atoms: N_21  and  C_22
REMARK    8  A    between atoms: C_26  and  C_29
REMARK    9  A    between atoms: C_27  and  C_28
REMARK   10  A    between atoms: C_30  and  O_32
REMARK   11  A    between atoms: O_32  and  C_33
REMARK                            x       y       z     vdW  Elec       q    Type
REMARK                         _______ _______ _______ _____ _____    ______ ____
ROOT
ATOM      1  C   UNL     1      -0.697   1.810  -3.631  0.00  0.00    +0.133 C 
ATOM      2  C   UNL     1      -0.158   0.966  -4.786  0.00  0.00    +0.159 C 
ATOM      3  N   UNL     1      -0.964   1.212  -5.982  0.00  0.00    -0.323 N 
ATOM      4  C   UNL     1      -0.649   1.157  -7.278  0.00  0.00    +0.200 A 
ATOM      5  N   UNL     1      -1.707   1.437  -7.998  0.00  0.00    -0.228 NA
ATOM      6  C   UNL     1      -2.753   1.692  -7.185  0.00  0.00    +0.178 A 
ATOM      7  C   UNL     1      -2.297   1.561  -5.898  0.00  0.00    +0.139 A 
ATOM      8  C   UNL     1      -2.958   1.736  -4.595  0.00  0.00    +0.271 C 
ATOM      9  O   UNL     1      -4.162   1.877  -4.498  0.00  0.00    -0.268 OA
ATOM     10  N   UNL     1      -2.149   1.731  -3.509  0.00  0.00    -0.250 N 
ATOM     11  C   UNL     1      -0.300   3.269  -3.858  0.00  0.00    +0.044 C 
ENDROOT
BRANCH  10  12
ATOM     12  C   UNL     1      -2.721   1.649  -2.235  0.00  0.00    +0.041 A 
ATOM     13  C   UNL     1      -3.120   2.806  -1.577  0.00  0.00    +0.024 A 
ATOM     14  C   UNL     1      -3.689   2.722  -0.321  0.00  0.00    +0.002 A 
ATOM     15  C   UNL     1      -3.852   1.489   0.285  0.00  0.00    +0.004 A 
ATOM     16  C   UNL     1      -3.451   0.337  -0.366  0.00  0.00    -0.046 A 
ATOM     17  C   UNL     1      -2.886   0.413  -1.624  0.00  0.00    -0.026 A 
ATOM     18  C   UNL     1      -2.448  -0.843  -2.332  0.00  0.00    +0.046 C 
ATOM     19  C   UNL     1      -3.631  -1.004   0.298  0.00  0.00    +0.044 C 
ENDBRANCH  10  12
BRANCH   1  21
ATOM     20  N   UNL     1      -0.286   2.008  -1.200  0.00  0.00    -0.309 N 
ATOM     21  C   UNL     1      -0.074   1.330  -2.345  0.00  0.00    +0.239 C 
ATOM     22  O   UNL     1       0.619   0.335  -2.342  0.00  0.00    -0.273 OA
ATOM     23  H   UNL     1      -0.971   2.869  -1.189  0.00  0.00    +0.149 HD
BRANCH  20  24
ATOM     24  C   UNL     1       0.394   1.598   0.031  0.00  0.00    +0.139 C 
BRANCH  24  29
ATOM     25  C   UNL     1      -0.763   5.395   4.230  0.00  0.00    +0.044 C 
ATOM     26  C   UNL     1      -0.461   4.404   3.135  0.00  0.00    -0.050 A 
ATOM     27  C   UNL     1      -1.214   3.251   3.019  0.00  0.00    +0.003 A 
ATOM     28  C   UNL     1      -0.937   2.343   2.015  0.00  0.00    +0.005 A 
ATOM     29  C   UNL     1       0.092   2.588   1.126  0.00  0.00    -0.030 A 
ATOM     30  C   UNL     1       0.849   3.739   1.245  0.00  0.00    +0.005 A 
ATOM     31  C   UNL     1       0.569   4.649   2.247  0.00  0.00    +0.003 A 
ENDBRANCH  24  29
ENDBRANCH  20  24
ENDBRANCH   1  21
BRANCH   6  32
ATOM     32  C   UNL     1      -4.126   2.044  -7.601  0.00  0.00    +0.360 C 
ATOM     33  O   UNL     1      -4.981   2.250  -6.763  0.00  0.00    -0.243 OA
BRANCH  32  34
ATOM     34  O   UNL     1      -4.430   2.137  -8.910  0.00  0.00    -0.463 OA
ATOM     35  C   UNL     1      -5.799   2.487  -9.246  0.00  0.00    +0.280 C 
ENDBRANCH  32  34
ENDBRANCH   6  32
TORSDOF 6
