REMARK  Name = ZINC61888187
REMARK  6 active torsions:
REMARK  status: ('A' for Active; 'I' for Inactive)
REMARK    1  A    between atoms: C_1  and  C_2
REMARK    2  A    between atoms: C_5  and  S_8
REMARK    3  A    between atoms: S_8  and  N_11
REMARK    4  A    between atoms: N_11  and  C_12
REMARK    5  A    between atoms: C_17  and  C_19
REMARK    6  A    between atoms: N_20  and  O_21
REMARK                            x       y       z     vdW  Elec       q    Type
REMARK                         _______ _______ _______ _____ _____    ______ ____
ROOT
ATOM      1  N   UNL     1       1.846  -4.902  -0.193  0.00  0.00    -0.186 NA
ATOM      2  H   UNL     1       2.294  -5.141  -1.020  0.00  0.00    +0.148 HD
ENDROOT
BRANCH   1   3
ATOM      3  C   UNL     1       2.630  -4.640   1.016  0.00  0.00    +0.087 C 
ATOM      4  C   UNL     1       3.645  -3.509   0.753  0.00  0.00    +0.021 C 
ATOM      5  C   UNL     1       4.903  -3.934   1.550  0.00  0.00    +0.002 C 
ATOM      6  C   UNL     1       4.933  -5.470   1.347  0.00  0.00    +0.013 C 
ATOM      7  C   UNL     1       3.447  -5.887   1.395  0.00  0.00    +0.074 C 
BRANCH   7   8
ATOM      8  C   UNL     1       3.190  -6.994   0.405  0.00  0.00    +0.136 C 
ATOM      9  N   UNL     1       3.971  -7.144  -0.614  0.00  0.00    -0.076 NA
ATOM     10  N   UNL     1       2.123  -7.845   0.585  0.00  0.00    -0.344 N 
ATOM     11  H   UNL     1       1.536  -7.732   1.350  0.00  0.00    +0.144 HD
ATOM     12  H   UNL     1       1.957  -8.557  -0.052  0.00  0.00    +0.144 HD
BRANCH   9  13
ATOM     13  O   UNL     1       3.729  -8.183  -1.544  0.00  0.00    -0.408 OA
ATOM     14  H   UNL     1       4.365  -8.216  -2.272  0.00  0.00    +0.328 HD
ENDBRANCH   9  13
ENDBRANCH   7   8
ENDBRANCH   1   3
BRANCH   1  15
ATOM     15  S   UNL     1       0.194  -4.791  -0.150  0.00  0.00    +0.059 S 
ATOM     16  O   UNL     1      -0.234  -5.535   0.982  0.00  0.00    -0.153 OA
ATOM     17  O   UNL     1      -0.267  -5.071  -1.465  0.00  0.00    -0.153 OA
BRANCH  15  22
ATOM     18  C   UNL     1      -1.179   0.979   0.962  0.00  0.00    +0.044 C 
ATOM     19  C   UNL     1      -0.836  -0.462   0.684  0.00  0.00    -0.050 A 
ATOM     20  C   UNL     1      -0.693  -0.900  -0.619  0.00  0.00    +0.005 A 
ATOM     21  C   UNL     1      -0.379  -2.222  -0.874  0.00  0.00    +0.029 A 
ATOM     22  C   UNL     1      -0.206  -3.106   0.175  0.00  0.00    +0.105 A 
ATOM     23  C   UNL     1      -0.347  -2.668   1.478  0.00  0.00    +0.029 A 
ATOM     24  C   UNL     1      -0.658  -1.345   1.733  0.00  0.00    +0.005 A 
ENDBRANCH  15  22
ENDBRANCH   1  15
TORSDOF 5
