REMARK  Name = ZINC07495975
REMARK  3 active torsions:
REMARK  status: ('A' for Active; 'I' for Inactive)
REMARK    1  A    between atoms: C_1  and  C_2
REMARK    2  A    between atoms: C_7  and  C_8
REMARK    3  A    between atoms: C_13  and  C_18
REMARK                            x       y       z     vdW  Elec       q    Type
REMARK                         _______ _______ _______ _____ _____    ______ ____
ROOT
ATOM      1  C   UNL     1       4.579   3.498   0.021  0.00  0.00    +0.156 C 
ATOM      2  C   UNL     1       6.063   3.691   0.240  0.00  0.00    +0.039 C 
ATOM      3  C   UNL     1       6.928   2.655   0.257  0.00  0.00    +0.020 C 
ATOM      4  C   UNL     1       8.407   2.884   0.462  0.00  0.00    +0.063 C 
ATOM      5  C   UNL     1       8.620   4.109   1.353  0.00  0.00    +0.068 C 
ATOM      6  C   UNL     1       7.964   5.317   0.676  0.00  0.00    +0.091 C 
ATOM      7  C   UNL     1       6.514   5.010   0.430  0.00  0.00    +0.164 C 
ATOM      8  O   UNL     1       5.712   5.923   0.394  0.00  0.00    -0.292 OA
ATOM      9  N   UNL     1       6.509   1.356   0.096  0.00  0.00    -0.288 N 
ATOM     10  C   UNL     1       5.157   1.083   0.218  0.00  0.00    +0.202 A 
ATOM     11  N   UNL     1       4.222   2.093   0.192  0.00  0.00    -0.300 N 
ATOM     12  C   UNL     1       2.997   1.512   0.347  0.00  0.00    +0.071 A 
ATOM     13  C   UNL     1       1.707   2.027   0.403  0.00  0.00    +0.028 A 
ATOM     14  C   UNL     1       0.672   1.121   0.572  0.00  0.00    +0.002 A 
ATOM     15  C   UNL     1       0.900  -0.240   0.682  0.00  0.00    +0.002 A 
ATOM     16  C   UNL     1       2.173  -0.778   0.630  0.00  0.00    +0.030 A 
ATOM     17  C   UNL     1       3.234   0.119   0.460  0.00  0.00    +0.091 A 
ATOM     18  N   UNL     1       4.566  -0.070   0.372  0.00  0.00    -0.214 NA
ATOM     19  H   UNL     1       7.144   0.649  -0.098  0.00  0.00    +0.155 HD
ENDROOT
BRANCH   1  26
ATOM     20  C   UNL     1       2.524   5.488  -0.389  0.00  0.00    +0.044 C 
ATOM     21  C   UNL     1       3.240   4.889  -1.572  0.00  0.00    -0.045 A 
ATOM     22  C   UNL     1       2.916   5.295  -2.854  0.00  0.00    +0.004 A 
ATOM     23  C   UNL     1       3.569   4.742  -3.939  0.00  0.00    +0.000 A 
ATOM     24  C   UNL     1       4.549   3.787  -3.744  0.00  0.00    +0.000 A 
ATOM     25  C   UNL     1       4.876   3.384  -2.462  0.00  0.00    +0.006 A 
ATOM     26  C   UNL     1       4.223   3.938  -1.376  0.00  0.00    -0.017 A 
ENDBRANCH   1  26
BRANCH   5  27
ATOM     27  C   UNL     1      10.096   4.361   1.524  0.00  0.00    +0.109 A 
ATOM     28  C   UNL     1      10.762   4.368   2.693  0.00  0.00    +0.045 A 
ATOM     29  C   UNL     1      12.116   4.644   2.392  0.00  0.00    +0.041 A 
ATOM     30  C   UNL     1      12.195   4.790   1.057  0.00  0.00    +0.195 A 
ATOM     31  O   UNL     1      10.970   4.612   0.536  0.00  0.00    -0.468 OA
ENDBRANCH   5  27
TORSDOF 2
