REMARK  Name = ZINC34900500
REMARK  6 active torsions:
REMARK  status: ('A' for Active; 'I' for Inactive)
REMARK    1  A    between atoms: C_1  and  C_2
REMARK    2  A    between atoms: C_7  and  C_8
REMARK    3  A    between atoms: N_10  and  C_11
REMARK    4  A    between atoms: C_17  and  N_19
REMARK    5  A    between atoms: C_20  and  C_22
REMARK    6  A    between atoms: C_29  and  C_31
REMARK                            x       y       z     vdW  Elec       q    Type
REMARK                         _______ _______ _______ _____ _____    ______ ____
ROOT
ATOM      1  C   UNL     1       0.578   0.067   4.894  0.00  0.00    +0.093 C 
ATOM      2  C   UNL     1       2.016   0.556   5.076  0.00  0.00    +0.024 C 
ATOM      3  C   UNL     1       2.134   1.311   6.401  0.00  0.00    +0.002 C 
ATOM      4  C   UNL     1       1.764   0.377   7.555  0.00  0.00    +0.002 C 
ATOM      5  C   UNL     1       0.326  -0.113   7.373  0.00  0.00    +0.024 C 
ATOM      6  C   UNL     1       0.207  -0.868   6.048  0.00  0.00    +0.093 C 
ENDROOT
BRANCH   1   9
ATOM      7  C   UNL     1       0.242   0.021   2.481  0.00  0.00    +0.245 C 
ATOM      8  O   UNL     1       0.135   1.232   2.503  0.00  0.00    -0.270 OA
ATOM      9  N   UNL     1       0.465  -0.656   3.625  0.00  0.00    -0.307 N 
ATOM     10  H   UNL     1       0.551  -1.622   3.607  0.00  0.00    +0.149 HD
BRANCH   7  17
ATOM     11  C   UNL     1      -0.511   1.452   0.082  0.00  0.00    +0.044 C 
ATOM     12  C   UNL     1      -0.234  -0.028   0.036  0.00  0.00    -0.038 A 
ATOM     13  C   UNL     1      -0.334  -0.714  -1.157  0.00  0.00    +0.004 A 
ATOM     14  C   UNL     1      -0.080  -2.073  -1.200  0.00  0.00    +0.000 A 
ATOM     15  C   UNL     1       0.275  -2.754  -0.049  0.00  0.00    +0.001 A 
ATOM     16  C   UNL     1       0.378  -2.080   1.150  0.00  0.00    +0.013 A 
ATOM     17  C   UNL     1       0.128  -0.708   1.200  0.00  0.00    +0.040 A 
ENDBRANCH   7  17
ENDBRANCH   1   9
BRANCH   6  18
ATOM     18  N   UNL     1      -1.169  -1.336   5.873  0.00  0.00    -0.310 N 
ATOM     19  C   UNL     1      -1.559  -2.503   6.424  0.00  0.00    +0.218 C 
ATOM     20  O   UNL     1      -0.770  -3.165   7.063  0.00  0.00    -0.275 OA
ATOM     21  H   UNL     1      -1.801  -0.806   5.362  0.00  0.00    +0.149 HD
BRANCH  19  22
ATOM     22  C   UNL     1      -2.976  -2.985   6.245  0.00  0.00    +0.092 C 
ATOM     23  C   UNL     1      -3.943  -1.958   6.836  0.00  0.00    +0.016 C 
ATOM     24  C   UNL     1      -5.384  -2.430   6.626  0.00  0.00    +0.020 C 
ATOM     25  C   UNL     1      -5.590  -3.764   7.351  0.00  0.00    +0.108 C 
ATOM     26  N   UNL     1      -4.569  -4.715   6.892  0.00  0.00    -0.301 N 
ATOM     27  C   UNL     1      -3.155  -4.325   6.965  0.00  0.00    +0.120 C 
ATOM     28  C   UNL     1      -4.924  -5.924   6.413  0.00  0.00    +0.219 C 
ATOM     29  O   UNL     1      -4.071  -6.701   6.037  0.00  0.00    -0.275 OA
BRANCH  28  30
ATOM     30  C   UNL     1      -6.379  -6.311   6.345  0.00  0.00    +0.075 C 
ATOM     31  C   UNL     1      -6.982  -6.352   7.764  0.00  0.00    +0.013 C 
ATOM     32  C   UNL     1      -7.962  -7.551   7.725  0.00  0.00    +0.001 C 
ATOM     33  C   UNL     1      -7.205  -8.583   6.852  0.00  0.00    +0.001 C 
ATOM     34  C   UNL     1      -6.520  -7.729   5.765  0.00  0.00    +0.013 C 
ENDBRANCH  28  30
ENDBRANCH  19  22
ENDBRANCH   6  18
TORSDOF 5
