REMARK  Name = ZINC12697629
REMARK  7 active torsions:
REMARK  status: ('A' for Active; 'I' for Inactive)
REMARK    1  A    between atoms: C_4  and  N_16
REMARK    2  A    between atoms: C_5  and  C_7
REMARK    3  A    between atoms: N_9  and  C_10
REMARK    4  A    between atoms: C_10  and  C_11
REMARK    5  A    between atoms: C_17  and  C_19
REMARK    6  A    between atoms: C_19  and  N_62
REMARK    7  A    between atoms: C_22  and  N_25
REMARK                            x       y       z     vdW  Elec       q    Type
REMARK                         _______ _______ _______ _____ _____    ______ ____
ROOT
ATOM      1  N   UNL     1      -6.483   7.444   1.446  0.00  0.00    -0.286 N 
ATOM      2  C   UNL     1      -5.742   6.337   1.238  0.00  0.00    +0.201 C 
ATOM      3  O   UNL     1      -5.867   5.378   1.970  0.00  0.00    -0.278 OA
ATOM      4  H   UNL     1      -6.327   8.239   0.912  0.00  0.00    +0.155 HD
ENDROOT
BRANCH   1   8
ATOM      5  C   UNL     1      -9.442   7.451   4.384  0.00  0.00    +0.001 A 
ATOM      6  C   UNL     1      -9.039   6.260   3.801  0.00  0.00    +0.002 A 
ATOM      7  C   UNL     1      -8.064   6.256   2.824  0.00  0.00    +0.024 A 
ATOM      8  C   UNL     1      -7.471   7.447   2.427  0.00  0.00    +0.045 A 
ATOM      9  C   UNL     1      -7.876   8.654   3.016  0.00  0.00    +0.058 A 
ATOM     10  C   UNL     1      -8.868   8.643   3.999  0.00  0.00    +0.015 A 
BRANCH   9  11
ATOM     11  C   UNL     1      -7.259   9.927   2.599  0.00  0.00    +0.246 C 
ATOM     12  O   UNL     1      -6.462   9.944   1.680  0.00  0.00    -0.270 OA
ATOM     13  N   UNL     1      -7.578  11.071   3.236  0.00  0.00    -0.304 N 
ATOM     14  H   UNL     1      -8.213  11.058   3.968  0.00  0.00    +0.149 HD
BRANCH  13  15
ATOM     15  C   UNL     1      -6.964  12.336   2.821  0.00  0.00    +0.179 C 
BRANCH  15  16
ATOM     16  C   UNL     1      -7.486  13.454   3.687  0.00  0.00    +0.122 A 
ATOM     17  C   UNL     1      -6.941  13.873   4.843  0.00  0.00    +0.046 A 
ATOM     18  C   UNL     1      -7.747  14.934   5.314  0.00  0.00    +0.041 A 
ATOM     19  C   UNL     1      -8.736  15.101   4.417  0.00  0.00    +0.195 A 
ATOM     20  O   UNL     1      -8.569  14.205   3.431  0.00  0.00    -0.466 OA
ENDBRANCH  15  16
ENDBRANCH  13  15
ENDBRANCH   9  11
ENDBRANCH   1   8
BRANCH   2  21
ATOM     21  C   UNL     1      -4.760   6.291   0.096  0.00  0.00    +0.019 C 
BRANCH  21  27
ATOM     22  C   UNL     1      -3.298   4.812  -1.143  0.00  0.00    -0.076 C 
ATOM     23  C   UNL     1      -2.728   3.393  -1.189  0.00  0.00    +0.006 C 
ATOM     24  C   UNL     1      -1.845   3.163   0.041  0.00  0.00    +0.089 C 
ATOM     25  C   UNL     1      -2.674   3.399   1.307  0.00  0.00    +0.006 C 
ATOM     26  C   UNL     1      -3.247   4.818   1.279  0.00  0.00    -0.076 C 
ATOM     27  N   UNL     1      -4.106   4.966   0.085  0.00  0.00    +0.386 N 
ATOM     28  H   UNL     1      -4.828   4.237   0.102  0.00  0.00    -0.081 HD
BRANCH  24  29
ATOM     29  N   UNL     1      -1.343   1.787   0.034  0.00  0.00    -0.289 N 
ATOM     30  C   UNL     1      -0.003   1.408   0.005  0.00  0.00    +0.070 A 
ATOM     31  C   UNL     1       1.187   2.120  -0.017  0.00  0.00    +0.028 A 
ATOM     32  C   UNL     1       2.391   1.444  -0.036  0.00  0.00    +0.002 A 
ATOM     33  C   UNL     1       2.416   0.060  -0.033  0.00  0.00    +0.002 A 
ATOM     34  C   UNL     1       1.236  -0.657  -0.011  0.00  0.00    +0.028 A 
ATOM     35  C   UNL     1       0.021   0.012   0.009  0.00  0.00    +0.067 A 
ATOM     36  N   UNL     1      -1.304  -0.414   0.033  0.00  0.00    -0.306 N 
ATOM     37  H   UNL     1      -1.604  -1.337   0.041  0.00  0.00    +0.170 HD
ATOM     38  C   UNL     1      -2.099   0.673   0.044  0.00  0.00    +0.328 A 
ATOM     39  O   UNL     1      -3.316   0.651   0.065  0.00  0.00    -0.247 OA
ENDBRANCH  24  29
ENDBRANCH  21  27
ENDBRANCH   2  21
TORSDOF 7
