REMARK  Name = ZINC40796556
REMARK  8 active torsions:
REMARK  status: ('A' for Active; 'I' for Inactive)
REMARK    1  A    between atoms: C_1  and  C_2
REMARK    2  A    between atoms: C_2  and  O_3
REMARK    3  A    between atoms: O_3  and  C_4
REMARK    4  A    between atoms: C_4  and  C_6
REMARK    5  A    between atoms: C_7  and  C_26
REMARK    6  A    between atoms: C_10  and  N_11
REMARK    7  A    between atoms: C_12  and  C_14
REMARK    8  A    between atoms: C_14  and  C_25
REMARK                            x       y       z     vdW  Elec       q    Type
REMARK                         _______ _______ _______ _____ _____    ______ ____
ROOT
ATOM      1  N   UNL     1      -0.597  -2.458  -3.929  0.00  0.00    -0.276 N 
ATOM      2  C   UNL     1      -1.108  -2.787  -5.133  0.00  0.00    +0.270 C 
ATOM      3  O   UNL     1      -0.384  -3.229  -5.999  0.00  0.00    -0.271 OA
ATOM      4  H   UNL     1      -1.176  -2.104  -3.237  0.00  0.00    +0.155 HD
ENDROOT
BRANCH   2   5
ATOM      5  C   UNL     1      -2.579  -2.604  -5.401  0.00  0.00    +0.258 C 
ATOM      6  C   UNL     1      -3.011  -3.550  -6.492  0.00  0.00    +0.270 C 
ATOM      7  O   UNL     1      -3.013  -3.186  -7.649  0.00  0.00    -0.271 OA
ATOM      8  N   UNL     1      -3.396  -4.805  -6.177  0.00  0.00    -0.279 N 
ATOM      9  C   UNL     1      -3.508  -5.167  -4.827  0.00  0.00    +0.076 A 
ATOM     10  C   UNL     1      -3.675  -6.494  -4.466  0.00  0.00    +0.027 A 
ATOM     11  C   UNL     1      -3.771  -6.836  -3.129  0.00  0.00    +0.002 A 
ATOM     12  C   UNL     1      -3.699  -5.858  -2.154  0.00  0.00    +0.004 A 
ATOM     13  C   UNL     1      -3.537  -4.532  -2.509  0.00  0.00    +0.047 A 
ATOM     14  C   UNL     1      -3.446  -4.181  -3.845  0.00  0.00    +0.144 A 
ATOM     15  O   UNL     1      -3.318  -2.876  -4.208  0.00  0.00    -0.465 OA
ATOM     16  C   UNL     1      -2.841  -1.163  -5.845  0.00  0.00    +0.076 C 
ATOM     17  H   UNL     1      -3.592  -5.449  -6.876  0.00  0.00    +0.155 HD
ENDBRANCH   2   5
BRANCH   1  22
ATOM     18  C   UNL     1       1.448  -2.344  -2.515  0.00  0.00    +0.095 A 
ATOM     19  C   UNL     1       2.874  -2.621  -2.522  0.00  0.00    +0.005 A 
ATOM     20  C   UNL     1       3.364  -3.124  -3.684  0.00  0.00    +0.056 A 
ATOM     21  S   UNL     1       1.927  -3.213  -4.730  0.00  0.00    -0.080 S 
ATOM     22  C   UNL     1       0.757  -2.626  -3.683  0.00  0.00    +0.086 A 
BRANCH  19  23
ATOM     23  C   UNL     1       3.735  -2.373  -1.341  0.00  0.00    -0.017 A 
ATOM     24  C   UNL     1       3.687  -1.143  -0.686  0.00  0.00    +0.008 A 
ATOM     25  C   UNL     1       4.490  -0.918   0.413  0.00  0.00    +0.001 A 
ATOM     26  C   UNL     1       5.342  -1.910   0.865  0.00  0.00    +0.000 A 
ATOM     27  C   UNL     1       5.394  -3.132   0.220  0.00  0.00    +0.001 A 
ATOM     28  C   UNL     1       4.591  -3.371  -0.877  0.00  0.00    +0.008 A 
ENDBRANCH  19  23
BRANCH  18  29
ATOM     29  C   UNL     1       0.776  -1.800  -1.335  0.00  0.00    +0.342 C 
ATOM     30  O   UNL     1       0.312  -2.552  -0.499  0.00  0.00    -0.245 OA
BRANCH  29  31
ATOM     31  O   UNL     1       0.671  -0.465  -1.174  0.00  0.00    -0.461 OA
BRANCH  31  33
ATOM     32  C   UNL     1      -0.019   1.526   0.010  0.00  0.00    +0.048 C 
ATOM     33  C   UNL     1       0.002  -0.004   0.002  0.00  0.00    +0.229 C 
ENDBRANCH  31  33
ENDBRANCH  29  31
ENDBRANCH  18  29
ENDBRANCH   1  22
TORSDOF 6
