REMARK  Name = ZINC32741837
REMARK  8 active torsions:
REMARK  status: ('A' for Active; 'I' for Inactive)
REMARK    1  A    between atoms: C_1  and  C_2
REMARK    2  A    between atoms: C_5  and  N_8
REMARK    3  A    between atoms: C_9  and  C_11
REMARK    4  A    between atoms: C_11  and  S_12
REMARK    5  A    between atoms: S_12  and  C_13
REMARK    6  A    between atoms: C_16  and  C_24
REMARK    7  A    between atoms: N_17  and  C_18
REMARK    8  A    between atoms: C_18  and  C_19
REMARK                            x       y       z     vdW  Elec       q    Type
REMARK                         _______ _______ _______ _____ _____    ______ ____
ROOT
ATOM      1  C   UNL     1       4.022   7.400  -2.332  0.00  0.00    +0.193 A 
ATOM      2  N   UNL     1       4.966   6.566  -1.965  0.00  0.00    -0.122 NA
ATOM      3  N   UNL     1       6.111   7.147  -2.008  0.00  0.00    -0.128 NA
ATOM      4  C   UNL     1       5.968   8.394  -2.397  0.00  0.00    +0.167 A 
ATOM      5  N   UNL     1       4.625   8.595  -2.617  0.00  0.00    -0.295 N 
ENDROOT
BRANCH   4   6
ATOM      6  C   UNL     1       7.044   9.390  -2.567  0.00  0.00    +0.044 A 
ATOM      7  C   UNL     1       7.222  10.219  -3.627  0.00  0.00    +0.095 A 
ATOM      8  N   UNL     1       8.325  10.998  -3.423  0.00  0.00    -0.360 N 
ATOM      9  H   UNL     1       8.626  11.734  -4.183  0.00  0.00    +0.165 HD
ATOM     10  C   UNL     1       8.903  10.695  -2.209  0.00  0.00    +0.047 A 
ATOM     11  C   UNL     1       8.129   9.684  -1.615  0.00  0.00    +0.010 A 
ATOM     12  C   UNL     1       8.488   9.172  -0.370  0.00  0.00    +0.011 A 
ATOM     13  C   UNL     1       9.596   9.670   0.279  0.00  0.00    +0.001 A 
ATOM     14  C   UNL     1      10.357  10.673  -0.304  0.00  0.00    +0.002 A 
ATOM     15  C   UNL     1      10.018  11.185  -1.537  0.00  0.00    +0.026 A 
ENDBRANCH   4   6
BRANCH   1  16
ATOM     16  S   UNL     1       2.298   7.049  -2.431  0.00  0.00    -0.077 S 
BRANCH  16  17
ATOM     17  C   UNL     1       2.300   5.314  -1.914  0.00  0.00    +0.173 C 
BRANCH  17  19
ATOM     18  N   UNL     1       0.646   3.508  -1.571  0.00  0.00    -0.312 N 
ATOM     19  C   UNL     1       0.889   4.786  -1.923  0.00  0.00    +0.224 C 
ATOM     20  O   UNL     1      -0.028   5.510  -2.248  0.00  0.00    -0.275 OA
ATOM     21  H   UNL     1       1.477   2.851  -1.276  0.00  0.00    +0.149 HD
BRANCH  18  26
ATOM     22  C   UNL     1       0.172   0.536   1.867  0.00  0.00    +0.007 C 
ATOM     23  C   UNL     1      -0.605   1.176   0.715  0.00  0.00    -0.014 C 
ATOM     24  C   UNL     1       0.076   0.835  -0.612  0.00  0.00    +0.005 C 
ATOM     25  C   UNL     1      -0.701   1.475  -1.764  0.00  0.00    +0.022 C 
ATOM     26  C   UNL     1      -0.726   2.994  -1.580  0.00  0.00    +0.073 C 
ATOM     27  C   UNL     1      -1.407   3.335  -0.253  0.00  0.00    +0.022 C 
ATOM     28  C   UNL     1      -0.631   2.695   0.899  0.00  0.00    +0.005 C 
ENDBRANCH  18  26
ENDBRANCH  17  19
ENDBRANCH  16  17
ENDBRANCH   1  16
BRANCH   5  29
ATOM     29  C   UNL     1       3.975   9.830  -3.063  0.00  0.00    +0.200 C 
BRANCH  29  30
ATOM     30  C   UNL     1       3.558  10.640  -1.863  0.00  0.00    +0.125 A 
ATOM     31  C   UNL     1       4.309  11.565  -1.239  0.00  0.00    +0.046 A 
ATOM     32  C   UNL     1       3.531  12.075  -0.174  0.00  0.00    +0.041 A 
ATOM     33  C   UNL     1       2.354  11.425  -0.206  0.00  0.00    +0.195 A 
ATOM     34  O   UNL     1       2.376  10.557  -1.231  0.00  0.00    -0.466 OA
ENDBRANCH  29  30
ENDBRANCH   5  29
TORSDOF 7
