REMARK  Name = ZINC39942171
REMARK  8 active torsions:
REMARK  status: ('A' for Active; 'I' for Inactive)
REMARK    1  A    between atoms: C_1  and  C_2
REMARK    2  A    between atoms: C_2  and  C_4
REMARK    3  A    between atoms: C_2  and  S_13
REMARK    4  A    between atoms: N_6  and  C_7
REMARK    5  A    between atoms: C_7  and  C_8
REMARK    6  A    between atoms: S_13  and  C_14
REMARK    7  A    between atoms: C_18  and  C_23
REMARK    8  A    between atoms: N_19  and  C_20
REMARK                            x       y       z     vdW  Elec       q    Type
REMARK                         _______ _______ _______ _____ _____    ______ ____
ROOT
ATOM      1  C   UNL     1      -0.168  -0.076   2.849  0.00  0.00    +0.238 C 
ATOM      2  N   UNL     1      -1.505  -0.583   2.498  0.00  0.00    -0.237 N 
ATOM      3  N   UNL     1      -2.363   0.523   2.502  0.00  0.00    -0.169 NA
ATOM      4  C   UNL     1      -1.721   1.620   2.808  0.00  0.00    +0.147 C 
ATOM      5  N   UNL     1      -0.364   1.369   3.044  0.00  0.00    -0.282 N 
ATOM      6  H   UNL     1      -1.744  -1.502   2.301  0.00  0.00    +0.171 HD
ENDROOT
BRANCH   4   7
ATOM      7  C   UNL     1      -2.317   2.888   2.891  0.00  0.00    +0.022 C 
ATOM      8  C   UNL     1      -3.674   3.192   2.771  0.00  0.00    +0.006 A 
ATOM      9  C   UNL     1      -4.813   2.391   2.545  0.00  0.00    +0.010 A 
ATOM     10  C   UNL     1      -6.040   2.970   2.473  0.00  0.00    +0.001 A 
ATOM     11  C   UNL     1      -6.207   4.349   2.619  0.00  0.00    +0.002 A 
ATOM     12  C   UNL     1      -5.157   5.178   2.838  0.00  0.00    +0.026 A 
ATOM     13  C   UNL     1      -3.844   4.646   2.925  0.00  0.00    +0.043 A 
ATOM     14  N   UNL     1      -2.679   5.228   3.128  0.00  0.00    -0.380 N 
ATOM     15  C   UNL     1      -1.624   4.210   3.135  0.00  0.00    +0.152 C 
ATOM     16  H   UNL     1      -2.542   6.180   3.258  0.00  0.00    +0.160 HD
ENDBRANCH   4   7
BRANCH   5  17
ATOM     17  C   UNL     1       0.660   2.351   3.410  0.00  0.00    +0.078 C 
ATOM     18  C   UNL     1       1.306   2.215   4.791  0.00  0.00    +0.024 C 
ATOM     19  C   UNL     1       2.102   1.854   3.535  0.00  0.00    +0.024 C 
ENDBRANCH   5  17
BRANCH   1  20
ATOM     20  S   UNL     1       1.002  -0.382   1.497  0.00  0.00    -0.106 S 
BRANCH  20  22
ATOM     21  C   UNL     1       0.192   1.946   0.310  0.00  0.00    +0.029 C 
ATOM     22  C   UNL     1       0.243   0.436   0.067  0.00  0.00    +0.132 C 
BRANCH  22  23
ATOM     23  C   UNL     1       1.061   0.153  -1.166  0.00  0.00    +0.226 C 
ATOM     24  O   UNL     1       2.215  -0.205  -1.060  0.00  0.00    -0.275 OA
ATOM     25  N   UNL     1       0.511   0.297  -2.388  0.00  0.00    -0.307 N 
ATOM     26  H   UNL     1      -0.412   0.583  -2.474  0.00  0.00    +0.149 HD
BRANCH  25  27
ATOM     27  C   UNL     1       1.306   0.022  -3.587  0.00  0.00    +0.178 C 
BRANCH  27  28
ATOM     28  C   UNL     1       0.464   0.258  -4.814  0.00  0.00    +0.122 A 
ATOM     29  C   UNL     1       0.353   1.421  -5.481  0.00  0.00    +0.046 A 
ATOM     30  C   UNL     1      -0.534   1.192  -6.559  0.00  0.00    +0.041 A 
ATOM     31  C   UNL     1      -0.911  -0.097  -6.486  0.00  0.00    +0.195 A 
ATOM     32  O   UNL     1      -0.300  -0.659  -5.431  0.00  0.00    -0.466 OA
ENDBRANCH  27  28
ENDBRANCH  25  27
ENDBRANCH  22  23
ENDBRANCH  20  22
ENDBRANCH   1  20
TORSDOF 7
