REMARK  Name = ZINC08658031
REMARK  13 active torsions:
REMARK  status: ('A' for Active; 'I' for Inactive)
REMARK    1  A    between atoms: C_1  and  C_2
REMARK    2  A    between atoms: C_2  and  C_3
REMARK    3  A    between atoms: C_2  and  C_4
REMARK    4  A    between atoms: C_4  and  C_6
REMARK    5  A    between atoms: C_4  and  S_12
REMARK    6  A    between atoms: S_12  and  C_13
REMARK    7  A    between atoms: C_16  and  C_25
REMARK    8  A    between atoms: N_17  and  C_18
REMARK    9  A    between atoms: C_18  and  C_19
REMARK   10  A    between atoms: C_28  and  C_31
REMARK   11  A    between atoms: C_31  and  C_32
REMARK   12  A    between atoms: C_31  and  C_33
REMARK   13  A    between atoms: C_31  and  C_34
REMARK                            x       y       z     vdW  Elec       q    Type
REMARK                         _______ _______ _______ _____ _____    ______ ____
ROOT
ATOM      1  C   UNL     1       2.257  -4.360  -0.625  0.00  0.00    +0.193 A 
ATOM      2  N   UNL     1       1.438  -4.833   0.288  0.00  0.00    -0.122 NA
ATOM      3  N   UNL     1       1.450  -6.118   0.269  0.00  0.00    -0.128 NA
ATOM      4  C   UNL     1       2.277  -6.544  -0.657  0.00  0.00    +0.165 A 
ATOM      5  N   UNL     1       2.815  -5.432  -1.261  0.00  0.00    -0.298 N 
ENDROOT
BRANCH   4   6
ATOM      6  C   UNL     1       2.571  -7.954  -0.990  0.00  0.00    +0.019 A 
ATOM      7  C   UNL     1       3.849  -8.323  -1.413  0.00  0.00    +0.012 A 
ATOM      8  C   UNL     1       4.118  -9.641  -1.718  0.00  0.00    +0.005 A 
ATOM      9  C   UNL     1       3.121 -10.595  -1.615  0.00  0.00    -0.042 A 
ATOM     10  C   UNL     1       1.850 -10.236  -1.203  0.00  0.00    +0.005 A 
ATOM     11  C   UNL     1       1.569  -8.921  -0.890  0.00  0.00    +0.012 A 
BRANCH   9  12
ATOM     12  C   UNL     1       3.420 -12.033  -1.956  0.00  0.00    -0.013 C 
ATOM     13  C   UNL     1       2.515 -12.484  -3.103  0.00  0.00    +0.015 C 
ATOM     14  C   UNL     1       4.884 -12.162  -2.380  0.00  0.00    +0.015 C 
ATOM     15  C   UNL     1       3.165 -12.911  -0.729  0.00  0.00    +0.015 C 
ENDBRANCH   9  12
ENDBRANCH   4   6
BRANCH   1  16
ATOM     16  S   UNL     1       2.571  -2.661  -0.968  0.00  0.00    -0.073 S 
BRANCH  16  17
ATOM     17  C   UNL     1       1.591  -1.889   0.343  0.00  0.00    +0.143 C 
BRANCH  17  18
ATOM     18  C   UNL     1       0.126  -2.117   0.076  0.00  0.00    +0.234 C 
ATOM     19  O   UNL     1      -0.250  -2.403  -1.041  0.00  0.00    -0.274 OA
ATOM     20  N   UNL     1      -0.768  -2.003   1.079  0.00  0.00    -0.239 N 
ATOM     21  C   UNL     1      -2.079  -2.207   0.840  0.00  0.00    +0.303 C 
ATOM     22  O   UNL     1      -2.455  -2.494  -0.280  0.00  0.00    -0.253 OA
ATOM     23  N   UNL     1      -2.971  -2.099   1.844  0.00  0.00    -0.313 N 
ATOM     24  H   UNL     1      -0.468  -1.774   1.972  0.00  0.00    +0.159 HD
ATOM     25  H   UNL     1      -2.671  -1.874   2.738  0.00  0.00    +0.146 HD
ATOM     26  H   UNL     1      -3.915  -2.246   1.672  0.00  0.00    +0.146 HD
ENDBRANCH  17  18
BRANCH  17  28
ATOM     27  C   UNL     1       3.348  -0.153   0.722  0.00  0.00    +0.009 C 
ATOM     28  C   UNL     1       1.876  -0.386   0.375  0.00  0.00    +0.005 C 
ATOM     29  C   UNL     1       1.572   0.220  -0.996  0.00  0.00    +0.009 C 
ENDBRANCH  17  28
ENDBRANCH  16  17
ENDBRANCH   1  16
BRANCH   5  30
ATOM     30  C   UNL     1       3.786  -5.403  -2.358  0.00  0.00    +0.161 C 
BRANCH  30  31
ATOM     31  C   UNL     1       3.064  -5.537  -3.673  0.00  0.00    -0.028 A 
ATOM     32  C   UNL     1       2.830  -6.789  -4.209  0.00  0.00    +0.005 A 
ATOM     33  C   UNL     1       2.162  -6.912  -5.413  0.00  0.00    +0.000 A 
ATOM     34  C   UNL     1       1.738  -5.782  -6.087  0.00  0.00    +0.000 A 
ATOM     35  C   UNL     1       1.977  -4.529  -5.554  0.00  0.00    +0.000 A 
ATOM     36  C   UNL     1       2.640  -4.407  -4.347  0.00  0.00    +0.005 A 
ENDBRANCH  30  31
ENDBRANCH   5  30
TORSDOF 8
