REMARK  Name = ZINC57432486
REMARK  11 active torsions:
REMARK  status: ('A' for Active; 'I' for Inactive)
REMARK    1  A    between atoms: C_1  and  C_2
REMARK    2  A    between atoms: C_5  and  N_9
REMARK    3  A    between atoms: C_6  and  C_8
REMARK    4  A    between atoms: N_9  and  S_10
REMARK    5  A    between atoms: S_10  and  C_13
REMARK    6  A    between atoms: C_16  and  C_31
REMARK    7  A    between atoms: C_17  and  N_19
REMARK    8  A    between atoms: N_19  and  S_20
REMARK    9  A    between atoms: S_20  and  C_23
REMARK   10  A    between atoms: C_26  and  C_30
REMARK   11  A    between atoms: C_28  and  C_29
REMARK                            x       y       z     vdW  Elec       q    Type
REMARK                         _______ _______ _______ _____ _____    ______ ____
ROOT
ATOM      1  C   UNL     1       2.920  -4.580  -1.283  0.00  0.00    +0.110 A 
ATOM      2  C   UNL     1       3.593  -3.449  -1.708  0.00  0.00    +0.029 A 
ATOM      3  C   UNL     1       4.929  -3.277  -1.394  0.00  0.00    +0.007 A 
ATOM      4  C   UNL     1       5.595  -4.235  -0.655  0.00  0.00    -0.028 A 
ATOM      5  C   UNL     1       4.922  -5.372  -0.227  0.00  0.00    +0.053 A 
ATOM      6  C   UNL     1       3.579  -5.539  -0.539  0.00  0.00    +0.053 A 
ATOM      7  C   UNL     1       7.051  -4.047  -0.315  0.00  0.00    +0.046 C 
ENDROOT
BRANCH   1   8
ATOM      8  S   UNL     1       1.218  -4.795  -1.686  0.00  0.00    +0.072 S 
ATOM      9  O   UNL     1       0.961  -6.191  -1.632  0.00  0.00    -0.150 OA
ATOM     10  O   UNL     1       0.976  -4.020  -2.853  0.00  0.00    -0.150 OA
BRANCH   8  11
ATOM     11  N   UNL     1       0.336  -4.103  -0.467  0.00  0.00    -0.216 N 
ATOM     12  H   UNL     1      -0.281  -4.643   0.051  0.00  0.00    +0.174 HD
BRANCH  11  17
ATOM     13  C   UNL     1       0.918   1.421   0.673  0.00  0.00    +0.044 C 
ATOM     14  C   UNL     1       0.763  -0.047   0.370  0.00  0.00    -0.050 A 
ATOM     15  C   UNL     1       0.840  -0.494  -0.937  0.00  0.00    +0.005 A 
ATOM     16  C   UNL     1       0.699  -1.838  -1.218  0.00  0.00    +0.025 A 
ATOM     17  C   UNL     1       0.479  -2.743  -0.186  0.00  0.00    +0.051 A 
ATOM     18  C   UNL     1       0.403  -2.291   1.125  0.00  0.00    -0.028 A 
ATOM     19  C   UNL     1       0.551  -0.945   1.400  0.00  0.00    +0.008 A 
ATOM     20  C   UNL     1       0.166  -3.268   2.247  0.00  0.00    +0.046 C 
ENDBRANCH  11  17
ENDBRANCH   8  11
ENDBRANCH   1   8
BRANCH   5  21
ATOM     21  N   UNL     1       5.593  -6.342   0.520  0.00  0.00    -0.216 N 
ATOM     22  H   UNL     1       6.319  -6.085   1.110  0.00  0.00    +0.174 HD
BRANCH  21  23
ATOM     23  S   UNL     1       5.149  -7.933   0.400  0.00  0.00    +0.073 S 
ATOM     24  O   UNL     1       6.099  -8.678   1.151  0.00  0.00    -0.150 OA
ATOM     25  O   UNL     1       3.755  -7.987   0.669  0.00  0.00    -0.150 OA
BRANCH  23  26
ATOM     26  C   UNL     1       5.357  -8.406  -1.284  0.00  0.00    +0.111 A 
ATOM     27  C   UNL     1       4.259  -8.779  -2.038  0.00  0.00    +0.029 A 
ATOM     28  C   UNL     1       4.421  -9.150  -3.359  0.00  0.00    +0.005 A 
ATOM     29  C   UNL     1       5.681  -9.148  -3.928  0.00  0.00    -0.050 A 
ATOM     30  C   UNL     1       6.779  -8.773  -3.175  0.00  0.00    +0.008 A 
ATOM     31  C   UNL     1       6.616  -8.398  -1.855  0.00  0.00    -0.024 A 
ATOM     32  C   UNL     1       7.811  -7.986  -1.035  0.00  0.00    +0.046 C 
ATOM     33  C   UNL     1       5.859  -9.553  -5.369  0.00  0.00    +0.044 C 
ENDBRANCH  23  26
ENDBRANCH  21  23
ENDBRANCH   5  21
TORSDOF 6
