REMARK  Name = ZINC14668821
REMARK  8 active torsions:
REMARK  status: ('A' for Active; 'I' for Inactive)
REMARK    1  A    between atoms: C_1  and  C_2
REMARK    2  A    between atoms: C_4  and  C_23
REMARK    3  A    between atoms: C_5  and  N_9
REMARK    4  A    between atoms: C_10  and  C_12
REMARK    5  A    between atoms: C_12  and  N_13
REMARK    6  A    between atoms: C_14  and  C_22
REMARK    7  A    between atoms: C_15  and  N_19
REMARK    8  A    between atoms: C_16  and  C_18
REMARK                            x       y       z     vdW  Elec       q    Type
REMARK                         _______ _______ _______ _____ _____    ______ ____
ROOT
ATOM      1  N   UNL     1       1.237  -2.080  -0.021  0.00  0.00    -0.283 N 
ATOM      2  C   UNL     1       2.340  -2.735  -0.434  0.00  0.00    +0.239 C 
ATOM      3  O   UNL     1       3.344  -2.114  -0.713  0.00  0.00    -0.273 OA
ATOM      4  H   UNL     1       0.458  -2.579   0.272  0.00  0.00    +0.155 HD
ENDROOT
BRANCH   1   9
ATOM      5  C   UNL     1       1.148   3.593   0.008  0.00  0.00    +0.044 C 
ATOM      6  C   UNL     1       1.171   2.087  -0.000  0.00  0.00    -0.049 A 
ATOM      7  C   UNL     1       1.529   1.396   1.143  0.00  0.00    +0.008 A 
ATOM      8  C   UNL     1       1.552   0.015   1.140  0.00  0.00    -0.028 A 
ATOM      9  C   UNL     1       1.214  -0.681  -0.014  0.00  0.00    +0.055 A 
ATOM     10  C   UNL     1       0.855   0.016  -1.161  0.00  0.00    +0.063 A 
ATOM     11  C   UNL     1       0.834   1.398  -1.151  0.00  0.00    +0.025 A 
ATOM     12 CL   UNL     1       0.433  -0.849  -2.606  0.00  0.00    -0.082 Cl
ATOM     13  C   UNL     1       1.942  -0.736   2.387  0.00  0.00    +0.046 C 
ENDBRANCH   1   9
BRANCH   2  14
ATOM     14  C   UNL     1       2.326  -4.237  -0.549  0.00  0.00    +0.239 C 
BRANCH  14  15
ATOM     15  N   UNL     1       3.635  -4.703  -1.014  0.00  0.00    -0.257 N 
ATOM     16  C   UNL     1       4.683  -5.038  -0.233  0.00  0.00    +0.067 A 
ATOM     17  C   UNL     1       5.698  -5.415  -1.043  0.00  0.00    +0.169 A 
ATOM     18  C   UNL     1       5.256  -5.307  -2.366  0.00  0.00    +0.090 A 
ATOM     19  N   UNL     1       4.018  -4.886  -2.350  0.00  0.00    -0.173 NA
ATOM     20  C   UNL     1       6.065  -5.627  -3.597  0.00  0.00    +0.070 C 
ATOM     21  C   UNL     1       4.715  -4.999   1.274  0.00  0.00    +0.068 C 
BRANCH  17  22
ATOM     22  N   UNL     1       7.040  -5.863  -0.607  0.00  0.00    +0.060 N 
ATOM     23  O   UNL     1       7.249  -7.044  -0.394  0.00  0.00    -0.126 OA
ATOM     24  O   UNL     1       7.936  -5.050  -0.462  0.00  0.00    -0.126 OA
ENDBRANCH  17  22
ENDBRANCH  14  15
ENDBRANCH   2  14
TORSDOF 4
