REMARK  Name = ZINC39661054
REMARK  3 active torsions:
REMARK  status: ('A' for Active; 'I' for Inactive)
REMARK    1  A    between atoms: C_12  and  C_13
REMARK    2  A    between atoms: C_17  and  C_26
REMARK    3  A    between atoms: N_28  and  C_29
REMARK                            x       y       z     vdW  Elec       q    Type
REMARK                         _______ _______ _______ _____ _____    ______ ____
ROOT
ATOM      1  C   UNL     1      -0.710  -3.146   0.006  0.00  0.00    +0.247 C 
ATOM      2  O   UNL     1      -1.210  -2.042   0.098  0.00  0.00    -0.270 OA
ATOM      3  N   UNL     1      -1.497  -4.235  -0.103  0.00  0.00    -0.296 N 
ATOM      4  C   UNL     1      -1.082  -5.658  -0.114  0.00  0.00    +0.121 C 
ATOM      5  C   UNL     1      -2.164  -6.386   0.715  0.00  0.00    +0.100 C 
ATOM      6  C   UNL     1      -3.402  -5.479   0.628  0.00  0.00    -0.004 C 
ATOM      7  C   UNL     1      -2.973  -4.281  -0.232  0.00  0.00    +0.115 C 
ATOM      8  C   UNL     1      -4.556  -6.222  -0.038  0.00  0.00    -0.010 C 
ATOM      9  C   UNL     1      -5.793  -5.319  -0.060  0.00  0.00    -0.082 C 
ATOM     10  N   UNL     1      -6.153  -4.945   1.313  0.00  0.00    +0.379 N 
ATOM     11  C   UNL     1      -5.075  -4.151   1.914  0.00  0.00    -0.082 C 
ATOM     12  C   UNL     1      -3.808  -5.004   2.020  0.00  0.00    -0.010 C 
ATOM     13  H   UNL     1      -7.003  -4.401   1.300  0.00  0.00    -0.086 HD
ATOM     14  H   UNL     1      -6.300  -5.779   1.860  0.00  0.00    -0.086 HD
ENDROOT
BRANCH   1  26
ATOM     15  C   UNL     1      -0.160  -0.542   3.726  0.00  0.00    +0.001 A 
ATOM     16  C   UNL     1       0.988  -0.179   4.402  0.00  0.00    +0.001 A 
ATOM     17  C   UNL     1       2.226  -0.622   3.964  0.00  0.00    +0.012 A 
ATOM     18  C   UNL     1       2.313  -1.435   2.841  0.00  0.00    +0.030 A 
ATOM     19  C   UNL     1       1.145  -1.805   2.152  0.00  0.00    -0.006 A 
ATOM     20  C   UNL     1      -0.087  -1.353   2.603  0.00  0.00    +0.009 A 
ATOM     21  C   UNL     1       1.525  -2.666   1.004  0.00  0.00    +0.006 A 
ATOM     22  C   UNL     1       2.920  -2.818   0.996  0.00  0.00    +0.031 A 
ATOM     23  C   UNL     1       3.530  -3.587   0.011  0.00  0.00    +0.012 A 
ATOM     24  C   UNL     1       2.764  -4.205  -0.965  0.00  0.00    +0.001 A 
ATOM     25  C   UNL     1       1.393  -4.064  -0.969  0.00  0.00    +0.014 A 
ATOM     26  C   UNL     1       0.759  -3.295   0.013  0.00  0.00    +0.045 A 
ATOM     27  C   UNL     1       3.466  -2.054   2.144  0.00  0.00    +0.194 C 
ATOM     28  O   UNL     1       4.635  -1.954   2.454  0.00  0.00    -0.287 OA
ENDBRANCH   1  26
BRANCH   5  29
ATOM     29  C   UNL     1      -2.459  -7.739   0.120  0.00  0.00    +0.219 C 
ATOM     30  O   UNL     1      -2.270  -7.936  -1.062  0.00  0.00    -0.275 OA
ATOM     31  N   UNL     1      -2.932  -8.730   0.900  0.00  0.00    -0.304 N 
ATOM     32  H   UNL     1      -3.083  -8.573   1.846  0.00  0.00    +0.149 HD
BRANCH  31  33
ATOM     33  C   UNL     1      -3.219 -10.045   0.322  0.00  0.00    +0.151 C 
ATOM     34  C   UNL     1      -3.081 -11.110   1.412  0.00  0.00    +0.042 C 
ATOM     35  C   UNL     1      -3.916 -12.338   0.978  0.00  0.00    +0.079 C 
ATOM     36  S   UNL     1      -5.245 -11.554  -0.014  0.00  0.00    -0.086 S 
ATOM     37  C   UNL     1      -4.606 -10.027  -0.277  0.00  0.00    +0.209 C 
ATOM     38  O   UNL     1      -5.148  -9.096  -0.836  0.00  0.00    -0.283 OA
ENDBRANCH  31  33
ENDBRANCH   5  29
TORSDOF 3
