REMARK  Name = ZINC59301900
REMARK  7 active torsions:
REMARK  status: ('A' for Active; 'I' for Inactive)
REMARK    1  A    between atoms: C_1  and  C_2
REMARK    2  A    between atoms: C_2  and  N_3
REMARK    3  A    between atoms: N_3  and  C_4
REMARK    4  A    between atoms: C_4  and  C_5
REMARK    5  A    between atoms: N_18  and  C_19
REMARK    6  A    between atoms: C_19  and  C_20
REMARK    7  A    between atoms: C_29  and  C_32
REMARK                            x       y       z     vdW  Elec       q    Type
REMARK                         _______ _______ _______ _____ _____    ______ ____
ROOT
ATOM      1  N   UNL     1       0.699  -0.418  -1.227  0.00  0.00    -0.282 N 
ATOM      2  C   UNL     1      -0.007  -0.672  -2.346  0.00  0.00    +0.303 C 
ATOM      3  O   UNL     1       0.558  -1.083  -3.341  0.00  0.00    -0.253 OA
ATOM      4  N   UNL     1      -1.339  -0.470  -2.363  0.00  0.00    -0.295 N 
ATOM      5  H   UNL     1      -1.790  -0.142  -1.569  0.00  0.00    +0.151 HD
ENDROOT
BRANCH   1   7
ATOM      6  C   UNL     1      -0.008   1.607  -0.052  0.00  0.00    +0.024 C 
ATOM      7  C   UNL     1       0.018   0.078  -0.028  0.00  0.00    +0.106 C 
ENDBRANCH   1   7
BRANCH   1   8
ATOM      8  C   UNL     1       2.147  -0.638  -1.208  0.00  0.00    +0.157 C 
BRANCH   8   9
ATOM      9  C   UNL     1       2.440  -2.071  -0.761  0.00  0.00    +0.228 C 
ATOM     10  C   UNL     1       3.956  -2.274  -0.633  0.00  0.00    +0.275 C 
ATOM     11  O   UNL     1       4.195  -3.626  -0.228  0.00  0.00    -0.485 OA
ATOM     12  C   UNL     1       3.507  -4.594  -0.892  0.00  0.00    +0.162 A 
ATOM     13  C   UNL     1       3.938  -5.910  -0.816  0.00  0.00    +0.049 A 
ATOM     14  C   UNL     1       3.248  -6.905  -1.483  0.00  0.00    +0.004 A 
ATOM     15  C   UNL     1       2.126  -6.591  -2.226  0.00  0.00    +0.004 A 
ATOM     16  C   UNL     1       1.691  -5.282  -2.307  0.00  0.00    +0.049 A 
ATOM     17  C   UNL     1       2.380  -4.279  -1.642  0.00  0.00    +0.163 A 
ATOM     18  O   UNL     1       1.944  -2.993  -1.738  0.00  0.00    -0.480 OA
ENDBRANCH   8   9
ENDBRANCH   1   8
BRANCH   4  19
ATOM     19  C   UNL     1      -2.107  -0.746  -3.580  0.00  0.00    +0.142 C 
BRANCH  19  20
ATOM     20  C   UNL     1      -3.562  -0.440  -3.336  0.00  0.00    -0.014 A 
ATOM     21  C   UNL     1      -4.414  -1.424  -2.851  0.00  0.00    +0.010 A 
ATOM     22  C   UNL     1      -5.743  -1.102  -2.641  0.00  0.00    +0.042 A 
ATOM     23  C   UNL     1      -6.178   0.189  -2.922  0.00  0.00    +0.099 A 
ATOM     24  N   UNL     1      -5.335   1.099  -3.383  0.00  0.00    -0.349 N 
ATOM     25  C   UNL     1      -4.061   0.822  -3.588  0.00  0.00    +0.089 A 
ATOM     26  N   UNL     1      -7.511   0.526  -2.716  0.00  0.00    -0.317 N 
ATOM     27  C   UNL     1      -8.492  -0.498  -2.330  0.00  0.00    +0.107 C 
ATOM     28  C   UNL     1      -9.666  -0.451  -3.313  0.00  0.00    +0.022 C 
ATOM     29  C   UNL     1     -10.229   0.971  -3.361  0.00  0.00    -0.011 C 
ATOM     30  C   UNL     1      -9.146   1.934  -3.856  0.00  0.00    +0.022 C 
ATOM     31  C   UNL     1      -7.965   1.915  -2.874  0.00  0.00    +0.107 C 
ATOM     32  C   UNL     1     -11.424   1.014  -4.315  0.00  0.00    +0.007 C 
ATOM     33  H   UNL     1      -5.661   1.993  -3.572  0.00  0.00    +0.167 HD
ENDBRANCH  19  20
ENDBRANCH   4  19
TORSDOF 5
