REMARK  Name = ZINC63679315
REMARK  8 active torsions:
REMARK  status: ('A' for Active; 'I' for Inactive)
REMARK    1  A    between atoms: C_1  and  C_2
REMARK    2  A    between atoms: C_2  and  C_3
REMARK    3  A    between atoms: C_2  and  C_4
REMARK    4  A    between atoms: C_2  and  O_5
REMARK    5  A    between atoms: O_5  and  C_6
REMARK    6  A    between atoms: N_8  and  N_9
REMARK    7  A    between atoms: C_10  and  C_12
REMARK    8  A    between atoms: C_15  and  C_17
REMARK                            x       y       z     vdW  Elec       q    Type
REMARK                         _______ _______ _______ _____ _____    ______ ____
ROOT
ATOM      1  N   UNL     1       2.023  -1.296  -3.385  0.00  0.00    -0.227 N 
ATOM      2  C   UNL     1       2.712  -1.696  -4.472  0.00  0.00    +0.279 C 
ATOM      3  O   UNL     1       3.869  -1.353  -4.619  0.00  0.00    -0.267 OA
ATOM      4  H   UNL     1       1.100  -1.570  -3.267  0.00  0.00    +0.173 HD
ENDROOT
BRANCH   2   5
ATOM      5  C   UNL     1       2.062  -2.550  -5.482  0.00  0.00    +0.135 A 
ATOM      6  C   UNL     1       2.755  -2.966  -6.588  0.00  0.00    +0.080 A 
ATOM      7  S   UNL     1       1.610  -3.887  -7.409  0.00  0.00    -0.075 S 
ATOM      8  C   UNL     1       0.256  -3.690  -6.263  0.00  0.00    +0.112 A 
ATOM      9  N   UNL     1       0.801  -2.930  -5.331  0.00  0.00    -0.234 NA
BRANCH   8  10
ATOM     10  C   UNL     1      -1.115  -4.240  -6.336  0.00  0.00    +0.042 A 
ATOM     11  C   UNL     1      -2.036  -3.959  -5.327  0.00  0.00    +0.013 A 
ATOM     12  C   UNL     1      -3.314  -4.475  -5.400  0.00  0.00    +0.001 A 
ATOM     13  C   UNL     1      -3.683  -5.269  -6.471  0.00  0.00    +0.003 A 
ATOM     14  C   UNL     1      -2.776  -5.552  -7.476  0.00  0.00    +0.039 A 
ATOM     15  C   UNL     1      -1.495  -5.037  -7.418  0.00  0.00    +0.133 A 
ATOM     16  F   UNL     1      -0.610  -5.309  -8.403  0.00  0.00    -0.205 F 
ENDBRANCH   8  10
ENDBRANCH   2   5
BRANCH   1  19
ATOM     17  C   UNL     1       1.952  -0.085  -1.337  0.00  0.00    +0.417 C 
ATOM     18  O   UNL     1       2.488   0.619  -0.503  0.00  0.00    -0.225 OA
ATOM     19  N   UNL     1       2.641  -0.485  -2.424  0.00  0.00    -0.199 N 
ATOM     20  H   UNL     1       3.564  -0.211  -2.541  0.00  0.00    +0.176 HD
BRANCH  17  21
ATOM     21  O   UNL     1       0.671  -0.465  -1.174  0.00  0.00    -0.444 OA
BRANCH  21  23
ATOM     22  C   UNL     1      -0.019   1.526   0.010  0.00  0.00    +0.055 C 
ATOM     23  C   UNL     1       0.002  -0.004   0.002  0.00  0.00    +0.107 C 
ATOM     24  C   UNL     1       0.742  -0.511   1.242  0.00  0.00    +0.055 C 
ATOM     25  C   UNL     1      -1.433  -0.534   0.013  0.00  0.00    +0.055 C 
ENDBRANCH  21  23
ENDBRANCH  17  21
ENDBRANCH   1  19
TORSDOF 5
