REMARK  Name = ZINC11166445
REMARK  7 active torsions:
REMARK  status: ('A' for Active; 'I' for Inactive)
REMARK    1  A    between atoms: C_1  and  C_2
REMARK    2  A    between atoms: C_2  and  N_3
REMARK    3  A    between atoms: N_14  and  N_15
REMARK    4  A    between atoms: C_16  and  C_18
REMARK    5  A    between atoms: C_18  and  C_19
REMARK    6  A    between atoms: C_19  and  C_21
REMARK    7  A    between atoms: C_19  and  N_26
REMARK                            x       y       z     vdW  Elec       q    Type
REMARK                         _______ _______ _______ _____ _____    ______ ____
ROOT
ATOM      1  N   UNL     1       4.098  -0.642   0.054  0.00  0.00    -0.234 N 
ATOM      2  C   UNL     1       4.762  -0.402   1.202  0.00  0.00    +0.231 C 
ATOM      3  O   UNL     1       4.161  -0.011   2.180  0.00  0.00    -0.274 OA
ATOM      4  H   UNL     1       4.578  -0.954  -0.728  0.00  0.00    +0.173 HD
ENDROOT
BRANCH   1  16
ATOM      5  N   UNL     1       0.688  -0.476  -1.203  0.00  0.00    -0.280 N 
ATOM      6  C   UNL     1      -0.021  -0.698  -2.335  0.00  0.00    +0.263 A 
ATOM      7  O   UNL     1      -1.223  -0.512  -2.373  0.00  0.00    -0.267 OA
ATOM      8  C   UNL     1       0.715  -1.171  -3.515  0.00  0.00    +0.065 A 
ATOM      9  C   UNL     1       0.077  -1.429  -4.728  0.00  0.00    +0.015 A 
ATOM     10  C   UNL     1       0.810  -1.867  -5.795  0.00  0.00    +0.001 A 
ATOM     11  C   UNL     1       2.182  -2.059  -5.684  0.00  0.00    +0.002 A 
ATOM     12  C   UNL     1       2.832  -1.815  -4.507  0.00  0.00    +0.028 A 
ATOM     13  C   UNL     1       2.111  -1.365  -3.398  0.00  0.00    +0.080 A 
ATOM     14  N   UNL     1       2.714  -1.111  -2.213  0.00  0.00    -0.214 NA
ATOM     15  C   UNL     1       2.036  -0.684  -1.177  0.00  0.00    +0.216 A 
ATOM     16  N   UNL     1       2.713  -0.440  -0.009  0.00  0.00    -0.234 N 
ATOM     17  H   UNL     1       2.232  -0.127   0.774  0.00  0.00    +0.173 HD
BRANCH   5  19
ATOM     18  C   UNL     1      -0.019   1.526   0.010  0.00  0.00    +0.027 C 
ATOM     19  C   UNL     1       0.002  -0.004   0.002  0.00  0.00    +0.125 C 
ENDBRANCH   5  19
ENDBRANCH   1  16
BRANCH   2  20
ATOM     20  C   UNL     1       6.252  -0.619   1.270  0.00  0.00    +0.125 C 
BRANCH  20  21
ATOM     21  C   UNL     1       6.754  -0.276   2.674  0.00  0.00    +0.120 C 
BRANCH  21  22
ATOM     22  N   UNL     1       6.181  -1.215   3.640  0.00  0.00    -0.292 N 
ATOM     23  C   UNL     1       6.423  -2.536   3.522  0.00  0.00    +0.298 C 
ATOM     24  O   UNL     1       7.117  -2.947   2.612  0.00  0.00    -0.253 OA
ATOM     25  N   UNL     1       5.896  -3.400   4.412  0.00  0.00    -0.313 N 
ATOM     26  H   UNL     1       5.627  -0.887   4.366  0.00  0.00    +0.151 HD
ATOM     27  H   UNL     1       5.342  -3.072   5.137  0.00  0.00    +0.146 HD
ATOM     28  H   UNL     1       6.070  -4.351   4.326  0.00  0.00    +0.146 HD
ENDBRANCH  21  22
BRANCH  21  29
ATOM     29  C   UNL     1       8.257  -0.375   2.708  0.00  0.00    +0.010 A 
ATOM     30  C   UNL     1       9.180   0.616   2.639  0.00  0.00    +0.013 A 
ATOM     31  C   UNL     1      10.521   0.288   2.690  0.00  0.00    +0.008 A 
ATOM     32  C   UNL     1      10.875  -1.016   2.808  0.00  0.00    +0.045 A 
ATOM     33  S   UNL     1       9.285  -1.827   2.856  0.00  0.00    -0.100 S 
ENDBRANCH  21  29
ENDBRANCH  20  21
ENDBRANCH   2  20
TORSDOF 6
