REMARK  Name = ZINC49396988
REMARK  8 active torsions:
REMARK  status: ('A' for Active; 'I' for Inactive)
REMARK    1  A    between atoms: C_1  and  C_2
REMARK    2  A    between atoms: C_5  and  C_7
REMARK    3  A    between atoms: C_7  and  C_9
REMARK    4  A    between atoms: C_7  and  N_10
REMARK    5  A    between atoms: N_13  and  C_14
REMARK    6  A    between atoms: N_13  and  C_15
REMARK    7  A    between atoms: C_15  and  C_16
REMARK    8  A    between atoms: C_19  and  C_21
REMARK                            x       y       z     vdW  Elec       q    Type
REMARK                         _______ _______ _______ _____ _____    ______ ____
ROOT
ATOM      1  N   UNL     1       2.811  -2.961  -0.914  0.00  0.00    -0.290 N 
ATOM      2  C   UNL     1       3.494  -3.975  -1.482  0.00  0.00    +0.303 C 
ATOM      3  O   UNL     1       3.174  -5.126  -1.254  0.00  0.00    -0.253 OA
ATOM      4  N   UNL     1       4.531  -3.713  -2.302  0.00  0.00    -0.283 N 
ATOM      5  C   UNL     1       4.916  -2.327  -2.577  0.00  0.00    +0.134 C 
ATOM      6  H   UNL     1       3.066  -2.043  -1.096  0.00  0.00    +0.151 HD
ENDROOT
BRANCH   1   7
ATOM      7  C   UNL     1       1.684  -3.245  -0.023  0.00  0.00    +0.137 C 
ATOM      8  C   UNL     1       2.205  -3.494   1.394  0.00  0.00    +0.036 C 
BRANCH   7  13
ATOM      9  C   UNL     1      -0.018   1.503   0.010  0.00  0.00    +0.086 C 
ATOM     10  C   UNL     1       0.002  -0.004   0.002  0.00  0.00    +0.102 A 
ATOM     11  C   UNL     1      -1.078  -0.805   0.003  0.00  0.00    +0.045 A 
ATOM     12  C   UNL     1      -0.601  -2.136  -0.007  0.00  0.00    +0.047 A 
ATOM     13  C   UNL     1       0.742  -2.069  -0.013  0.00  0.00    +0.125 A 
ATOM     14  O   UNL     1       1.102  -0.775  -0.013  0.00  0.00    -0.463 OA
ENDBRANCH   7  13
ENDBRANCH   1   7
BRANCH   4  15
ATOM     15  C   UNL     1       5.273  -4.816  -2.919  0.00  0.00    +0.164 C 
BRANCH  15  16
ATOM     16  C   UNL     1       4.642  -5.168  -4.242  0.00  0.00    +0.066 A 
ATOM     17  C   UNL     1       5.104  -4.651  -5.409  0.00  0.00    +0.071 A 
ATOM     18  S   UNL     1       3.988  -5.417  -6.573  0.00  0.00    -0.080 S 
ATOM     19  C   UNL     1       3.070  -6.296  -5.470  0.00  0.00    +0.076 A 
ATOM     20  N   UNL     1       3.619  -5.996  -4.319  0.00  0.00    -0.248 NA
ATOM     21  C   UNL     1       1.904  -7.211  -5.740  0.00  0.00    +0.073 C 
ENDBRANCH  15  16
ENDBRANCH   4  15
TORSDOF 4
