REMARK  Name = ZINC09452082
REMARK  4 active torsions:
REMARK  status: ('A' for Active; 'I' for Inactive)
REMARK    1  A    between atoms: C_1  and  C_2
REMARK    2  A    between atoms: C_2  and  C_3
REMARK    3  A    between atoms: C_23  and  C_30
REMARK    4  A    between atoms: C_30  and  C_32
REMARK                            x       y       z     vdW  Elec       q    Type
REMARK                         _______ _______ _______ _____ _____    ______ ____
ROOT
ATOM      1  C   UNL     1      -0.009   1.401   0.126  0.00  0.00    -0.047 A 
ATOM      2  C   UNL     1       0.010   0.018   0.156  0.00  0.00    +0.005 A 
ATOM      3  C   UNL     1       1.209  -0.662   0.148  0.00  0.00    +0.024 A 
ATOM      4  C   UNL     1       2.412   0.039   0.109  0.00  0.00    +0.036 A 
ATOM      5  C   UNL     1       2.381   1.429   0.079  0.00  0.00    -0.026 A 
ATOM      6  C   UNL     1       1.182   2.105   0.087  0.00  0.00    +0.008 A 
ATOM      7  C   UNL     1       3.818   1.877   0.040  0.00  0.00    +0.060 C 
ATOM      8  C   UNL     1       4.618   0.598   0.052  0.00  0.00    +0.212 C 
ATOM      9  O   UNL     1       5.827   0.501   0.030  0.00  0.00    -0.277 OA
ATOM     10  N   UNL     1       3.733  -0.415   0.093  0.00  0.00    -0.286 N 
ATOM     11  C   UNL     1       4.112   2.699  -1.210  0.00  0.00    +0.085 C 
ATOM     12  C   UNL     1       4.722   1.874  -2.305  0.00  0.00    -0.011 A 
ATOM     13  C   UNL     1       5.852   1.092  -2.388  0.00  0.00    +0.006 A 
ATOM     14  C   UNL     1       6.157   0.439  -3.569  0.00  0.00    +0.000 A 
ATOM     15  C   UNL     1       5.325   0.575  -4.665  0.00  0.00    +0.002 A 
ATOM     16  C   UNL     1       4.192   1.357  -4.587  0.00  0.00    +0.023 A 
ATOM     17  C   UNL     1       3.876   2.017  -3.402  0.00  0.00    +0.038 A 
ATOM     18  N   UNL     1       2.804   2.853  -3.079  0.00  0.00    -0.285 N 
ATOM     19  C   UNL     1       2.869   3.295  -1.808  0.00  0.00    +0.228 C 
ATOM     20  O   UNL     1       2.079   4.030  -1.254  0.00  0.00    -0.275 OA
ATOM     21  C   UNL     1       5.083   3.792  -0.724  0.00  0.00    +0.066 C 
ATOM     22  C   UNL     1       4.581   4.041   0.721  0.00  0.00    -0.055 C 
ATOM     23  C   UNL     1       5.317   2.129   1.916  0.00  0.00    -0.076 C 
ATOM     24  C   UNL     1       5.956   3.348   2.625  0.00  0.00    -0.020 C 
ATOM     25  C   UNL     1       5.760   4.502   1.592  0.00  0.00    -0.016 C 
ATOM     26  H   UNL     1       3.983  -1.352   0.110  0.00  0.00    +0.155 HD
ATOM     27  H   UNL     1       2.095   3.087  -3.698  0.00  0.00    +0.155 HD
ATOM     28  N   UNL     1       4.174   2.722   1.198  0.00  0.00    +0.395 N 
ATOM     29  H   UNL     1       3.368   2.806   1.829  0.00  0.00    -0.079 HD
ENDROOT
BRANCH   1  31
ATOM     30  C   UNL     1      -1.747   2.420   1.571  0.00  0.00    +0.009 C 
ATOM     31  C   UNL     1      -1.323   2.139   0.129  0.00  0.00    +0.032 C 
ENDBRANCH   1  31
BRANCH  21  32
ATOM     32  C   UNL     1       6.504   3.289  -0.721  0.00  0.00    +0.166 C 
ATOM     33  O   UNL     1       6.975   2.807   0.287  0.00  0.00    -0.292 OA
BRANCH  32  34
ATOM     34  C   UNL     1       7.318   3.381  -1.942  0.00  0.00    +0.018 A 
ATOM     35  C   UNL     1       6.776   3.931  -3.109  0.00  0.00    +0.014 A 
ATOM     36  C   UNL     1       7.546   4.020  -4.247  0.00  0.00    +0.039 A 
ATOM     37  C   UNL     1       8.853   3.555  -4.242  0.00  0.00    +0.123 A 
ATOM     38  C   UNL     1       9.395   3.004  -3.090  0.00  0.00    +0.039 A 
ATOM     39  C   UNL     1       8.638   2.914  -1.943  0.00  0.00    +0.014 A 
ATOM     40  F   UNL     1       9.602   3.641  -5.363  0.00  0.00    -0.205 F 
ENDBRANCH  32  34
ENDBRANCH  21  32
TORSDOF 3
