REMARK  Name = ZINC12482914
REMARK  8 active torsions:
REMARK  status: ('A' for Active; 'I' for Inactive)
REMARK    1  A    between atoms: C_4  and  N_7
REMARK    2  A    between atoms: N_10  and  C_13
REMARK    3  A    between atoms: C_13  and  C_14
REMARK    4  A    between atoms: C_16  and  C_19
REMARK    5  A    between atoms: C_19  and  C_20
REMARK    6  A    between atoms: C_26  and  C_28
REMARK    7  A    between atoms: C_28  and  C_29
REMARK    8  A    between atoms: N_31  and  C_32
REMARK                            x       y       z     vdW  Elec       q    Type
REMARK                         _______ _______ _______ _____ _____    ______ ____
ROOT
ATOM      1  C   UNL     1       8.948  -6.661   0.072  0.00  0.00    +0.061 C 
ENDROOT
BRANCH   1   2
ATOM      2  C   UNL     1       9.634  -7.625   1.042  0.00  0.00    -0.019 C 
ATOM      3  C   UNL     1       8.579  -8.492   1.732  0.00  0.00    -0.079 C 
ATOM      4  N   UNL     1       9.235  -9.421   2.661  0.00  0.00    +0.379 N 
ATOM      5  C   UNL     1      10.109 -10.335   1.917  0.00  0.00    -0.082 C 
ATOM      6  C   UNL     1      11.223  -9.539   1.234  0.00  0.00    -0.015 C 
ATOM      7  C   UNL     1      10.602  -8.526   0.269  0.00  0.00    -0.002 C 
ATOM      8  H   UNL     1       9.785  -8.897   3.326  0.00  0.00    -0.086 HD
ATOM      9  H   UNL     1       8.533  -9.954   3.154  0.00  0.00    -0.086 HD
BRANCH   7  10
ATOM     10  C   UNL     1       9.841  -9.269  -0.831  0.00  0.00    +0.099 C 
BRANCH  10  11
ATOM     11  C   UNL     1      10.813 -10.059  -1.669  0.00  0.00    +0.214 C 
ATOM     12  O   UNL     1      11.998 -10.031  -1.411  0.00  0.00    -0.276 OA
ATOM     13  N   UNL     1      10.366 -10.797  -2.704  0.00  0.00    -0.312 N 
ATOM     14  H   UNL     1       9.418 -10.820  -2.910  0.00  0.00    +0.149 HD
BRANCH  13  15
ATOM     15  C   UNL     1      11.311 -11.566  -3.518  0.00  0.00    +0.073 C 
ATOM     16  C   UNL     1      11.899 -10.664  -4.605  0.00  0.00    +0.022 C 
ATOM     17  C   UNL     1      12.886 -11.466  -5.455  0.00  0.00    +0.002 C 
ATOM     18  C   UNL     1      12.158 -12.643  -6.107  0.00  0.00    +0.000 C 
ATOM     19  C   UNL     1      11.570 -13.545  -5.020  0.00  0.00    +0.002 C 
ATOM     20  C   UNL     1      10.583 -12.743  -4.170  0.00  0.00    +0.022 C 
ENDBRANCH  13  15
ENDBRANCH  10  11
ENDBRANCH   7  10
ENDBRANCH   1   2
BRANCH   1  23
ATOM     21  C   UNL     1       7.231  -3.790   1.623  0.00  0.00    +0.151 A 
ATOM     22  C   UNL     1       8.160  -4.293   0.787  0.00  0.00    +0.072 A 
ATOM     23  C   UNL     1       8.088  -5.696   0.848  0.00  0.00    +0.084 A 
ATOM     24  N   UNL     1       7.148  -6.017   1.691  0.00  0.00    -0.083 NA
ATOM     25  O   UNL     1       6.592  -4.818   2.200  0.00  0.00    -0.358 OA
BRANCH  21  26
ATOM     26  C   UNL     1       6.961  -2.328   1.870  0.00  0.00    +0.161 C 
BRANCH  26  30
ATOM     27  N   UNL     1       3.620  -0.649  -0.036  0.00  0.00    -0.327 N 
ATOM     28  C   UNL     1       4.891   0.083  -0.149  0.00  0.00    +0.120 C 
ATOM     29  C   UNL     1       5.824  -0.388   0.972  0.00  0.00    +0.104 C 
ATOM     30  N   UNL     1       5.943  -1.851   0.923  0.00  0.00    -0.292 NA
ATOM     31  C   UNL     1       4.649  -2.500   1.172  0.00  0.00    +0.104 C 
ATOM     32  C   UNL     1       3.668  -2.116   0.065  0.00  0.00    +0.120 C 
BRANCH  27  36
ATOM     33  C   UNL     1      -0.017   1.379   0.010  0.00  0.00    +0.000 A 
ATOM     34  C   UNL     1       1.170   2.089   0.017  0.00  0.00    +0.002 A 
ATOM     35  C   UNL     1       2.377   1.420   0.002  0.00  0.00    +0.023 A 
ATOM     36  C   UNL     1       2.400   0.031  -0.021  0.00  0.00    +0.030 A 
ATOM     37  C   UNL     1       1.206  -0.680  -0.028  0.00  0.00    +0.023 A 
ATOM     38  C   UNL     1       0.002  -0.004  -0.013  0.00  0.00    +0.002 A 
ENDBRANCH  27  36
ENDBRANCH  26  30
ENDBRANCH  21  26
ENDBRANCH   1  23
TORSDOF 8
