REMARK  Name = ZINC36556738
REMARK  16 active torsions:
REMARK  status: ('A' for Active; 'I' for Inactive)
REMARK    1  A    between atoms: C_1  and  C_2
REMARK    2  A    between atoms: C_2  and  O_3
REMARK    3  A    between atoms: O_3  and  C_4
REMARK    4  A    between atoms: C_4  and  C_6
REMARK    5  A    between atoms: C_8  and  C_34
REMARK    6  A    between atoms: C_10  and  C_29
REMARK    7  A    between atoms: C_12  and  C_27
REMARK    8  A    between atoms: C_12  and  O_28
REMARK    9  A    between atoms: N_15  and  N_16
REMARK   10  A    between atoms: N_16  and  S_17
REMARK   11  A    between atoms: S_17  and  C_20
REMARK   12  A    between atoms: C_23  and  C_26
REMARK   13  A    between atoms: C_29  and  O_31
REMARK   14  A    between atoms: O_31  and  C_32
REMARK   15  A    between atoms: C_32  and  C_33
REMARK   16  A    between atoms: C_37  and  C_40
REMARK                            x       y       z     vdW  Elec       q    Type
REMARK                         _______ _______ _______ _____ _____    ______ ____
ROOT
ATOM      1  C   UNL     1      -2.571  -2.522   0.219  0.00  0.00    +0.152 C 
ATOM      2  C   UNL     1      -3.072  -3.882  -0.279  0.00  0.00    +0.055 C 
ATOM      3  C   UNL     1      -2.906  -4.922   0.831  0.00  0.00    +0.138 C 
ATOM      4  C   UNL     1      -3.785  -4.550   2.026  0.00  0.00    +0.082 C 
ATOM      5  C   UNL     1      -3.312  -3.215   2.610  0.00  0.00    +0.088 C 
ATOM      6  C   UNL     1      -3.295  -2.179   1.503  0.00  0.00    +0.055 C 
ATOM      7  N   UNL     1      -3.878  -1.049   1.646  0.00  0.00    -0.174 NA
ATOM      8  C   UNL     1      -5.239  -4.420   1.568  0.00  0.00    +0.042 C 
ENDROOT
BRANCH   2   9
ATOM      9  C   UNL     1      -2.271  -4.301  -1.485  0.00  0.00    -0.042 A 
ATOM     10  C   UNL     1      -0.987  -4.787  -1.327  0.00  0.00    +0.004 A 
ATOM     11  C   UNL     1      -0.252  -5.171  -2.433  0.00  0.00    +0.003 A 
ATOM     12  C   UNL     1      -0.803  -5.070  -3.697  0.00  0.00    -0.050 A 
ATOM     13  C   UNL     1      -2.087  -4.585  -3.855  0.00  0.00    +0.003 A 
ATOM     14  C   UNL     1      -2.823  -4.205  -2.748  0.00  0.00    +0.004 A 
ATOM     15  C   UNL     1      -0.002  -5.489  -4.904  0.00  0.00    +0.044 C 
ENDBRANCH   2   9
BRANCH   1  16
ATOM     16  C   UNL     1      -1.088  -2.592   0.478  0.00  0.00    +0.316 C 
ATOM     17  O   UNL     1      -0.678  -3.020   1.530  0.00  0.00    -0.250 OA
BRANCH  16  18
ATOM     18  O   UNL     1      -0.223  -2.179  -0.462  0.00  0.00    -0.464 OA
BRANCH  18  20
ATOM     19  C   UNL     1       1.992  -1.761  -1.332  0.00  0.00    +0.048 C 
ATOM     20  C   UNL     1       1.168  -2.274  -0.149  0.00  0.00    +0.229 C 
ENDBRANCH  18  20
ENDBRANCH  16  18
ENDBRANCH   1  16
BRANCH   7  21
ATOM     21  N   UNL     1      -4.432  -0.698   2.884  0.00  0.00    -0.137 N 
ATOM     22  H   UNL     1      -4.314  -1.281   3.651  0.00  0.00    +0.197 HD
BRANCH  21  23
ATOM     23  S   UNL     1      -5.290   0.710   3.038  0.00  0.00    +0.086 S 
ATOM     24  O   UNL     1      -5.837   0.711   4.350  0.00  0.00    -0.149 OA
ATOM     25  O   UNL     1      -4.449   1.752   2.563  0.00  0.00    -0.149 OA
BRANCH  23  26
ATOM     26  C   UNL     1      -6.653   0.615   1.925  0.00  0.00    +0.110 A 
ATOM     27  C   UNL     1      -6.518   1.072   0.628  0.00  0.00    +0.029 A 
ATOM     28  C   UNL     1      -7.587   0.998  -0.246  0.00  0.00    +0.005 A 
ATOM     29  C   UNL     1      -8.790   0.465   0.178  0.00  0.00    -0.050 A 
ATOM     30  C   UNL     1      -8.924   0.006   1.476  0.00  0.00    +0.005 A 
ATOM     31  C   UNL     1      -7.854   0.077   2.348  0.00  0.00    +0.029 A 
ATOM     32  C   UNL     1      -9.956   0.384  -0.773  0.00  0.00    +0.044 C 
ENDBRANCH  23  26
ENDBRANCH  21  23
ENDBRANCH   7  21
BRANCH   4  33
ATOM     33  O   UNL     1      -3.689  -5.569   3.023  0.00  0.00    -0.388 OA
ATOM     34  H   UNL     1      -4.222  -5.398   3.812  0.00  0.00    +0.210 HD
ENDBRANCH   4  33
BRANCH   3  35
ATOM     35  C   UNL     1      -3.314  -6.277   0.312  0.00  0.00    +0.314 C 
ATOM     36  O   UNL     1      -3.698  -6.397  -0.827  0.00  0.00    -0.250 OA
BRANCH  35  37
ATOM     37  O   UNL     1      -3.251  -7.350   1.116  0.00  0.00    -0.465 OA
BRANCH  37  38
ATOM     38  C   UNL     1      -3.654  -8.602   0.559  0.00  0.00    +0.229 C 
ATOM     39  C   UNL     1      -3.514  -9.700   1.616  0.00  0.00    +0.048 C 
ENDBRANCH  37  38
ENDBRANCH  35  37
ENDBRANCH   3  35
TORSDOF 11
