REMARK  Name = ZINC08889977
REMARK  7 active torsions:
REMARK  status: ('A' for Active; 'I' for Inactive)
REMARK    1  A    between atoms: C_1  and  C_2
REMARK    2  A    between atoms: C_2  and  C_3
REMARK    3  A    between atoms: C_6  and  C_9
REMARK    4  A    between atoms: C_9  and  C_11
REMARK    5  A    between atoms: C_9  and  N_12
REMARK    6  A    between atoms: C_13  and  C_15
REMARK    7  A    between atoms: C_15  and  N_16
REMARK                            x       y       z     vdW  Elec       q    Type
REMARK                         _______ _______ _______ _____ _____    ______ ____
ROOT
ATOM      1  N   UNL     1      -0.782   3.062   0.025  0.00  0.00    -0.215 N 
ATOM      2  C   UNL     1       0.556   3.246   0.014  0.00  0.00    +0.251 C 
ATOM      3  O   UNL     1       1.154   4.301   0.014  0.00  0.00    -0.272 OA
ATOM      4  C   UNL     1       1.147   1.860   0.001  0.00  0.00    +0.138 C 
ATOM      5  C   UNL     1       2.019   1.640  -1.242  0.00  0.00    +0.045 C 
ATOM      6  C   UNL     1       3.435   1.949  -0.705  0.00  0.00    +0.038 C 
ATOM      7  C   UNL     1       3.364   1.676   0.783  0.00  0.00    -0.042 A 
ATOM      8  C   UNL     1       2.041   1.627   1.189  0.00  0.00    -0.012 A 
ATOM      9  C   UNL     1       1.740   1.390   2.519  0.00  0.00    +0.006 A 
ATOM     10  C   UNL     1       2.751   1.202   3.441  0.00  0.00    +0.000 A 
ATOM     11  C   UNL     1       4.072   1.251   3.035  0.00  0.00    +0.000 A 
ATOM     12  C   UNL     1       4.376   1.488   1.708  0.00  0.00    +0.004 A 
ATOM     13  N   UNL     1      -0.011   0.966   0.007  0.00  0.00    -0.281 N 
ATOM     14  C   UNL     1      -1.100   1.761   0.016  0.00  0.00    +0.310 C 
ATOM     15  O   UNL     1      -2.242   1.344   0.019  0.00  0.00    -0.252 OA
ATOM     16  H   UNL     1       0.002  -0.004   0.002  0.00  0.00    +0.152 HD
ENDROOT
BRANCH   1  17
ATOM     17  C   UNL     1      -1.763   4.150   0.039  0.00  0.00    +0.213 C 
BRANCH  17  19
ATOM     18  N   UNL     1      -3.002   5.515  -1.610  0.00  0.00    -0.307 N 
ATOM     19  C   UNL     1      -2.112   4.530  -1.377  0.00  0.00    +0.231 C 
ATOM     20  O   UNL     1      -1.593   3.949  -2.306  0.00  0.00    -0.274 OA
ATOM     21  H   UNL     1      -3.417   5.979  -0.867  0.00  0.00    +0.149 HD
BRANCH  18  22
ATOM     22  C   UNL     1      -3.341   5.884  -2.987  0.00  0.00    +0.100 C 
ATOM     23  C   UNL     1      -2.313   6.887  -3.514  0.00  0.00    +0.033 C 
BRANCH  22  27
ATOM     24  C   UNL     1      -7.229   7.652  -3.069  0.00  0.00    -0.048 A 
ATOM     25  C   UNL     1      -6.844   6.783  -4.072  0.00  0.00    +0.004 A 
ATOM     26  C   UNL     1      -5.586   6.211  -4.046  0.00  0.00    +0.006 A 
ATOM     27  C   UNL     1      -4.713   6.508  -3.016  0.00  0.00    -0.027 A 
ATOM     28  C   UNL     1      -5.100   7.373  -2.010  0.00  0.00    +0.006 A 
ATOM     29  C   UNL     1      -6.356   7.949  -2.039  0.00  0.00    +0.004 A 
BRANCH  24  31
ATOM     30  C   UNL     1      -9.586   7.380  -2.348  0.00  0.00    +0.009 C 
ATOM     31  C   UNL     1      -8.600   8.277  -3.099  0.00  0.00    +0.032 C 
ENDBRANCH  24  31
ENDBRANCH  22  27
ENDBRANCH  18  22
ENDBRANCH  17  19
ENDBRANCH   1  17
TORSDOF 5
