REMARK  Name = ZINC12875333
REMARK  10 active torsions:
REMARK  status: ('A' for Active; 'I' for Inactive)
REMARK    1  A    between atoms: C_1  and  C_2
REMARK    2  A    between atoms: C_5  and  C_8
REMARK    3  A    between atoms: C_9  and  C_30
REMARK    4  A    between atoms: C_17  and  C_19
REMARK    5  A    between atoms: C_19  and  N_55
REMARK    6  A    between atoms: C_20  and  N_55
REMARK    7  A    between atoms: C_21  and  C_22
REMARK    8  A    between atoms: C_21  and  N_55
REMARK    9  A    between atoms: C_27  and  O_28
REMARK   10  A    between atoms: O_28  and  C_29
REMARK                            x       y       z     vdW  Elec       q    Type
REMARK                         _______ _______ _______ _____ _____    ______ ____
ROOT
ATOM      1  C   UNL     1      -2.826   3.022   4.572  0.00  0.00    +0.007 A 
ATOM      2  C   UNL     1      -3.908   3.765   4.237  0.00  0.00    -0.003 A 
ATOM      3  S   UNL     1      -3.885   3.748   2.455  0.00  0.00    -0.073 S 
ATOM      4  C   UNL     1      -2.438   2.754   2.203  0.00  0.00    +0.116 A 
ATOM      5  C   UNL     1      -2.006   2.458   3.506  0.00  0.00    +0.080 A 
ATOM      6  C   UNL     1      -0.829   1.649   3.601  0.00  0.00    +0.260 A 
ATOM      7  O   UNL     1      -0.377   1.339   4.689  0.00  0.00    -0.267 OA
ATOM      8  N   UNL     1      -0.231   1.232   2.469  0.00  0.00    -0.312 N 
ATOM      9  H   UNL     1       0.565   0.681   2.527  0.00  0.00    +0.170 HD
ATOM     10  C   UNL     1      -0.718   1.572   1.248  0.00  0.00    +0.094 A 
ATOM     11  N   UNL     1      -1.790   2.308   1.129  0.00  0.00    -0.229 NA
ATOM     12  C   UNL     1      -4.895   4.443   5.152  0.00  0.00    +0.052 C 
ENDROOT
BRANCH   1  17
ATOM     13  C   UNL     1      -1.488   2.108  10.097  0.00  0.00    +0.044 C 
ATOM     14  C   UNL     1      -1.838   2.348   8.651  0.00  0.00    -0.050 A 
ATOM     15  C   UNL     1      -3.015   1.837   8.134  0.00  0.00    +0.004 A 
ATOM     16  C   UNL     1      -3.341   2.053   6.810  0.00  0.00    +0.009 A 
ATOM     17  C   UNL     1      -2.482   2.787   5.994  0.00  0.00    -0.016 A 
ATOM     18  C   UNL     1      -1.294   3.295   6.520  0.00  0.00    +0.009 A 
ATOM     19  C   UNL     1      -0.981   3.077   7.846  0.00  0.00    +0.004 A 
ENDBRANCH   1  17
BRANCH  10  20
ATOM     20  C   UNL     1      -0.013   1.086   0.008  0.00  0.00    -0.003 C 
BRANCH  20  22
ATOM     21  C   UNL     1      -0.640   3.036  -1.283  0.00  0.00    -0.095 C 
ATOM     22  N   UNL     1      -0.751   1.565  -1.179  0.00  0.00    +0.385 N 
ATOM     23  H   UNL     1      -1.741   1.312  -1.081  0.00  0.00    -0.081 HD
BRANCH  22  24
ATOM     24  C   UNL     1      -0.211   0.930  -2.400  0.00  0.00    -0.039 C 
BRANCH  24  25
ATOM     25  C   UNL     1      -1.114   1.262  -3.560  0.00  0.00    -0.022 A 
ATOM     26  C   UNL     1      -2.052   0.343  -3.990  0.00  0.00    +0.005 A 
ATOM     27  C   UNL     1      -2.884   0.648  -5.052  0.00  0.00    +0.000 A 
ATOM     28  C   UNL     1      -2.773   1.868  -5.692  0.00  0.00    +0.004 A 
ATOM     29  C   UNL     1      -1.834   2.788  -5.269  0.00  0.00    +0.046 A 
ATOM     30  C   UNL     1      -1.001   2.487  -4.200  0.00  0.00    +0.121 A 
BRANCH  30  31
ATOM     31  O   UNL     1      -0.076   3.390  -3.783  0.00  0.00    -0.495 OA
ATOM     32  C   UNL     1      -0.016   4.631  -4.489  0.00  0.00    +0.277 C 
ENDBRANCH  30  31
ENDBRANCH  24  25
ENDBRANCH  22  24
ENDBRANCH  20  22
ENDBRANCH  10  20
TORSDOF 6
