REMARK  Name = ZINC14987212
REMARK  11 active torsions:
REMARK  status: ('A' for Active; 'I' for Inactive)
REMARK    1  A    between atoms: C_1  and  O_2
REMARK    2  A    between atoms: O_2  and  C_3
REMARK    3  A    between atoms: C_3  and  C_4
REMARK    4  A    between atoms: C_7  and  C_9
REMARK    5  A    between atoms: C_9  and  N_10
REMARK    6  A    between atoms: C_14  and  C_24
REMARK    7  A    between atoms: C_15  and  O_22
REMARK    8  A    between atoms: O_22  and  C_23
REMARK    9  A    between atoms: C_31  and  C_33
REMARK   10  A    between atoms: C_33  and  O_35
REMARK   11  A    between atoms: O_35  and  C_36
REMARK                            x       y       z     vdW  Elec       q    Type
REMARK                         _______ _______ _______ _____ _____    ______ ____
ROOT
ATOM      1  N   UNL     1      -0.310   3.599   2.485  0.00  0.00    -0.293 NA
ATOM      2  C   UNL     1       0.239   4.203   1.263  0.00  0.00    +0.091 C 
ATOM      3  C   UNL     1      -0.903   4.389   0.266  0.00  0.00    +0.070 C 
ATOM      4  C   UNL     1      -1.051   3.186  -0.634  0.00  0.00    +0.039 A 
ATOM      5  C   UNL     1      -1.558   3.417  -1.904  0.00  0.00    +0.098 A 
ATOM      6  C   UNL     1      -1.772   2.289  -2.811  0.00  0.00    +0.139 A 
ATOM      7  C   UNL     1      -1.463   1.025  -2.350  0.00  0.00    +0.116 A 
ATOM      8  C   UNL     1      -0.949   0.882  -1.060  0.00  0.00    +0.255 A 
ATOM      9  O   UNL     1      -0.687  -0.237  -0.650  0.00  0.00    -0.268 OA
ATOM     10  N   UNL     1      -0.730   1.944  -0.250  0.00  0.00    -0.310 N 
ATOM     11  C   UNL     1      -0.121   1.655   1.052  0.00  0.00    +0.140 C 
ATOM     12  C   UNL     1      -0.919   2.296   2.189  0.00  0.00    +0.106 C 
ENDROOT
BRANCH   5  13
ATOM     13  C   UNL     1      -1.880   4.788  -2.337  0.00  0.00    +0.253 C 
ATOM     14  O   UNL     1      -3.028   5.186  -2.292  0.00  0.00    -0.270 OA
ATOM     15  N   UNL     1      -0.902   5.601  -2.782  0.00  0.00    -0.284 N 
ATOM     16  C   UNL     1       0.473   5.105  -2.934  0.00  0.00    +0.109 C 
ATOM     17  C   UNL     1       0.947   5.397  -4.361  0.00  0.00    +0.019 C 
ATOM     18  C   UNL     1       0.781   6.890  -4.654  0.00  0.00    +0.004 C 
ATOM     19  C   UNL     1      -0.697   7.271  -4.549  0.00  0.00    +0.034 C 
ATOM     20  C   UNL     1      -1.190   6.999  -3.129  0.00  0.00    +0.185 C 
BRANCH  20  21
ATOM     21  C   UNL     1      -2.676   7.241  -3.058  0.00  0.00    +0.328 C 
ATOM     22  O   UNL     1      -3.418   6.675  -3.827  0.00  0.00    -0.249 OA
BRANCH  21  23
ATOM     23  O   UNL     1      -3.176   8.084  -2.141  0.00  0.00    -0.467 OA
ATOM     24  C   UNL     1      -4.616   8.268  -2.131  0.00  0.00    +0.280 C 
ENDBRANCH  21  23
ENDBRANCH  20  21
ENDBRANCH   5  13
BRANCH   6  25
ATOM     25  O   UNL     1      -2.258   2.478  -4.060  0.00  0.00    -0.494 OA
ATOM     26  C   UNL     1      -2.322   1.333  -4.911  0.00  0.00    +0.277 C 
ENDBRANCH   6  25
BRANCH   1  27
ATOM     27  C   UNL     1      -1.278   4.498   3.127  0.00  0.00    +0.158 C 
BRANCH  27  31
ATOM     28  C   UNL     1      -2.657   2.853   6.081  0.00  0.00    +0.131 A 
ATOM     29  C   UNL     1      -1.658   3.538   6.665  0.00  0.00    +0.047 A 
ATOM     30  C   UNL     1      -0.998   4.253   5.640  0.00  0.00    +0.046 A 
ATOM     31  C   UNL     1      -1.633   3.962   4.491  0.00  0.00    +0.119 A 
ATOM     32  O   UNL     1      -2.641   3.118   4.765  0.00  0.00    -0.461 OA
BRANCH  28  33
ATOM     33  C   UNL     1      -3.633   1.945   6.785  0.00  0.00    +0.233 C 
BRANCH  33  35
ATOM     34  C   UNL     1      -5.763   1.931   7.885  0.00  0.00    +0.194 C 
ATOM     35  O   UNL     1      -4.771   2.702   7.203  0.00  0.00    -0.375 OA
ENDBRANCH  33  35
ENDBRANCH  28  33
ENDBRANCH  27  31
ENDBRANCH   1  27
TORSDOF 8
