REMARK  Name = ZINC07790665
REMARK  9 active torsions:
REMARK  status: ('A' for Active; 'I' for Inactive)
REMARK    1  A    between atoms: C_1  and  C_2
REMARK    2  A    between atoms: C_2  and  C_3
REMARK    3  A    between atoms: C_4  and  C_28
REMARK    4  A    between atoms: C_5  and  C_13
REMARK    5  A    between atoms: C_13  and  O_15
REMARK    6  A    between atoms: O_15  and  C_16
REMARK    7  A    between atoms: C_16  and  C_17
REMARK    8  A    between atoms: N_19  and  C_20
REMARK    9  A    between atoms: C_21  and  C_25
REMARK                            x       y       z     vdW  Elec       q    Type
REMARK                         _______ _______ _______ _____ _____    ______ ____
ROOT
ATOM      1  O   UNL     1      -0.018   1.448   0.010  0.00  0.00    -0.452 OA
ENDROOT
BRANCH   1   2
ATOM      2  C   UNL     1       1.174   2.076   0.002  0.00  0.00    +0.341 C 
ATOM      3  O   UNL     1       2.202   1.428  -0.011  0.00  0.00    -0.245 OA
BRANCH   2   6
ATOM      4  C   UNL     1       1.324   5.655   1.171  0.00  0.00    +0.045 A 
ATOM      5  C   UNL     1       1.265   4.264   1.202  0.00  0.00    -0.015 A 
ATOM      6  C   UNL     1       1.232   3.552   0.009  0.00  0.00    +0.073 A 
ATOM      7  C   UNL     1       1.248   4.292  -1.201  0.00  0.00    +0.015 A 
ATOM      8  C   UNL     1       1.211   3.651  -2.447  0.00  0.00    +0.011 A 
ATOM      9  C   UNL     1       1.230   4.396  -3.588  0.00  0.00    +0.001 A 
ATOM     10  C   UNL     1       1.284   5.787  -3.532  0.00  0.00    +0.002 A 
ATOM     11  C   UNL     1       1.321   6.441  -2.339  0.00  0.00    +0.028 A 
ATOM     12  C   UNL     1       1.304   5.706  -1.140  0.00  0.00    +0.072 A 
ATOM     13  N   UNL     1       1.339   6.322   0.045  0.00  0.00    -0.251 NA
ATOM     14  C   UNL     1       1.243   3.534   2.521  0.00  0.00    +0.046 C 
BRANCH   4  16
ATOM     15  C   UNL     1      -0.062   6.727   2.926  0.00  0.00    +0.010 C 
ATOM     16  C   UNL     1       1.365   6.415   2.472  0.00  0.00    +0.052 C 
ENDBRANCH   4  16
ENDBRANCH   2   6
ENDBRANCH   1   2
BRANCH   1  17
ATOM     17  C   UNL     1       0.002  -0.004   0.002  0.00  0.00    +0.328 C 
BRANCH  17  18
ATOM     18  C   UNL     1      -1.412  -0.526   0.013  0.00  0.00    +0.255 C 
ATOM     19  O   UNL     1      -2.344   0.250   0.026  0.00  0.00    -0.272 OA
ATOM     20  N   UNL     1      -1.640  -1.854   0.008  0.00  0.00    -0.277 N 
ATOM     21  H   UNL     1      -0.894  -2.474  -0.003  0.00  0.00    +0.155 HD
BRANCH  20  22
ATOM     22  C   UNL     1      -2.941  -2.334   0.018  0.00  0.00    +0.084 A 
ATOM     23  C   UNL     1      -3.374  -3.655   0.009  0.00  0.00    +0.065 A 
ATOM     24  C   UNL     1      -4.801  -3.870   0.027  0.00  0.00    +0.022 A 
ATOM     25  C   UNL     1      -5.587  -2.778   0.040  0.00  0.00    +0.048 A 
ATOM     26  S   UNL     1      -4.420  -1.433   0.036  0.00  0.00    -0.081 S 
BRANCH  23  27
ATOM     27  C   UNL     1      -2.428  -4.774  -0.013  0.00  0.00    +0.244 C 
ATOM     28  O   UNL     1      -1.230  -4.558  -0.025  0.00  0.00    -0.270 OA
ATOM     29  N   UNL     1      -2.884  -6.042  -0.021  0.00  0.00    -0.325 N 
ATOM     30  H   UNL     1      -3.838  -6.214  -0.012  0.00  0.00    +0.145 HD
ATOM     31  H   UNL     1      -2.258  -6.783  -0.036  0.00  0.00    +0.145 HD
ENDBRANCH  23  27
ENDBRANCH  20  22
ENDBRANCH  17  18
ENDBRANCH   1  17
TORSDOF 7
