REMARK  Name = ZINC05171706
REMARK  5 active torsions:
REMARK  status: ('A' for Active; 'I' for Inactive)
REMARK    1  A    between atoms: C_4  and  C_7
REMARK    2  A    between atoms: C_7  and  N_8
REMARK    3  A    between atoms: N_16  and  N_17
REMARK    4  A    between atoms: N_17  and  S_18
REMARK    5  A    between atoms: S_18  and  C_21
REMARK                            x       y       z     vdW  Elec       q    Type
REMARK                         _______ _______ _______ _____ _____    ______ ____
ROOT
ATOM      1  N   UNL     1       4.152  -0.952   1.338  0.00  0.00    -0.261 N 
ATOM      2  C   UNL     1       4.944  -0.079   2.074  0.00  0.00    +0.046 A 
ATOM      3  C   UNL     1       5.496   1.158   1.758  0.00  0.00    +0.024 A 
ATOM      4  C   UNL     1       6.259   1.834   2.689  0.00  0.00    +0.002 A 
ATOM      5  C   UNL     1       6.485   1.292   3.943  0.00  0.00    +0.001 A 
ATOM      6  C   UNL     1       5.945   0.065   4.274  0.00  0.00    +0.012 A 
ATOM      7  C   UNL     1       5.174  -0.623   3.344  0.00  0.00    +0.029 A 
ATOM      8  C   UNL     1       4.467  -1.924   3.375  0.00  0.00    +0.156 C 
ATOM      9  N   UNL     1       4.410  -2.779   4.370  0.00  0.00    -0.136 NA
ATOM     10  C   UNL     1       3.837  -2.048   2.050  0.00  0.00    +0.272 C 
ATOM     11  O   UNL     1       3.153  -2.979   1.666  0.00  0.00    -0.268 OA
ENDROOT
BRANCH   1  12
ATOM     12  C   UNL     1       3.711  -0.707  -0.038  0.00  0.00    +0.149 C 
BRANCH  12  16
ATOM     13  C   UNL     1      -0.017   1.378   0.010  0.00  0.00    +0.000 A 
ATOM     14  C   UNL     1       1.171   2.086   0.002  0.00  0.00    +0.000 A 
ATOM     15  C   UNL     1       2.377   1.411  -0.013  0.00  0.00    +0.005 A 
ATOM     16  C   UNL     1       2.396   0.029  -0.020  0.00  0.00    -0.030 A 
ATOM     17  C   UNL     1       1.208  -0.679  -0.012  0.00  0.00    +0.005 A 
ATOM     18  C   UNL     1       0.002  -0.004   0.002  0.00  0.00    +0.000 A 
ENDBRANCH  12  16
ENDBRANCH   1  12
BRANCH   9  19
ATOM     19  N   UNL     1       5.017  -2.520   5.479  0.00  0.00    +0.007 NA
BRANCH  19  20
ATOM     20  S   UNL     1       4.945  -3.599   6.734  0.00  0.00    +0.108 S 
ATOM     21  O   UNL     1       3.591  -3.631   7.164  0.00  0.00    -0.147 OA
ATOM     22  O   UNL     1       5.638  -4.764   6.308  0.00  0.00    -0.147 OA
BRANCH  20  23
ATOM     23  C   UNL     1       5.879  -2.915   8.062  0.00  0.00    +0.112 A 
ATOM     24  C   UNL     1       7.230  -3.186   8.169  0.00  0.00    +0.029 A 
ATOM     25  C   UNL     1       7.962  -2.650   9.211  0.00  0.00    +0.002 A 
ATOM     26  C   UNL     1       7.344  -1.841  10.147  0.00  0.00    +0.000 A 
ATOM     27  C   UNL     1       5.993  -1.569  10.040  0.00  0.00    +0.002 A 
ATOM     28  C   UNL     1       5.261  -2.102   8.995  0.00  0.00    +0.029 A 
ENDBRANCH  20  23
ENDBRANCH  19  20
ENDBRANCH   9  19
TORSDOF 5
