REMARK  Name = ZINC09186662
REMARK  7 active torsions:
REMARK  status: ('A' for Active; 'I' for Inactive)
REMARK    1  A    between atoms: C_1  and  N_46
REMARK    2  A    between atoms: C_9  and  O_25
REMARK    3  A    between atoms: C_11  and  C_14
REMARK    4  A    between atoms: C_16  and  O_23
REMARK    5  A    between atoms: C_17  and  O_21
REMARK    6  A    between atoms: O_21  and  C_22
REMARK    7  A    between atoms: O_23  and  C_24
REMARK                            x       y       z     vdW  Elec       q    Type
REMARK                         _______ _______ _______ _____ _____    ______ ____
ROOT
ATOM      1  C   UNL     1      10.204   0.373   0.812  0.00  0.00    -0.096 C 
ATOM      2  C   UNL     1       8.453   1.821   1.650  0.00  0.00    -0.074 C 
ATOM      3  C   UNL     1       6.932   1.961   1.753  0.00  0.00    +0.018 C 
ATOM      4  C   UNL     1       6.411   0.846   2.654  0.00  0.00    -0.027 A 
ATOM      5  C   UNL     1       7.186  -0.236   2.906  0.00  0.00    -0.021 A 
ATOM      6  S   UNL     1       6.208  -1.256   3.976  0.00  0.00    -0.080 S 
ATOM      7  C   UNL     1       4.815  -0.268   4.084  0.00  0.00    +0.080 A 
ATOM      8  C   UNL     1       5.106   0.846   3.287  0.00  0.00    +0.067 A 
ATOM      9  C   UNL     1       4.059   1.893   3.172  0.00  0.00    +0.220 C 
ATOM     10  N   UNL     1       2.875   1.624   3.648  0.00  0.00    -0.223 NA
ATOM     11  C   UNL     1       2.473   0.335   4.197  0.00  0.00    +0.224 C 
ATOM     12  N   UNL     1       3.623  -0.404   4.753  0.00  0.00    -0.313 N 
ATOM     13  C   UNL     1       8.563  -0.487   2.378  0.00  0.00    -0.036 C 
ATOM     14  H   UNL     1       3.541  -0.954   5.547  0.00  0.00    +0.149 HD
ATOM     15  N   UNL     1       8.792   0.441   1.244  0.00  0.00    +0.381 N 
ATOM     16  H   UNL     1       8.189   0.166   0.460  0.00  0.00    -0.082 HD
ENDROOT
BRANCH  11  17
ATOM     17  C   UNL     1       1.841  -0.489   3.105  0.00  0.00    -0.001 A 
ATOM     18  C   UNL     1       1.207   0.137   2.048  0.00  0.00    +0.056 A 
ATOM     19  C   UNL     1       0.626  -0.619   1.042  0.00  0.00    +0.163 A 
ATOM     20  C   UNL     1       0.678  -2.008   1.102  0.00  0.00    +0.175 A 
ATOM     21  C   UNL     1       1.319  -2.630   2.162  0.00  0.00    +0.063 A 
ATOM     22  C   UNL     1       1.898  -1.869   3.162  0.00  0.00    +0.026 A 
ATOM     23 BR   UNL     1       1.397  -4.518   2.244  0.00  0.00    -0.046 Br
BRANCH  20  24
ATOM     24  O   UNL     1       0.105  -2.754   0.119  0.00  0.00    -0.490 OA
ATOM     25  C   UNL     1       0.927  -3.097  -0.998  0.00  0.00    +0.277 C 
ENDBRANCH  20  24
BRANCH  19  26
ATOM     26  O   UNL     1       0.002  -0.004   0.002  0.00  0.00    -0.491 OA
ATOM     27  C   UNL     1      -0.017   1.425   0.010  0.00  0.00    +0.277 C 
ENDBRANCH  19  26
ENDBRANCH  11  17
BRANCH   9  28
ATOM     28  O   UNL     1       4.323   3.087   2.591  0.00  0.00    -0.492 OA
ATOM     29  H   UNL     1       3.568   3.690   2.571  0.00  0.00    +0.294 HD
ENDBRANCH   9  28
TORSDOF 4
