REMARK  Name = ZINC45470288
REMARK  12 active torsions:
REMARK  status: ('A' for Active; 'I' for Inactive)
REMARK    1  A    between atoms: C_1  and  C_2
REMARK    2  A    between atoms: C_2  and  C_4
REMARK    3  A    between atoms: C_2  and  N_15
REMARK    4  A    between atoms: C_7  and  N_10
REMARK    5  A    between atoms: N_15  and  C_16
REMARK    6  A    between atoms: N_15  and  C_17
REMARK    7  A    between atoms: C_17  and  C_18
REMARK    8  A    between atoms: N_20  and  N_21
REMARK    9  A    between atoms: C_24  and  C_28
REMARK   10  A    between atoms: C_24  and  C_29
REMARK   11  A    between atoms: C_29  and  C_30
REMARK   12  A    between atoms: C_30  and  C_31
REMARK                            x       y       z     vdW  Elec       q    Type
REMARK                         _______ _______ _______ _____ _____    ______ ____
ROOT
ATOM      1  C   UNL     1       0.751  -0.373  -3.634  0.00  0.00    +0.213 C 
ATOM      2  O   UNL     1       1.791  -0.989  -3.534  0.00  0.00    -0.276 OA
ATOM      3  N   UNL     1       0.286  -0.029  -4.851  0.00  0.00    -0.225 N 
ATOM      4  H   UNL     1      -0.545   0.465  -4.931  0.00  0.00    +0.173 HD
ENDROOT
BRANCH   3   5
ATOM      5  N   UNL     1       1.004  -0.383  -6.001  0.00  0.00    -0.137 N 
ATOM      6  C   UNL     1       1.740   0.479  -6.729  0.00  0.00    +0.263 C 
ATOM      7  O   UNL     1       1.901   1.662  -6.521  0.00  0.00    -0.271 OA
ATOM      8  C   UNL     1       2.327  -0.340  -7.862  0.00  0.00    +0.112 C 
ATOM      9  N   UNL     1       1.804  -1.695  -7.618  0.00  0.00    -0.284 N 
ATOM     10  C   UNL     1       1.047  -1.621  -6.508  0.00  0.00    +0.326 C 
ATOM     11  O   UNL     1       0.465  -2.571  -6.022  0.00  0.00    -0.251 OA
ATOM     12  C   UNL     1       1.843   0.188  -9.214  0.00  0.00    +0.041 C 
ATOM     13  H   UNL     1       1.974  -2.487  -8.151  0.00  0.00    +0.151 HD
BRANCH   8  14
ATOM     14  C   UNL     1       3.855  -0.333  -7.796  0.00  0.00    +0.040 C 
BRANCH  14  15
ATOM     15  C   UNL     1       4.420  -1.165  -8.949  0.00  0.00    +0.038 C 
BRANCH  15  16
ATOM     16  C   UNL     1       5.925  -1.158  -8.884  0.00  0.00    -0.047 A 
ATOM     17  C   UNL     1       6.641  -0.175  -9.542  0.00  0.00    +0.003 A 
ATOM     18  C   UNL     1       8.022  -0.169  -9.482  0.00  0.00    +0.000 A 
ATOM     19  C   UNL     1       8.687  -1.145  -8.764  0.00  0.00    +0.000 A 
ATOM     20  C   UNL     1       7.971  -2.128  -8.106  0.00  0.00    +0.000 A 
ATOM     21  C   UNL     1       6.590  -2.131  -8.162  0.00  0.00    +0.003 A 
ENDBRANCH  15  16
ENDBRANCH  14  15
ENDBRANCH   8  14
ENDBRANCH   3   5
BRANCH   1  22
ATOM     22  C   UNL     1      -0.021   0.009  -2.397  0.00  0.00    +0.021 C 
BRANCH  22  23
ATOM     23  N   UNL     1       0.690  -0.478  -1.207  0.00  0.00    +0.388 N 
ATOM     24  C   UNL     1       0.710  -1.947  -1.215  0.00  0.00    -0.095 C 
ATOM     25  H   UNL     1       1.636  -0.129  -1.214  0.00  0.00    -0.081 HD
BRANCH  23  27
ATOM     26  C   UNL     1      -0.019   1.526   0.010  0.00  0.00    -0.008 C 
ATOM     27  C   UNL     1       0.002  -0.004   0.002  0.00  0.00    -0.041 C 
BRANCH  27  28
ATOM     28  C   UNL     1       0.731  -0.503   1.223  0.00  0.00    -0.061 A 
ATOM     29  C   UNL     1       2.114  -0.513   1.245  0.00  0.00    +0.004 A 
ATOM     30  C   UNL     1       2.784  -0.970   2.363  0.00  0.00    +0.028 A 
ATOM     31  C   UNL     1       2.069  -1.419   3.465  0.00  0.00    +0.067 A 
ATOM     32  C   UNL     1       0.681  -1.408   3.439  0.00  0.00    +0.028 A 
ATOM     33  C   UNL     1       0.016  -0.945   2.321  0.00  0.00    +0.004 A 
BRANCH  31  34
ATOM     34  N   UNL     1       2.747  -1.883   4.601  0.00  0.00    -0.220 N 
ATOM     35  C   UNL     1       2.194  -2.352   5.736  0.00  0.00    +0.225 A 
ATOM     36  N   UNL     1       3.163  -2.684   6.551  0.00  0.00    -0.222 NA
ATOM     37  C   UNL     1       4.340  -2.443   5.976  0.00  0.00    +0.245 A 
ATOM     38  N   UNL     1       4.138  -1.958   4.779  0.00  0.00    -0.154 NA
ENDBRANCH  31  34
ENDBRANCH  27  28
ENDBRANCH  23  27
ENDBRANCH  22  23
ENDBRANCH   1  22
TORSDOF 9
