REMARK  Name = ZINC22680489
REMARK  12 active torsions:
REMARK  status: ('A' for Active; 'I' for Inactive)
REMARK    1  A    between atoms: C_1  and  C_2
REMARK    2  A    between atoms: C_2  and  C_3
REMARK    3  A    between atoms: C_3  and  N_4
REMARK    4  A    between atoms: N_11  and  C_14
REMARK    5  A    between atoms: C_14  and  C_15
REMARK    6  A    between atoms: C_15  and  C_16
REMARK    7  A    between atoms: N_18  and  C_19
REMARK    8  A    between atoms: C_19  and  C_20
REMARK    9  A    between atoms: C_20  and  C_22
REMARK   10  A    between atoms: C_20  and  N_30
REMARK   11  A    between atoms: C_27  and  O_28
REMARK   12  A    between atoms: O_28  and  C_29
REMARK                            x       y       z     vdW  Elec       q    Type
REMARK                         _______ _______ _______ _____ _____    ______ ____
ROOT
ATOM      1  C   UNL     1       1.147  -0.641   3.061  0.00  0.00    +0.215 C 
ATOM      2  O   UNL     1       1.800  -0.029   3.880  0.00  0.00    -0.276 OA
ATOM      3  N   UNL     1       0.314   0.020   2.233  0.00  0.00    -0.316 N 
ATOM      4  H   UNL     1      -0.278  -0.535   1.490  0.00  0.00    +0.149 HD
ENDROOT
BRANCH   1   5
ATOM      5  C   UNL     1       1.268  -2.141   2.969  0.00  0.00    +0.117 C 
BRANCH   5   6
ATOM      6  C   UNL     1       2.271  -2.636   4.012  0.00  0.00    +0.136 C 
BRANCH   6  14
ATOM      7  N   UNL     1       3.087  -6.093   3.319  0.00  0.00    -0.292 N 
ATOM      8  C   UNL     1       2.060  -6.286   4.241  0.00  0.00    +0.070 A 
ATOM      9  C   UNL     1       1.469  -7.417   4.784  0.00  0.00    +0.028 A 
ATOM     10  C   UNL     1       0.445  -7.284   5.700  0.00  0.00    +0.002 A 
ATOM     11  C   UNL     1       0.006  -6.027   6.080  0.00  0.00    +0.002 A 
ATOM     12  C   UNL     1       0.589  -4.895   5.546  0.00  0.00    +0.028 A 
ATOM     13  C   UNL     1       1.622  -5.018   4.628  0.00  0.00    +0.070 A 
ATOM     14  N   UNL     1       2.389  -4.094   3.923  0.00  0.00    -0.292 N 
ATOM     15  C   UNL     1       3.260  -4.768   3.149  0.00  0.00    +0.330 A 
ATOM     16  O   UNL     1       4.080  -4.258   2.409  0.00  0.00    -0.246 OA
BRANCH   7  17
ATOM     17  C   UNL     1       3.848  -7.150   2.650  0.00  0.00    +0.127 C 
BRANCH  17  19
ATOM     18  C   UNL     1       5.870  -8.610   2.792  0.00  0.00    +0.005 C 
ATOM     19  C   UNL     1       5.075  -7.506   3.491  0.00  0.00    +0.018 C 
ENDBRANCH  17  19
ENDBRANCH   7  17
ENDBRANCH   6  14
ENDBRANCH   5   6
ENDBRANCH   1   5
BRANCH   3  20
ATOM     20  C   UNL     1       0.196   1.477   2.322  0.00  0.00    +0.093 C 
BRANCH  20  21
ATOM     21  C   UNL     1      -0.680   1.989   1.178  0.00  0.00    -0.017 C 
BRANCH  21  22
ATOM     22  C   UNL     1      -0.698   3.496   1.194  0.00  0.00    -0.018 A 
ATOM     23  C   UNL     1       0.202   4.207   0.423  0.00  0.00    +0.005 A 
ATOM     24  C   UNL     1       0.186   5.589   0.438  0.00  0.00    +0.000 A 
ATOM     25  C   UNL     1      -0.731   6.264   1.223  0.00  0.00    +0.004 A 
ATOM     26  C   UNL     1      -1.632   5.558   1.995  0.00  0.00    +0.046 A 
ATOM     27  C   UNL     1      -1.622   4.171   1.978  0.00  0.00    +0.122 A 
BRANCH  27  28
ATOM     28  O   UNL     1      -2.512   3.474   2.733  0.00  0.00    -0.495 OA
ATOM     29  C   UNL     1      -3.434   4.235   3.516  0.00  0.00    +0.277 C 
ENDBRANCH  27  28
ENDBRANCH  21  22
BRANCH  21  30
ATOM     30  N   UNL     1      -0.137   1.520  -0.103  0.00  0.00    +0.385 N 
ATOM     31  C   UNL     1      -0.692   2.303  -1.237  0.00  0.00    -0.078 C 
ATOM     32  C   UNL     1       0.334   2.060  -2.372  0.00  0.00    -0.020 C 
ATOM     33  C   UNL     1       1.685   2.046  -1.620  0.00  0.00    -0.020 C 
ATOM     34  C   UNL     1       1.329   1.712  -0.160  0.00  0.00    -0.078 C 
ATOM     35  H   UNL     1      -0.406   0.455  -0.171  0.00  0.00    -0.081 HD
ENDBRANCH  21  30
ENDBRANCH  20  21
ENDBRANCH   3  20
TORSDOF 10
