REMARK  Name = ZINC06831048
REMARK  8 active torsions:
REMARK  status: ('A' for Active; 'I' for Inactive)
REMARK    1  A    between atoms: C_1  and  C_2
REMARK    2  A    between atoms: C_2  and  C_3
REMARK    3  A    between atoms: C_8  and  N_9
REMARK    4  A    between atoms: C_12  and  C_17
REMARK    5  A    between atoms: C_17  and  N_18
REMARK    6  A    between atoms: N_21  and  C_24
REMARK    7  A    between atoms: C_27  and  O_30
REMARK    8  A    between atoms: O_30  and  C_31
REMARK                            x       y       z     vdW  Elec       q    Type
REMARK                         _______ _______ _______ _____ _____    ______ ____
ROOT
ATOM      1  N   UNL     1      -1.486  -0.205  -2.434  0.00  0.00    -0.283 N 
ATOM      2  C   UNL     1      -2.150  -0.467  -3.617  0.00  0.00    +0.224 A 
ATOM      3  N   UNL     1      -1.543  -0.255  -4.782  0.00  0.00    -0.198 NA
ATOM      4  C   UNL     1      -2.177  -0.505  -5.914  0.00  0.00    +0.150 A 
ATOM      5  N   UNL     1      -3.416  -0.965  -5.894  0.00  0.00    -0.198 NA
ATOM      6  C   UNL     1      -4.030  -1.179  -4.732  0.00  0.00    +0.217 A 
ATOM      7  N   UNL     1      -3.393  -0.935  -3.592  0.00  0.00    -0.181 NA
ATOM      8  N   UNL     1      -5.323  -1.659  -4.713  0.00  0.00    -0.327 N 
ATOM      9  H   UNL     1      -0.597   0.182  -2.452  0.00  0.00    +0.155 HD
ATOM     10  H   UNL     1      -5.786  -1.841  -5.545  0.00  0.00    +0.145 HD
ATOM     11  H   UNL     1      -5.770  -1.815  -3.865  0.00  0.00    +0.145 HD
ENDROOT
BRANCH   1  17
ATOM     12  C   UNL     1      -1.329  -0.931  -0.136  0.00  0.00    -0.026 A 
ATOM     13  C   UNL     1      -1.934  -1.214   1.073  0.00  0.00    +0.005 A 
ATOM     14  C   UNL     1      -3.302  -1.073   1.213  0.00  0.00    +0.000 A 
ATOM     15  C   UNL     1      -4.069  -0.647   0.144  0.00  0.00    +0.002 A 
ATOM     16  C   UNL     1      -3.471  -0.362  -1.067  0.00  0.00    +0.023 A 
ATOM     17  C   UNL     1      -2.096  -0.498  -1.210  0.00  0.00    +0.037 A 
BRANCH  12  19
ATOM     18  C   UNL     1       0.842   0.263  -0.041  0.00  0.00    +0.009 C 
ATOM     19  C   UNL     1       0.163  -1.085  -0.288  0.00  0.00    +0.033 C 
ENDBRANCH  12  19
ENDBRANCH   1  17
BRANCH   4  20
ATOM     20  C   UNL     1      -1.486  -0.264  -7.232  0.00  0.00    +0.161 C 
BRANCH  20  21
ATOM     21  N   UNL     1      -0.779  -1.484  -7.644  0.00  0.00    -0.292 NA
ATOM     22  C   UNL     1       0.318  -1.795  -6.718  0.00  0.00    +0.104 C 
ATOM     23  C   UNL     1       0.911  -3.162  -7.074  0.00  0.00    +0.120 C 
ATOM     24  N   UNL     1       1.283  -3.153  -8.498  0.00  0.00    -0.327 N 
ATOM     25  C   UNL     1       0.275  -2.719  -9.477  0.00  0.00    +0.120 C 
ATOM     26  C   UNL     1      -0.293  -1.370  -9.026  0.00  0.00    +0.104 C 
BRANCH  24  27
ATOM     27  C   UNL     1       2.561  -3.546  -8.909  0.00  0.00    +0.030 A 
ATOM     28  C   UNL     1       3.453  -4.081  -7.988  0.00  0.00    +0.027 A 
ATOM     29  C   UNL     1       4.715  -4.469  -8.395  0.00  0.00    +0.047 A 
ATOM     30  C   UNL     1       5.091  -4.325  -9.722  0.00  0.00    +0.120 A 
ATOM     31  C   UNL     1       4.201  -3.790 -10.642  0.00  0.00    +0.047 A 
ATOM     32  C   UNL     1       2.937  -3.407 -10.238  0.00  0.00    +0.027 A 
BRANCH  30  33
ATOM     33  O   UNL     1       6.333  -4.707 -10.122  0.00  0.00    -0.495 OA
ATOM     34  C   UNL     1       6.654  -4.530 -11.503  0.00  0.00    +0.277 C 
ENDBRANCH  30  33
ENDBRANCH  24  27
ENDBRANCH  20  21
ENDBRANCH   4  20
TORSDOF 6
