REMARK  Name = ZINC12385024
REMARK  11 active torsions:
REMARK  status: ('A' for Active; 'I' for Inactive)
REMARK    1  A    between atoms: C_1  and  C_2
REMARK    2  A    between atoms: C_7  and  C_17
REMARK    3  A    between atoms: C_19  and  O_27
REMARK    4  A    between atoms: C_20  and  O_25
REMARK    5  A    between atoms: C_22  and  O_23
REMARK    6  A    between atoms: O_23  and  C_24
REMARK    7  A    between atoms: O_25  and  C_26
REMARK    8  A    between atoms: O_27  and  C_28
REMARK    9  A    between atoms: C_31  and  C_33
REMARK   10  A    between atoms: C_33  and  O_35
REMARK   11  A    between atoms: O_35  and  C_36
REMARK                            x       y       z     vdW  Elec       q    Type
REMARK                         _______ _______ _______ _____ _____    ______ ____
ROOT
ATOM      1  C   UNL     1       2.809   5.061  -3.392  0.00  0.00    +0.009 C 
ATOM      2  C   UNL     1       4.032   5.347  -2.519  0.00  0.00    +0.013 C 
ATOM      3  C   UNL     1       3.659   5.210  -1.044  0.00  0.00    +0.055 C 
ATOM      4  C   UNL     1       3.168   3.800  -0.761  0.00  0.00    +0.017 C 
ATOM      5  C   UNL     1       3.656   2.756  -1.452  0.00  0.00    +0.037 C 
ATOM      6  C   UNL     1       3.261   1.310  -1.269  0.00  0.00    +0.140 C 
ATOM      7  N   UNL     1       2.472   1.048  -0.084  0.00  0.00    -0.331 N 
ATOM      8  C   UNL     1       1.197   1.590   0.062  0.00  0.00    +0.049 A 
ATOM      9  C   UNL     1       0.067   0.787   0.067  0.00  0.00    +0.025 A 
ATOM     10  C   UNL     1      -1.184   1.374   0.142  0.00  0.00    +0.002 A 
ATOM     11  C   UNL     1      -1.310   2.749   0.208  0.00  0.00    +0.002 A 
ATOM     12  C   UNL     1      -0.183   3.554   0.207  0.00  0.00    +0.025 A 
ATOM     13  C   UNL     1       1.069   2.967   0.154  0.00  0.00    +0.052 A 
ATOM     14  N   UNL     1       2.242   3.710   0.228  0.00  0.00    -0.316 N 
ATOM     15  C   UNL     1       4.628   2.960  -2.460  0.00  0.00    +0.177 C 
ATOM     16  O   UNL     1       5.067   1.996  -3.055  0.00  0.00    -0.291 OA
ATOM     17  C   UNL     1       5.135   4.325  -2.818  0.00  0.00    +0.171 C 
ATOM     18  H   UNL     1       2.837   0.488   0.619  0.00  0.00    +0.147 HD
ATOM     19  H   UNL     1       2.412   4.200   1.047  0.00  0.00    +0.152 HD
ENDROOT
BRANCH   6  20
ATOM     20  C   UNL     1       2.469   0.875  -2.475  0.00  0.00    +0.023 A 
ATOM     21  C   UNL     1       1.240   1.450  -2.738  0.00  0.00    +0.058 A 
ATOM     22  C   UNL     1       0.511   1.052  -3.847  0.00  0.00    +0.162 A 
ATOM     23  C   UNL     1       1.016   0.072  -4.695  0.00  0.00    +0.165 A 
ATOM     24  C   UNL     1       2.247  -0.504  -4.430  0.00  0.00    +0.095 A 
ATOM     25  C   UNL     1       2.977  -0.098  -3.322  0.00  0.00    +0.129 A 
BRANCH  25  26
ATOM     26  O   UNL     1       4.189  -0.659  -3.064  0.00  0.00    -0.495 OA
ATOM     27  C   UNL     1       4.651  -1.655  -3.979  0.00  0.00    +0.277 C 
ENDBRANCH  25  26
BRANCH  23  28
ATOM     28  O   UNL     1       0.302  -0.320  -5.784  0.00  0.00    -0.491 OA
ATOM     29  C   UNL     1       0.882  -1.331  -6.611  0.00  0.00    +0.277 C 
ENDBRANCH  23  28
BRANCH  22  30
ATOM     30  O   UNL     1      -0.699   1.619  -4.105  0.00  0.00    -0.491 OA
ATOM     31  C   UNL     1      -1.103   2.698  -3.261  0.00  0.00    +0.277 C 
ENDBRANCH  22  30
ENDBRANCH   6  20
BRANCH  17  32
ATOM     32  C   UNL     1       5.481   4.368  -4.284  0.00  0.00    +0.318 C 
ATOM     33  O   UNL     1       4.907   5.136  -5.018  0.00  0.00    -0.250 OA
BRANCH  32  34
ATOM     34  O   UNL     1       6.428   3.552  -4.774  0.00  0.00    -0.467 OA
ATOM     35  C   UNL     1       6.710   3.648  -6.195  0.00  0.00    +0.280 C 
ENDBRANCH  32  34
ENDBRANCH  17  32
TORSDOF 6
