REMARK  Name = ZINC29058761
REMARK  7 active torsions:
REMARK  status: ('A' for Active; 'I' for Inactive)
REMARK    1  A    between atoms: C_1  and  C_2
REMARK    2  A    between atoms: C_6  and  C_12
REMARK    3  A    between atoms: C_10  and  C_11
REMARK    4  A    between atoms: C_12  and  C_13
REMARK    5  A    between atoms: N_15  and  C_16
REMARK    6  A    between atoms: C_16  and  C_22
REMARK    7  A    between atoms: C_24  and  C_27
REMARK                            x       y       z     vdW  Elec       q    Type
REMARK                         _______ _______ _______ _____ _____    ______ ____
ROOT
ATOM      1  C   UNL     1      -0.742   1.585  -1.213  0.00  0.00    +0.218 C 
ATOM      2  O   UNL     1      -1.736   2.268  -1.088  0.00  0.00    -0.275 OA
ATOM      3  N   UNL     1      -0.288   1.272  -2.443  0.00  0.00    -0.302 N 
ATOM      4  H   UNL     1       0.614   0.653  -2.556  0.00  0.00    +0.150 HD
ENDROOT
BRANCH   3   5
ATOM      5  C   UNL     1      -0.997   1.758  -3.630  0.00  0.00    +0.097 C 
ATOM      6  C   UNL     1      -2.432   1.228  -3.619  0.00  0.00    +0.034 C 
ATOM      7  C   UNL     1      -2.412  -0.302  -3.627  0.00  0.00    +0.003 C 
ATOM      8  C   UNL     1      -1.696  -0.795  -4.886  0.00  0.00    +0.000 C 
ATOM      9  C   UNL     1      -0.260  -0.266  -4.897  0.00  0.00    +0.003 C 
ATOM     10  C   UNL     1      -0.281   1.264  -4.889  0.00  0.00    +0.034 C 
BRANCH   5  11
ATOM     11  C   UNL     1      -1.017   3.264  -3.622  0.00  0.00    +0.195 A 
ATOM     12  N   UNL     1      -1.477   4.049  -2.631  0.00  0.00    -0.194 NA
ATOM     13  C   UNL     1      -1.302   5.280  -3.045  0.00  0.00    +0.224 A 
ATOM     14  O   UNL     1      -0.748   5.207  -4.259  0.00  0.00    -0.338 OA
ATOM     15  N   UNL     1      -0.589   4.045  -4.569  0.00  0.00    -0.059 NA
ATOM     16  C   UNL     1      -1.657   6.539  -2.295  0.00  0.00    +0.112 C 
ENDBRANCH   5  11
ENDBRANCH   3   5
BRANCH   1  17
ATOM     17  C   UNL     1      -0.013   1.086   0.008  0.00  0.00    +0.134 C 
BRANCH  17  23
ATOM     18  C   UNL     1      -5.088  -0.080   4.518  0.00  0.00    +0.044 C 
ATOM     19  C   UNL     1      -3.947   0.286   3.604  0.00  0.00    -0.044 A 
ATOM     20  C   UNL     1      -3.653  -0.522   2.515  0.00  0.00    +0.004 A 
ATOM     21  C   UNL     1      -2.622  -0.204   1.675  0.00  0.00    +0.012 A 
ATOM     22  C   UNL     1      -1.866   0.943   1.913  0.00  0.00    +0.024 A 
ATOM     23  C   UNL     1      -0.718   1.572   1.248  0.00  0.00    +0.007 A 
ATOM     24  C   UNL     1      -0.427   2.668   1.962  0.00  0.00    +0.200 A 
ATOM     25  O   UNL     1      -1.272   2.781   3.002  0.00  0.00    -0.462 OA
ATOM     26  C   UNL     1      -2.155   1.762   3.017  0.00  0.00    +0.138 A 
ATOM     27  C   UNL     1      -3.207   1.421   3.858  0.00  0.00    -0.005 A 
ATOM     28  C   UNL     1      -3.538   2.289   5.045  0.00  0.00    +0.048 C 
ENDBRANCH  17  23
ENDBRANCH   1  17
TORSDOF 4
