REMARK  Name = ZINC11151897
REMARK  9 active torsions:
REMARK  status: ('A' for Active; 'I' for Inactive)
REMARK    1  A    between atoms: C_1  and  C_2
REMARK    2  A    between atoms: C_2  and  C_4
REMARK    3  A    between atoms: C_2  and  S_17
REMARK    4  A    between atoms: N_6  and  C_7
REMARK    5  A    between atoms: S_17  and  C_18
REMARK    6  A    between atoms: C_21  and  C_31
REMARK    7  A    between atoms: N_22  and  C_23
REMARK    8  A    between atoms: C_26  and  O_29
REMARK    9  A    between atoms: O_29  and  C_30
REMARK                            x       y       z     vdW  Elec       q    Type
REMARK                         _______ _______ _______ _____ _____    ______ ____
ROOT
ATOM      1  C   UNL     1      -2.140   9.594  -2.358  0.00  0.00    +0.197 A 
ATOM      2  N   UNL     1      -1.876  10.218  -1.230  0.00  0.00    -0.122 NA
ATOM      3  N   UNL     1      -1.989  11.488  -1.391  0.00  0.00    -0.128 NA
ATOM      4  C   UNL     1      -2.341  11.755  -2.627  0.00  0.00    +0.169 A 
ATOM      5  N   UNL     1      -2.450  10.549  -3.286  0.00  0.00    -0.270 N 
ENDROOT
BRANCH   5   6
ATOM      6  C   UNL     1      -2.803  10.345  -4.628  0.00  0.00    +0.051 A 
ATOM      7  C   UNL     1      -1.948  10.756  -5.642  0.00  0.00    +0.030 A 
ATOM      8  C   UNL     1      -2.294  10.549  -6.962  0.00  0.00    +0.047 A 
ATOM      9  C   UNL     1      -3.501   9.941  -7.277  0.00  0.00    +0.120 A 
ATOM     10  C   UNL     1      -4.358   9.535  -6.264  0.00  0.00    +0.047 A 
ATOM     11  C   UNL     1      -4.011   9.736  -4.943  0.00  0.00    +0.030 A 
BRANCH   9  12
ATOM     12  O   UNL     1      -3.844   9.743  -8.577  0.00  0.00    -0.495 OA
ATOM     13  C   UNL     1      -2.914  10.186  -9.568  0.00  0.00    +0.277 C 
ENDBRANCH   9  12
ENDBRANCH   5   6
BRANCH   4  14
ATOM     14  C   UNL     1      -2.578  13.094  -3.203  0.00  0.00    +0.022 A 
ATOM     15  C   UNL     1      -2.102  14.247  -2.565  0.00  0.00    +0.031 A 
ATOM     16  C   UNL     1      -2.341  15.476  -3.141  0.00  0.00    +0.111 A 
ATOM     17  N   UNL     1      -3.016  15.576  -4.270  0.00  0.00    -0.263 NA
ATOM     18  C   UNL     1      -3.487  14.517  -4.902  0.00  0.00    +0.111 A 
ATOM     19  C   UNL     1      -3.289  13.248  -4.400  0.00  0.00    +0.031 A 
ENDBRANCH   4  14
BRANCH   1  20
ATOM     20  S   UNL     1      -2.109   7.852  -2.622  0.00  0.00    -0.073 S 
BRANCH  20  22
ATOM     21  C   UNL     1      -2.731   7.639   0.030  0.00  0.00    +0.029 C 
ATOM     22  C   UNL     1      -1.626   7.293  -0.970  0.00  0.00    +0.137 C 
BRANCH  22  23
ATOM     23  C   UNL     1      -1.414   5.801  -0.986  0.00  0.00    +0.227 C 
ATOM     24  O   UNL     1      -1.905   5.128  -1.869  0.00  0.00    -0.275 OA
ATOM     25  N   UNL     1      -0.679   5.214  -0.021  0.00  0.00    -0.309 N 
ATOM     26  H   UNL     1      -0.286   5.752   0.684  0.00  0.00    +0.149 HD
BRANCH  25  27
ATOM     27  C   UNL     1      -0.473   3.764  -0.037  0.00  0.00    +0.035 C 
ATOM     28  C   UNL     1       0.233   3.363  -1.335  0.00  0.00    +0.029 C 
ATOM     29  C   UNL     1       0.449   1.849  -1.352  0.00  0.00    -0.008 C 
ATOM     30  C   UNL     1       1.312   1.443  -0.155  0.00  0.00    +0.007 C 
ATOM     31  C   UNL     1       0.606   1.843   1.142  0.00  0.00    -0.008 C 
ATOM     32  C   UNL     1       0.390   3.358   1.159  0.00  0.00    +0.029 C 
ATOM     33  C   UNL     1      -0.748   1.134   1.226  0.00  0.00    +0.007 C 
ATOM     34  C   UNL     1      -1.611   1.540   0.029  0.00  0.00    -0.008 C 
ATOM     35  C   UNL     1      -0.905   1.140  -1.268  0.00  0.00    +0.007 C 
ATOM     36  C   UNL     1      -1.826   3.055   0.046  0.00  0.00    +0.029 C 
ENDBRANCH  25  27
ENDBRANCH  22  23
ENDBRANCH  20  22
ENDBRANCH   1  20
TORSDOF 7
