REMARK  Name = ZINC32932603
REMARK  9 active torsions:
REMARK  status: ('A' for Active; 'I' for Inactive)
REMARK    1  A    between atoms: C_1  and  C_2
REMARK    2  A    between atoms: C_2  and  C_3
REMARK    3  A    between atoms: C_3  and  S_4
REMARK    4  A    between atoms: S_4  and  N_7
REMARK    5  A    between atoms: N_7  and  C_8
REMARK    6  A    between atoms: N_11  and  C_14
REMARK    7  A    between atoms: C_14  and  N_15
REMARK    8  A    between atoms: N_18  and  C_27
REMARK    9  A    between atoms: C_19  and  C_21
REMARK                            x       y       z     vdW  Elec       q    Type
REMARK                         _______ _______ _______ _____ _____    ______ ____
ROOT
ATOM      1  N   UNL     1       2.799   3.831   0.388  0.00  0.00    -0.257 N 
ATOM      2  C   UNL     1       3.439   3.969   1.568  0.00  0.00    +0.181 A 
ATOM      3  S   UNL     1       2.851   3.480   3.099  0.00  0.00    -0.011 S 
ATOM      4  N   UNL     1       4.626   4.558   1.322  0.00  0.00    -0.271 N 
ATOM      5  C   UNL     1       4.718   4.798  -0.036  0.00  0.00    +0.167 A 
ATOM      6  N   UNL     1       3.628   4.366  -0.607  0.00  0.00    -0.152 NA
ENDROOT
BRANCH   4   7
ATOM      7  C   UNL     1       5.598   4.879   2.280  0.00  0.00    +0.051 A 
ATOM      8  C   UNL     1       6.809   4.200   2.295  0.00  0.00    +0.029 A 
ATOM      9  C   UNL     1       7.768   4.521   3.236  0.00  0.00    +0.040 A 
ATOM     10  C   UNL     1       7.517   5.511   4.172  0.00  0.00    +0.124 A 
ATOM     11  C   UNL     1       6.307   6.184   4.162  0.00  0.00    +0.040 A 
ATOM     12  C   UNL     1       5.348   5.870   3.219  0.00  0.00    +0.029 A 
ATOM     13  F   UNL     1       8.454   5.820   5.095  0.00  0.00    -0.205 F 
ENDBRANCH   4   7
BRANCH   5  14
ATOM     14  C   UNL     1       5.861   5.436  -0.726  0.00  0.00    +0.020 A 
ATOM     15  C   UNL     1       6.780   6.195  -0.003  0.00  0.00    +0.011 A 
ATOM     16  C   UNL     1       7.846   6.784  -0.651  0.00  0.00    +0.001 A 
ATOM     17  C   UNL     1       7.998   6.631  -2.018  0.00  0.00    +0.000 A 
ATOM     18  C   UNL     1       7.087   5.884  -2.742  0.00  0.00    +0.001 A 
ATOM     19  C   UNL     1       6.019   5.286  -2.104  0.00  0.00    +0.011 A 
ENDBRANCH   5  14
BRANCH   1  20
ATOM     20  C   UNL     1       1.475   3.237   0.186  0.00  0.00    +0.072 C 
BRANCH  20  24
ATOM     21  C   UNL     1       1.241  -0.703  -1.458  0.00  0.00    +0.073 C 
ATOM     22  C   UNL     1       0.512  -0.388  -0.149  0.00  0.00    +0.002 C 
ATOM     23  C   UNL     1       0.312   1.125  -0.034  0.00  0.00    -0.075 C 
ATOM     24  N   UNL     1       1.618   1.796  -0.061  0.00  0.00    +0.393 N 
ATOM     25  C   UNL     1       2.317   1.546  -1.328  0.00  0.00    -0.075 C 
ATOM     26  C   UNL     1       2.576   0.046  -1.482  0.00  0.00    +0.002 C 
ATOM     27  H   UNL     1       2.230   1.371   0.748  0.00  0.00    -0.079 HD
BRANCH  21  28
ATOM     28  N   UNL     1       1.486  -2.145  -1.546  0.00  0.00    -0.192 NA
ATOM     29  H   UNL     1       1.871  -2.692  -0.672  0.00  0.00    +0.148 HD
BRANCH  28  30
ATOM     30  S   UNL     1       1.426  -2.907  -3.015  0.00  0.00    +0.030 S 
ATOM     31  O   UNL     1       1.683  -4.274  -2.726  0.00  0.00    -0.158 OA
ATOM     32  O   UNL     1       0.185  -2.507  -3.580  0.00  0.00    -0.158 OA
BRANCH  30  33
ATOM     33  C   UNL     1       2.801  -2.199  -3.964  0.00  0.00    +0.185 C 
BRANCH  33  35
ATOM     34  C   UNL     1       4.001  -2.240  -6.155  0.00  0.00    +0.005 C 
ATOM     35  C   UNL     1       2.842  -2.837  -5.354  0.00  0.00    +0.021 C 
ENDBRANCH  33  35
ENDBRANCH  30  33
ENDBRANCH  28  30
ENDBRANCH  21  28
ENDBRANCH  20  24
ENDBRANCH   1  20
TORSDOF 8
