REMARK  Name = ZINC35523288
REMARK  8 active torsions:
REMARK  status: ('A' for Active; 'I' for Inactive)
REMARK    1  A    between atoms: C_1  and  C_2
REMARK    2  A    between atoms: C_2  and  C_3
REMARK    3  A    between atoms: C_2  and  C_4
REMARK    4  A    between atoms: C_4  and  N_5
REMARK    5  A    between atoms: C_6  and  C_8
REMARK    6  A    between atoms: C_11  and  C_13
REMARK    7  A    between atoms: C_13  and  N_14
REMARK    8  A    between atoms: C_22  and  C_24
REMARK                            x       y       z     vdW  Elec       q    Type
REMARK                         _______ _______ _______ _____ _____    ______ ____
ROOT
ATOM      1  N   UNL     1      -4.548   2.898  -5.794  0.00  0.00    +0.394 N 
ATOM      2  C   UNL     1      -5.985   3.014  -5.513  0.00  0.00    -0.055 C 
ATOM      3  C   UNL     1      -6.307   4.432  -5.023  0.00  0.00    +0.103 C 
ATOM      4  N   UNL     1      -5.727   5.385  -5.977  0.00  0.00    -0.353 N 
ATOM      5  C   UNL     1      -6.006   6.705  -6.120  0.00  0.00    +0.086 A 
ATOM      6  C   UNL     1      -5.244   7.189  -7.125  0.00  0.00    +0.019 A 
ATOM      7  C   UNL     1      -4.463   6.122  -7.618  0.00  0.00    +0.021 A 
ATOM      8  C   UNL     1      -4.776   5.034  -6.899  0.00  0.00    +0.009 A 
ATOM      9  C   UNL     1      -4.216   3.638  -7.024  0.00  0.00    +0.012 C 
ATOM     10  H   UNL     1      -4.024   3.282  -5.021  0.00  0.00    -0.080 HD
ENDROOT
BRANCH   9  11
ATOM     11  C   UNL     1      -2.719   3.703  -7.190  0.00  0.00    -0.037 A 
ATOM     12  C   UNL     1      -1.893   3.494  -6.101  0.00  0.00    +0.004 A 
ATOM     13  C   UNL     1      -0.521   3.554  -6.253  0.00  0.00    +0.000 A 
ATOM     14  C   UNL     1       0.027   3.822  -7.494  0.00  0.00    +0.001 A 
ATOM     15  C   UNL     1      -0.798   4.030  -8.583  0.00  0.00    +0.020 A 
ATOM     16  C   UNL     1      -2.172   3.965  -8.433  0.00  0.00    +0.043 A 
ATOM     17 CL   UNL     1      -3.209   4.221  -9.802  0.00  0.00    -0.083 Cl
ENDBRANCH   9  11
BRANCH   1  18
ATOM     18  C   UNL     1      -4.197   1.482  -5.966  0.00  0.00    -0.002 C 
BRANCH  18  22
ATOM     19  C   UNL     1      -4.059  -0.122  -2.688  0.00  0.00    +0.189 A 
ATOM     20  C   UNL     1      -5.349  -0.415  -3.027  0.00  0.00    +0.055 A 
ATOM     21  C   UNL     1      -5.571   0.145  -4.295  0.00  0.00    +0.043 A 
ATOM     22  C   UNL     1      -4.421   0.748  -4.669  0.00  0.00    +0.090 A 
ATOM     23  O   UNL     1      -3.514   0.589  -3.697  0.00  0.00    -0.457 OA
BRANCH  19  25
ATOM     24  N   UNL     1      -2.105  -0.148  -1.230  0.00  0.00    -0.309 N 
ATOM     25  C   UNL     1      -3.387  -0.508  -1.443  0.00  0.00    +0.279 C 
ATOM     26  O   UNL     1      -3.985  -1.153  -0.603  0.00  0.00    -0.267 OA
ATOM     27  H   UNL     1      -1.628   0.366  -1.901  0.00  0.00    +0.149 HD
BRANCH  24  28
ATOM     28  C   UNL     1      -1.433  -0.534   0.013  0.00  0.00    +0.107 C 
BRANCH  28  30
ATOM     29  C   UNL     1      -0.019   1.526   0.010  0.00  0.00    +0.009 C 
ATOM     30  C   UNL     1       0.002  -0.004   0.002  0.00  0.00    -0.000 C 
ATOM     31  C   UNL     1       0.742  -0.511   1.242  0.00  0.00    +0.009 C 
ENDBRANCH  28  30
ENDBRANCH  24  28
ENDBRANCH  19  25
ENDBRANCH  18  22
ENDBRANCH   1  18
TORSDOF 6
