REMARK  Name = ZINC63505722
REMARK  6 active torsions:
REMARK  status: ('A' for Active; 'I' for Inactive)
REMARK    1  A    between atoms: C_1  and  C_2
REMARK    2  A    between atoms: C_5  and  C_29
REMARK    3  A    between atoms: C_6  and  N_8
REMARK    4  A    between atoms: C_9  and  C_11
REMARK    5  A    between atoms: C_13  and  S_21
REMARK    6  A    between atoms: S_21  and  C_22
REMARK                            x       y       z     vdW  Elec       q    Type
REMARK                         _______ _______ _______ _____ _____    ______ ____
ROOT
ATOM      1  C   UNL     1       0.281  -2.895   4.827  0.00  0.00    +0.204 C 
ATOM      2  C   UNL     1      -1.073  -3.374   5.304  0.00  0.00    +0.030 C 
ATOM      3  C   UNL     1      -1.267  -2.777   6.545  0.00  0.00    +0.010 A 
ATOM      4  C   UNL     1      -2.329  -2.836   7.475  0.00  0.00    +0.011 A 
ATOM      5  C   UNL     1      -2.249  -2.133   8.634  0.00  0.00    +0.001 A 
ATOM      6  C   UNL     1      -1.137  -1.346   8.935  0.00  0.00    +0.002 A 
ATOM      7  C   UNL     1      -0.082  -1.243   8.089  0.00  0.00    +0.026 A 
ATOM      8  C   UNL     1      -0.093  -1.949   6.859  0.00  0.00    +0.044 A 
ATOM      9  N   UNL     1       0.794  -2.014   5.881  0.00  0.00    -0.369 N 
ATOM     10  H   UNL     1       1.647  -1.553   5.863  0.00  0.00    +0.161 HD
ENDROOT
BRANCH   1  12
ATOM     11  N   UNL     1       0.027  -2.795   2.369  0.00  0.00    -0.283 N 
ATOM     12  C   UNL     1       0.136  -2.131   3.537  0.00  0.00    +0.245 C 
ATOM     13  O   UNL     1       0.117  -0.918   3.549  0.00  0.00    -0.273 OA
ATOM     14  H   UNL     1      -0.041  -3.763   2.366  0.00  0.00    +0.155 HD
BRANCH  11  20
ATOM     15  C   UNL     1       1.216   1.227  -0.196  0.00  0.00    +0.044 C 
ATOM     16  C   UNL     1       0.581  -0.137  -0.110  0.00  0.00    -0.049 A 
ATOM     17  C   UNL     1      -0.018  -0.692  -1.227  0.00  0.00    +0.004 A 
ATOM     18  C   UNL     1      -0.601  -1.943  -1.152  0.00  0.00    +0.005 A 
ATOM     19  C   UNL     1      -0.588  -2.643   0.038  0.00  0.00    -0.029 A 
ATOM     20  C   UNL     1       0.012  -2.089   1.161  0.00  0.00    +0.037 A 
ATOM     21  C   UNL     1       0.602  -0.834   1.082  0.00  0.00    +0.027 A 
ATOM     22  C   UNL     1      -1.225  -4.006   0.119  0.00  0.00    +0.045 C 
ENDBRANCH  11  20
ENDBRANCH   1  12
BRANCH   2  23
ATOM     23  S   UNL     1      -2.110  -4.398   4.510  0.00  0.00    -0.091 S 
BRANCH  23  24
ATOM     24  C   UNL     1      -1.305  -5.963   4.585  0.00  0.00    +0.013 A 
ATOM     25  C   UNL     1      -0.036  -6.067   5.142  0.00  0.00    +0.016 A 
ATOM     26  C   UNL     1       0.593  -7.295   5.199  0.00  0.00    +0.021 A 
ATOM     27  C   UNL     1      -0.039  -8.422   4.703  0.00  0.00    +0.041 A 
ATOM     28  C   UNL     1      -1.303  -8.322   4.148  0.00  0.00    +0.021 A 
ATOM     29  C   UNL     1      -1.940  -7.097   4.093  0.00  0.00    +0.016 A 
ATOM     30 CL   UNL     1       0.755  -9.964   4.776  0.00  0.00    -0.084 Cl
ENDBRANCH  23  24
ENDBRANCH   2  23
TORSDOF 4
