REMARK  Name = ZINC67637007
REMARK  5 active torsions:
REMARK  status: ('A' for Active; 'I' for Inactive)
REMARK    1  A    between atoms: C_4  and  N_7
REMARK    2  A    between atoms: N_7  and  C_8
REMARK    3  A    between atoms: N_16  and  C_17
REMARK    4  A    between atoms: C_17  and  C_18
REMARK    5  A    between atoms: C_23  and  N_24
REMARK                            x       y       z     vdW  Elec       q    Type
REMARK                         _______ _______ _______ _____ _____    ______ ____
ROOT
ATOM      1  C   UNL     1       3.641  -2.114  -0.044  0.00  0.00    +0.089 C 
ATOM      2  C   UNL     1       4.984  -2.640  -0.617  0.00  0.00    +0.043 C 
ATOM      3  C   UNL     1       5.091  -4.027   0.065  0.00  0.00    +0.111 C 
ATOM      4  N   UNL     1       4.549  -3.823   1.421  0.00  0.00    -0.284 N 
ATOM      5  C   UNL     1       3.635  -2.668   1.396  0.00  0.00    +0.131 C 
ATOM      6  C   UNL     1       4.837  -4.573   2.503  0.00  0.00    +0.303 C 
ATOM      7  O   UNL     1       4.328  -4.312   3.576  0.00  0.00    -0.253 OA
ATOM      8  N   UNL     1       5.690  -5.611   2.396  0.00  0.00    -0.295 N 
ATOM      9  H   UNL     1       6.096  -5.819   1.540  0.00  0.00    +0.151 HD
ENDROOT
BRANCH   1  10
ATOM     10  N   UNL     1       3.620  -0.649  -0.036  0.00  0.00    -0.339 N 
ATOM     11  H   UNL     1       4.452  -0.152  -0.042  0.00  0.00    +0.146 HD
BRANCH  10  15
ATOM     12  C   UNL     1      -0.017   1.379   0.010  0.00  0.00    +0.000 A 
ATOM     13  C   UNL     1       1.169   2.089   0.002  0.00  0.00    +0.002 A 
ATOM     14  C   UNL     1       2.377   1.420  -0.013  0.00  0.00    +0.023 A 
ATOM     15  C   UNL     1       2.400   0.031  -0.021  0.00  0.00    +0.027 A 
ATOM     16  C   UNL     1       1.206  -0.680  -0.013  0.00  0.00    +0.023 A 
ATOM     17  C   UNL     1       0.002  -0.004   0.002  0.00  0.00    +0.002 A 
ENDBRANCH  10  15
ENDBRANCH   1  10
BRANCH   8  18
ATOM     18  C   UNL     1       6.004  -6.426   3.572  0.00  0.00    +0.143 C 
BRANCH  18  19
ATOM     19  C   UNL     1       6.974  -7.512   3.186  0.00  0.00    -0.005 A 
ATOM     20  C   UNL     1       6.517  -8.793   2.945  0.00  0.00    +0.007 A 
ATOM     21  C   UNL     1       7.406  -9.791   2.591  0.00  0.00    +0.000 A 
ATOM     22  C   UNL     1       8.755  -9.510   2.477  0.00  0.00    +0.002 A 
ATOM     23  C   UNL     1       9.219  -8.231   2.717  0.00  0.00    +0.028 A 
ATOM     24  C   UNL     1       8.327  -7.226   3.067  0.00  0.00    +0.070 A 
BRANCH  24  25
ATOM     25  N   UNL     1       8.793  -5.926   3.305  0.00  0.00    -0.240 N 
ATOM     26  C   UNL     1      10.078  -5.512   3.220  0.00  0.00    +0.114 A 
ATOM     27  C   UNL     1      10.108  -4.194   3.524  0.00  0.00    +0.041 A 
ATOM     28  C   UNL     1       8.799  -3.787   3.805  0.00  0.00    +0.135 A 
ATOM     29  N   UNL     1       8.010  -4.822   3.669  0.00  0.00    -0.175 NA
ENDBRANCH  24  25
ENDBRANCH  18  19
ENDBRANCH   8  18
TORSDOF 5
