REMARK  Name = ZINC09938408
REMARK  6 active torsions:
REMARK  status: ('A' for Active; 'I' for Inactive)
REMARK    1  A    between atoms: C_1  and  C_2
REMARK    2  A    between atoms: N_17  and  C_18
REMARK    3  A    between atoms: C_22  and  C_24
REMARK    4  A    between atoms: N_26  and  C_27
REMARK    5  A    between atoms: C_27  and  C_28
REMARK    6  A    between atoms: C_28  and  C_29
REMARK                            x       y       z     vdW  Elec       q    Type
REMARK                         _______ _______ _______ _____ _____    ______ ____
ROOT
ATOM      1  C   UNL     1      -0.660  -0.957  -2.192  0.00  0.00    +0.042 A 
ATOM      2  C   UNL     1      -1.980  -0.605  -1.937  0.00  0.00    +0.024 A 
ATOM      3  C   UNL     1      -2.965  -0.884  -2.866  0.00  0.00    +0.003 A 
ATOM      4  C   UNL     1      -2.647  -1.523  -4.046  0.00  0.00    +0.013 A 
ATOM      5  C   UNL     1      -1.325  -1.886  -4.309  0.00  0.00    +0.038 A 
ATOM      6  C   UNL     1      -0.329  -1.600  -3.374  0.00  0.00    +0.036 A 
ENDROOT
BRANCH   1  22
ATOM      7  C   UNL     1       0.222   1.673  -1.933  0.00  0.00    +0.079 C 
ATOM      8  C   UNL     1       1.122   0.553  -1.406  0.00  0.00    +0.185 C 
ATOM      9  C   UNL     1       1.692   0.959  -0.039  0.00  0.00    +0.096 C 
ATOM     10  C   UNL     1       2.476  -0.239   0.499  0.00  0.00    +0.114 C 
ATOM     11  C   UNL     1       3.483  -0.657  -0.550  0.00  0.00    +0.016 A 
ATOM     12  C   UNL     1       4.607  -1.359  -0.155  0.00  0.00    +0.029 A 
ATOM     13  C   UNL     1       5.541  -1.758  -1.094  0.00  0.00    +0.042 A 
ATOM     14  C   UNL     1       5.350  -1.454  -2.430  0.00  0.00    +0.023 A 
ATOM     15  C   UNL     1       4.230  -0.753  -2.826  0.00  0.00    +0.047 A 
ATOM     16  C   UNL     1       3.286  -0.352  -1.886  0.00  0.00    +0.128 A 
ATOM     17  O   UNL     1       2.204   0.350  -2.310  0.00  0.00    -0.468 OA
ATOM     18 CL   UNL     1       6.953  -2.638  -0.596  0.00  0.00    -0.084 Cl
ATOM     19  N   UNL     1       1.525  -1.352   0.661  0.00  0.00    -0.292 N 
ATOM     20  C   UNL     1       0.538  -1.520  -0.235  0.00  0.00    +0.310 C 
ATOM     21  O   UNL     1      -0.199  -2.481  -0.121  0.00  0.00    -0.252 OA
ATOM     22  N   UNL     1       0.336  -0.667  -1.251  0.00  0.00    -0.216 N 
ATOM     23  H   UNL     1       1.611  -1.960   1.411  0.00  0.00    +0.151 HD
ENDBRANCH   1  22
BRANCH   5  24
ATOM     24  C   UNL     1      -0.981  -2.572  -5.573  0.00  0.00    +0.244 C 
ATOM     25  O   UNL     1       0.171  -2.887  -5.799  0.00  0.00    -0.270 OA
ATOM     26  N   UNL     1      -1.944  -2.847  -6.474  0.00  0.00    -0.311 N 
ATOM     27  H   UNL     1      -2.863  -2.596  -6.293  0.00  0.00    +0.149 HD
BRANCH  26  28
ATOM     28  C   UNL     1      -1.603  -3.527  -7.726  0.00  0.00    +0.109 C 
BRANCH  28  29
ATOM     29  C   UNL     1      -2.869  -3.717  -8.564  0.00  0.00    +0.056 C 
BRANCH  29  30
ATOM     30  C   UNL     1      -2.518  -4.417  -9.852  0.00  0.00    -0.021 A 
ATOM     31  C   UNL     1      -2.254  -3.832 -11.031  0.00  0.00    +0.087 A 
ATOM     32  N   UNL     1      -1.977  -4.785 -11.973  0.00  0.00    -0.360 N 
ATOM     33  H   UNL     1      -1.757  -4.605 -12.900  0.00  0.00    +0.165 HD
ATOM     34  C   UNL     1      -2.058  -6.039 -11.408  0.00  0.00    +0.047 A 
ATOM     35  C   UNL     1      -2.395  -5.862 -10.053  0.00  0.00    +0.003 A 
ATOM     36  C   UNL     1      -2.541  -6.974  -9.222  0.00  0.00    +0.010 A 
ATOM     37  C   UNL     1      -2.353  -8.229  -9.728  0.00  0.00    +0.001 A 
ATOM     38  C   UNL     1      -2.017  -8.408 -11.062  0.00  0.00    +0.002 A 
ATOM     39  C   UNL     1      -1.875  -7.326 -11.903  0.00  0.00    +0.026 A 
ENDBRANCH  29  30
ENDBRANCH  28  29
ENDBRANCH  26  28
ENDBRANCH   5  24
TORSDOF 5
