REMARK  Name = ZINC03521419
REMARK  9 active torsions:
REMARK  status: ('A' for Active; 'I' for Inactive)
REMARK    1  A    between atoms: C_1  and  C_2
REMARK    2  A    between atoms: C_2  and  N_3
REMARK    3  A    between atoms: C_7  and  C_9
REMARK    4  A    between atoms: C_9  and  C_11
REMARK    5  A    between atoms: C_9  and  S_12
REMARK    6  A    between atoms: S_12  and  C_13
REMARK    7  A    between atoms: N_23  and  C_24
REMARK    8  A    between atoms: C_28  and  C_31
REMARK    9  A    between atoms: C_29  and  C_30
REMARK                            x       y       z     vdW  Elec       q    Type
REMARK                         _______ _______ _______ _____ _____    ______ ____
ROOT
ATOM      1  C   UNL     1       2.985   0.782  -1.210  0.00  0.00    +0.177 A 
ATOM      2  N   UNL     1       4.127   0.146  -1.300  0.00  0.00    -0.223 NA
ATOM      3  C   UNL     1       4.813  -0.236  -0.198  0.00  0.00    +0.079 A 
ATOM      4  C   UNL     1       6.032  -0.914  -0.292  0.00  0.00    +0.028 A 
ATOM      5  C   UNL     1       6.690  -1.281   0.848  0.00  0.00    +0.002 A 
ATOM      6  C   UNL     1       6.168  -0.990   2.101  0.00  0.00    +0.001 A 
ATOM      7  C   UNL     1       4.978  -0.328   2.225  0.00  0.00    +0.015 A 
ATOM      8  C   UNL     1       4.283   0.058   1.079  0.00  0.00    +0.065 A 
ATOM      9  C   UNL     1       3.005   0.777   1.152  0.00  0.00    +0.267 A 
ATOM     10  O   UNL     1       2.501   1.063   2.223  0.00  0.00    -0.267 OA
ATOM     11  N   UNL     1       2.404   1.106  -0.015  0.00  0.00    -0.255 N 
ENDROOT
BRANCH  11  12
ATOM     12  C   UNL     1       1.180   1.787   0.000  0.00  0.00    +0.055 A 
ATOM     13  C   UNL     1      -0.013   1.076   0.008  0.00  0.00    +0.026 A 
ATOM     14  C   UNL     1      -1.217   1.751   0.017  0.00  0.00    +0.002 A 
ATOM     15  C   UNL     1      -1.237   3.134   0.031  0.00  0.00    +0.004 A 
ATOM     16  C   UNL     1      -0.051   3.845   0.023  0.00  0.00    -0.046 A 
ATOM     17  C   UNL     1       1.157   3.175   0.008  0.00  0.00    -0.024 A 
ATOM     18  C   UNL     1       2.449   3.951   0.000  0.00  0.00    +0.046 C 
ATOM     19  C   UNL     1      -0.077   5.351   0.032  0.00  0.00    +0.044 C 
ENDBRANCH  11  12
BRANCH   1  20
ATOM     20  S   UNL     1       2.160   1.242  -2.698  0.00  0.00    -0.075 S 
BRANCH  20  21
ATOM     21  C   UNL     1       3.327   0.592  -3.919  0.00  0.00    +0.137 C 
ATOM     22  C   UNL     1       4.651   1.351  -3.813  0.00  0.00    +0.029 C 
BRANCH  21  27
ATOM     23  N   UNL     1       3.040  -0.697  -8.541  0.00  0.00    -0.299 N 
ATOM     24  C   UNL     1       2.643   0.114  -7.541  0.00  0.00    +0.306 C 
ATOM     25  O   UNL     1       1.825   0.987  -7.754  0.00  0.00    -0.252 OA
ATOM     26  N   UNL     1       3.153  -0.043  -6.303  0.00  0.00    -0.239 N 
ATOM     27  C   UNL     1       2.757   0.768  -5.303  0.00  0.00    +0.233 C 
ATOM     28  O   UNL     1       1.941   1.639  -5.516  0.00  0.00    -0.274 OA
ATOM     29  H   UNL     1       3.692  -1.395  -8.371  0.00  0.00    +0.150 HD
ATOM     30  H   UNL     1       3.806  -0.741  -6.133  0.00  0.00    +0.159 HD
BRANCH  23  32
ATOM     31  C   UNL     1       3.098  -1.567 -10.826  0.00  0.00    +0.024 C 
ATOM     32  C   UNL     1       2.485  -0.526  -9.886  0.00  0.00    +0.102 C 
ENDBRANCH  23  32
ENDBRANCH  21  27
ENDBRANCH  20  21
ENDBRANCH   1  20
TORSDOF 5
