REMARK  Name = ZINC40003817
REMARK  12 active torsions:
REMARK  status: ('A' for Active; 'I' for Inactive)
REMARK    1  A    between atoms: C_1  and  C_2
REMARK    2  A    between atoms: C_2  and  N_3
REMARK    3  A    between atoms: N_3  and  C_4
REMARK    4  A    between atoms: N_3  and  C_6
REMARK    5  A    between atoms: C_4  and  C_5
REMARK    6  A    between atoms: C_6  and  C_7
REMARK    7  A    between atoms: C_7  and  N_8
REMARK    8  A    between atoms: C_9  and  C_29
REMARK    9  A    between atoms: C_11  and  C_16
REMARK   10  A    between atoms: C_16  and  C_18
REMARK   11  A    between atoms: C_19  and  C_28
REMARK   12  A    between atoms: C_26  and  C_27
REMARK                            x       y       z     vdW  Elec       q    Type
REMARK                         _______ _______ _______ _____ _____    ______ ____
ROOT
ATOM      1  N   UNL     1       0.318  -3.485   2.091  0.00  0.00    -0.285 N 
ATOM      2  C   UNL     1      -0.888  -3.937   2.794  0.00  0.00    +0.145 C 
ATOM      3  C   UNL     1      -0.637  -5.378   3.175  0.00  0.00    +0.078 C 
ATOM      4  C   UNL     1       0.598  -5.691   2.722  0.00  0.00    +0.249 C 
ATOM      5  C   UNL     1       1.181  -4.516   2.047  0.00  0.00    +0.288 C 
ATOM      6  O   UNL     1       2.281  -4.483   1.530  0.00  0.00    -0.266 OA
ATOM      7  O   UNL     1       1.202  -6.895   2.862  0.00  0.00    -0.282 OA
ENDROOT
BRANCH   2   8
ATOM      8  C   UNL     1      -1.111  -3.104   4.030  0.00  0.00    -0.022 A 
ATOM      9  C   UNL     1      -0.033  -2.701   4.795  0.00  0.00    +0.007 A 
ATOM     10  C   UNL     1      -0.236  -1.937   5.929  0.00  0.00    +0.015 A 
ATOM     11  C   UNL     1      -1.519  -1.575   6.297  0.00  0.00    +0.018 A 
ATOM     12  C   UNL     1      -2.598  -1.978   5.531  0.00  0.00    +0.015 A 
ATOM     13  C   UNL     1      -2.393  -2.738   4.395  0.00  0.00    +0.007 A 
ATOM     14 BR   UNL     1      -1.799  -0.529   7.848  0.00  0.00    -0.050 Br
ENDBRANCH   2   8
BRANCH   3  15
ATOM     15  C   UNL     1      -1.556  -6.265   3.898  0.00  0.00    +0.213 C 
ATOM     16  O   UNL     1      -1.669  -6.171   5.109  0.00  0.00    -0.285 OA
BRANCH  15  17
ATOM     17  C   UNL     1      -2.313  -7.231   3.189  0.00  0.00    +0.116 A 
ATOM     18  C   UNL     1      -2.385  -7.384   1.810  0.00  0.00    +0.068 A 
ATOM     19  N   UNL     1      -3.195  -8.395   1.549  0.00  0.00    -0.232 NA
ATOM     20  C   UNL     1      -3.657  -8.911   2.688  0.00  0.00    +0.141 A 
ATOM     21  N   UNL     1      -3.122  -8.212   3.733  0.00  0.00    -0.296 N 
ATOM     22  C   UNL     1      -3.429  -8.540   5.016  0.00  0.00    +0.093 A 
ATOM     23  C   UNL     1      -4.268  -9.568   5.284  0.00  0.00    +0.018 A 
ATOM     24  C   UNL     1      -4.830 -10.307   4.235  0.00  0.00    +0.008 A 
ATOM     25  C   UNL     1      -4.533  -9.979   2.945  0.00  0.00    -0.008 A 
ATOM     26  C   UNL     1      -5.128 -10.765   1.804  0.00  0.00    +0.047 C 
ATOM     27  C   UNL     1      -1.663  -6.543   0.789  0.00  0.00    +0.068 C 
ENDBRANCH  15  17
ENDBRANCH   3  15
BRANCH   1  28
ATOM     28  C   UNL     1       0.540  -2.150   1.531  0.00  0.00    +0.090 C 
BRANCH  28  29
ATOM     29  C   UNL     1       0.042  -2.114   0.084  0.00  0.00    -0.060 C 
BRANCH  29  30
ATOM     30  N   UNL     1       0.265  -0.775  -0.477  0.00  0.00    +0.380 N 
ATOM     31  H   UNL     1      -0.171  -0.085   0.115  0.00  0.00    -0.082 HD
BRANCH  30  33
ATOM     32  C   UNL     1       1.939   0.936  -0.997  0.00  0.00    -0.017 C 
ATOM     33  C   UNL     1       1.708  -0.511  -0.557  0.00  0.00    -0.082 C 
ENDBRANCH  30  33
BRANCH  30  34
ATOM     34  C   UNL     1      -0.320  -0.705  -1.823  0.00  0.00    -0.082 C 
ATOM     35  C   UNL     1      -1.842  -0.827  -1.724  0.00  0.00    -0.017 C 
ENDBRANCH  30  34
ENDBRANCH  29  30
ENDBRANCH  28  29
ENDBRANCH   1  28
TORSDOF 8
