REMARK  Name = ZINC64311666
REMARK  10 active torsions:
REMARK  status: ('A' for Active; 'I' for Inactive)
REMARK    1  A    between atoms: C_1  and  C_2
REMARK    2  A    between atoms: C_6  and  C_26
REMARK    3  A    between atoms: C_7  and  O_8
REMARK    4  A    between atoms: O_8  and  C_9
REMARK    5  A    between atoms: C_14  and  N_15
REMARK    6  A    between atoms: C_16  and  C_18
REMARK    7  A    between atoms: C_18  and  C_19
REMARK    8  A    between atoms: C_19  and  C_20
REMARK    9  A    between atoms: C_20  and  C_21
REMARK   10  A    between atoms: C_21  and  N_22
REMARK                            x       y       z     vdW  Elec       q    Type
REMARK                         _______ _______ _______ _____ _____    ______ ____
ROOT
ATOM      1  C   UNL     1      -1.181   0.279   2.944  0.00  0.00    +0.150 A 
ATOM      2  C   UNL     1      -2.361  -0.093   2.319  0.00  0.00    +0.048 A 
ATOM      3  C   UNL     1      -3.578   0.220   2.897  0.00  0.00    +0.004 A 
ATOM      4  C   UNL     1      -3.622   0.903   4.098  0.00  0.00    +0.002 A 
ATOM      5  C   UNL     1      -2.450   1.277   4.728  0.00  0.00    +0.027 A 
ATOM      6  C   UNL     1      -1.225   0.963   4.157  0.00  0.00    +0.076 A 
ENDROOT
BRANCH   6   7
ATOM      7  N   UNL     1      -0.036   1.337   4.796  0.00  0.00    -0.283 N 
ATOM      8  C   UNL     1      -0.020   1.532   6.129  0.00  0.00    +0.217 C 
ATOM      9  O   UNL     1      -1.007   1.288   6.790  0.00  0.00    -0.275 OA
ATOM     10  H   UNL     1       0.776   1.455   4.279  0.00  0.00    +0.155 HD
BRANCH   8  11
ATOM     11  C   UNL     1       1.225   2.054   6.799  0.00  0.00    +0.096 C 
BRANCH  11  12
ATOM     12  C   UNL     1       0.978   2.184   8.304  0.00  0.00    +0.011 C 
BRANCH  12  13
ATOM     13  C   UNL     1       2.242   2.714   8.984  0.00  0.00    +0.019 C 
BRANCH  13  14
ATOM     14  C   UNL     1       1.995   2.843  10.489  0.00  0.00    +0.106 C 
BRANCH  14  15
ATOM     15  N   UNL     1       3.205   3.351  11.140  0.00  0.00    -0.300 N 
ATOM     16  C   UNL     1       3.221   3.546  12.473  0.00  0.00    +0.297 C 
ATOM     17  O   UNL     1       2.232   3.301  13.136  0.00  0.00    -0.253 OA
ATOM     18  N   UNL     1       4.335   4.013  13.073  0.00  0.00    -0.313 N 
ATOM     19  H   UNL     1       3.995   3.546  10.612  0.00  0.00    +0.150 HD
ATOM     20  H   UNL     1       5.124   4.208  12.544  0.00  0.00    +0.146 HD
ATOM     21  H   UNL     1       4.346   4.153  14.033  0.00  0.00    +0.146 HD
ENDBRANCH  14  15
ENDBRANCH  13  14
ENDBRANCH  12  13
ENDBRANCH  11  12
ENDBRANCH   8  11
ENDBRANCH   6   7
BRANCH   1  22
ATOM     22  O   UNL     1       0.016  -0.027   2.377  0.00  0.00    -0.454 OA
BRANCH  22  29
ATOM     23  C   UNL     1      -0.015   1.516   0.011  0.00  0.00    +0.047 C 
ATOM     24  C   UNL     1      -0.006   0.009  -0.002  0.00  0.00    -0.008 A 
ATOM     25  C   UNL     1      -0.007  -0.672  -1.203  0.00  0.00    +0.007 A 
ATOM     26  C   UNL     1       0.001  -2.055  -1.215  0.00  0.00    +0.001 A 
ATOM     27  C   UNL     1       0.010  -2.759  -0.025  0.00  0.00    +0.007 A 
ATOM     28  C   UNL     1       0.011  -2.083   1.179  0.00  0.00    -0.008 A 
ATOM     29  C   UNL     1       0.009  -0.695   1.194  0.00  0.00    +0.134 A 
ATOM     30  C   UNL     1       0.020  -2.851   2.475  0.00  0.00    +0.047 C 
ENDBRANCH  22  29
ENDBRANCH   1  22
TORSDOF 8
