REMARK  Name = ZINC65181284
REMARK  9 active torsions:
REMARK  status: ('A' for Active; 'I' for Inactive)
REMARK    1  A    between atoms: C_1  and  C_2
REMARK    2  A    between atoms: C_7  and  C_8
REMARK    3  A    between atoms: C_9  and  C_19
REMARK    4  A    between atoms: N_11  and  C_13
REMARK    5  A    between atoms: N_21  and  N_22
REMARK    6  A    between atoms: N_25  and  C_26
REMARK    7  A    between atoms: C_26  and  C_27
REMARK    8  A    between atoms: C_27  and  C_28
REMARK    9  A    between atoms: C_27  and  C_29
REMARK                            x       y       z     vdW  Elec       q    Type
REMARK                         _______ _______ _______ _____ _____    ______ ____
ROOT
ATOM      1  C   UNL     1       0.245   0.013   2.522  0.00  0.00    +0.106 A 
ATOM      2  C   UNL     1      -0.051  -0.573   3.833  0.00  0.00    +0.084 A 
ATOM      3  C   UNL     1      -0.223   0.484   4.702  0.00  0.00    +0.128 A 
ATOM      4  N   UNL     1      -0.053   1.622   4.007  0.00  0.00    -0.239 N 
ATOM      5  N   UNL     1       0.238   1.318   2.674  0.00  0.00    -0.166 NA
ENDROOT
BRANCH   1  12
ATOM      6  C   UNL     1      -1.230   0.689   0.126  0.00  0.00    +0.044 C 
ATOM      7  C   UNL     1      -0.198  -0.409   0.105  0.00  0.00    -0.041 A 
ATOM      8  C   UNL     1       0.055  -1.097  -1.064  0.00  0.00    +0.004 A 
ATOM      9  C   UNL     1       1.002  -2.105  -1.085  0.00  0.00    +0.000 A 
ATOM     10  C   UNL     1       1.701  -2.429   0.064  0.00  0.00    +0.001 A 
ATOM     11  C   UNL     1       1.456  -1.748   1.238  0.00  0.00    +0.010 A 
ATOM     12  C   UNL     1       0.507  -0.727   1.264  0.00  0.00    +0.006 A 
ENDBRANCH   1  12
BRANCH   4  13
ATOM     13  C   UNL     1      -0.147   2.915   4.538  0.00  0.00    +0.065 A 
ATOM     14  C   UNL     1      -0.432   3.095   5.885  0.00  0.00    +0.028 A 
ATOM     15  C   UNL     1      -0.524   4.370   6.406  0.00  0.00    +0.002 A 
ATOM     16  C   UNL     1      -0.334   5.468   5.587  0.00  0.00    +0.000 A 
ATOM     17  C   UNL     1      -0.051   5.293   4.245  0.00  0.00    +0.002 A 
ATOM     18  C   UNL     1       0.049   4.019   3.719  0.00  0.00    +0.028 A 
ENDBRANCH   4  13
BRANCH   2  19
ATOM     19  C   UNL     1      -0.145  -2.006   4.158  0.00  0.00    +0.264 C 
ATOM     20  O   UNL     1      -0.075  -2.837   3.272  0.00  0.00    -0.269 OA
ATOM     21  N   UNL     1      -0.309  -2.398   5.437  0.00  0.00    -0.229 N 
ATOM     22  H   UNL     1      -0.365  -1.736   6.144  0.00  0.00    +0.173 HD
BRANCH  21  23
ATOM     23  N   UNL     1      -0.399  -3.762   5.745  0.00  0.00    -0.218 N 
ATOM     24  C   UNL     1      -0.564  -4.154   7.024  0.00  0.00    +0.316 C 
ATOM     25  O   UNL     1      -0.642  -5.337   7.293  0.00  0.00    -0.251 OA
ATOM     26  N   UNL     1      -0.641  -3.234   8.007  0.00  0.00    -0.298 N 
ATOM     27  H   UNL     1      -0.343  -4.424   5.039  0.00  0.00    +0.174 HD
ATOM     28  H   UNL     1      -0.579  -2.290   7.793  0.00  0.00    +0.150 HD
BRANCH  26  29
ATOM     29  C   UNL     1      -0.820  -3.660   9.397  0.00  0.00    +0.108 C 
BRANCH  29  30
ATOM     30  C   UNL     1      -0.877  -2.429  10.304  0.00  0.00    -0.000 C 
ATOM     31  C   UNL     1      -2.122  -1.606   9.970  0.00  0.00    +0.009 C 
ATOM     32  C   UNL     1      -0.938  -2.876  11.766  0.00  0.00    +0.009 C 
ENDBRANCH  29  30
ENDBRANCH  26  29
ENDBRANCH  21  23
ENDBRANCH   2  19
TORSDOF 6
