REMARK  Name = ZINC41337595
REMARK  10 active torsions:
REMARK  status: ('A' for Active; 'I' for Inactive)
REMARK    1  A    between atoms: C_1  and  C_2
REMARK    2  A    between atoms: C_2  and  C_3
REMARK    3  A    between atoms: C_3  and  N_4
REMARK    4  A    between atoms: C_5  and  C_22
REMARK    5  A    between atoms: C_8  and  S_9
REMARK    6  A    between atoms: S_9  and  C_10
REMARK    7  A    between atoms: C_10  and  C_11
REMARK    8  A    between atoms: C_14  and  C_16
REMARK    9  A    between atoms: C_24  and  C_28
REMARK   10  A    between atoms: N_26  and  C_27
REMARK                            x       y       z     vdW  Elec       q    Type
REMARK                         _______ _______ _______ _____ _____    ______ ____
ROOT
ATOM      1  N   UNL     1      -1.454  -1.992  -0.118  0.00  0.00    -0.301 N 
ATOM      2  C   UNL     1      -1.361  -2.724  -1.280  0.00  0.00    +0.183 A 
ATOM      3  N   UNL     1      -1.352  -3.993  -0.936  0.00  0.00    -0.127 NA
ATOM      4  N   UNL     1      -1.433  -4.101   0.342  0.00  0.00    -0.122 NA
ATOM      5  C   UNL     1      -1.492  -2.910   0.894  0.00  0.00    +0.192 A 
ENDROOT
BRANCH   2   6
ATOM      6  C   UNL     1      -1.285  -2.188  -2.650  0.00  0.00    +0.106 A 
ATOM      7  C   UNL     1      -1.176  -0.859  -3.005  0.00  0.00    +0.055 A 
ATOM      8  C   UNL     1      -1.135  -0.795  -4.397  0.00  0.00    +0.061 A 
ATOM      9  N   UNL     1      -1.213  -2.011  -4.876  0.00  0.00    -0.176 NA
ATOM     10  N   UNL     1      -1.302  -2.911  -3.807  0.00  0.00    -0.263 N 
ATOM     11  C   UNL     1      -1.401  -4.369  -3.913  0.00  0.00    +0.173 C 
ATOM     12  C   UNL     1      -1.019   0.465  -5.215  0.00  0.00    +0.067 C 
ENDBRANCH   2   6
BRANCH   1  13
ATOM     13  C   UNL     1      -1.498  -0.533   0.009  0.00  0.00    +0.125 C 
BRANCH  13  15
ATOM     14  C   UNL     1      -0.121   1.552   0.008  0.00  0.00    +0.005 C 
ATOM     15  C   UNL     1      -0.072   0.022   0.001  0.00  0.00    +0.018 C 
ENDBRANCH  13  15
ENDBRANCH   1  13
BRANCH   5  16
ATOM     16  S   UNL     1      -1.603  -2.561   2.617  0.00  0.00    -0.077 S 
BRANCH  16  17
ATOM     17  C   UNL     1      -1.609  -4.199   3.397  0.00  0.00    +0.173 C 
BRANCH  17  18
ATOM     18  C   UNL     1      -1.702  -4.043   4.893  0.00  0.00    +0.206 A 
ATOM     19  N   UNL     1      -2.808  -3.996   5.582  0.00  0.00    -0.220 NA
ATOM     20  C   UNL     1      -2.505  -3.853   6.880  0.00  0.00    +0.161 A 
ATOM     21  C   UNL     1      -1.152  -3.810   6.982  0.00  0.00    +0.155 A 
ATOM     22  O   UNL     1      -0.661  -3.935   5.730  0.00  0.00    -0.439 OA
BRANCH  21  23
ATOM     23  C   UNL     1      -0.366  -3.660   8.226  0.00  0.00    +0.019 A 
ATOM     24  C   UNL     1      -1.016  -3.552   9.456  0.00  0.00    +0.011 A 
ATOM     25  C   UNL     1      -0.277  -3.413  10.613  0.00  0.00    +0.001 A 
ATOM     26  C   UNL     1       1.105  -3.381  10.555  0.00  0.00    +0.000 A 
ATOM     27  C   UNL     1       1.755  -3.488   9.338  0.00  0.00    +0.001 A 
ATOM     28  C   UNL     1       1.028  -3.633   8.175  0.00  0.00    +0.011 A 
ENDBRANCH  21  23
ENDBRANCH  17  18
ENDBRANCH  16  17
ENDBRANCH   5  16
TORSDOF 7
