REMARK  Name = ZINC12498095
REMARK  10 active torsions:
REMARK  status: ('A' for Active; 'I' for Inactive)
REMARK    1  A    between atoms: C_1  and  C_2
REMARK    2  A    between atoms: C_2  and  C_3
REMARK    3  A    between atoms: C_3  and  C_31
REMARK    4  A    between atoms: C_8  and  C_10
REMARK    5  A    between atoms: N_19  and  C_22
REMARK    6  A    between atoms: C_26  and  C_28
REMARK    7  A    between atoms: C_28  and  C_30
REMARK    8  A    between atoms: C_31  and  O_33
REMARK    9  A    between atoms: O_33  and  C_34
REMARK   10  A    between atoms: C_34  and  C_35
REMARK                            x       y       z     vdW  Elec       q    Type
REMARK                         _______ _______ _______ _____ _____    ______ ____
ROOT
ATOM      1  C   UNL     1       4.516   2.789   0.536  0.00  0.00    +0.043 C 
ATOM      2  C   UNL     1       3.681   2.832   1.793  0.00  0.00    +0.086 C 
ATOM      3  C   UNL     1       2.922   4.188   1.502  0.00  0.00    +0.077 C 
ATOM      4  C   UNL     1       2.433   3.950   0.120  0.00  0.00    -0.024 C 
ATOM      5  C   UNL     1       2.272   4.380   2.799  0.00  0.00    +0.229 C 
ATOM      6  O   UNL     1       1.175   4.854   3.005  0.00  0.00    -0.275 OA
ATOM      7  N   UNL     1       3.161   3.896   3.726  0.00  0.00    -0.210 N 
ATOM      8  C   UNL     1       4.159   3.149   3.157  0.00  0.00    +0.229 C 
ATOM      9  O   UNL     1       5.210   2.819   3.663  0.00  0.00    -0.275 OA
ATOM     10  N   UNL     1       3.514   3.143  -0.515  0.00  0.00    +0.395 N 
ATOM     11  H   UNL     1       3.117   2.286  -0.918  0.00  0.00    -0.083 HD
ATOM     12  H   UNL     1       3.968   3.691  -1.256  0.00  0.00    -0.083 HD
ENDROOT
BRANCH   4  13
ATOM     13  C   UNL     1       1.140   3.176   0.145  0.00  0.00    -0.025 A 
ATOM     14  C   UNL     1       1.159   1.796   0.083  0.00  0.00    +0.005 A 
ATOM     15  C   UNL     1      -0.027   1.086   0.106  0.00  0.00    +0.000 A 
ATOM     16  C   UNL     1      -1.233   1.756   0.186  0.00  0.00    +0.003 A 
ATOM     17  C   UNL     1      -1.254   3.136   0.254  0.00  0.00    +0.038 A 
ATOM     18  C   UNL     1      -0.067   3.848   0.231  0.00  0.00    +0.125 A 
ATOM     19  F   UNL     1      -0.087   5.198   0.292  0.00  0.00    -0.205 F 
ENDBRANCH   4  13
BRANCH   7  20
ATOM     20  C   UNL     1       3.059   4.139   5.103  0.00  0.00    +0.045 A 
ATOM     21  C   UNL     1       4.002   3.605   5.974  0.00  0.00    +0.024 A 
ATOM     22  C   UNL     1       3.911   3.845   7.333  0.00  0.00    +0.003 A 
ATOM     23  C   UNL     1       2.877   4.607   7.836  0.00  0.00    +0.011 A 
ATOM     24  C   UNL     1       1.920   5.145   6.969  0.00  0.00    +0.019 A 
ATOM     25  C   UNL     1       2.017   4.906   5.595  0.00  0.00    +0.035 A 
BRANCH  24  26
ATOM     26  C   UNL     1       0.815   5.959   7.502  0.00  0.00    +0.160 C 
ATOM     27  O   UNL     1      -0.014   6.423   6.748  0.00  0.00    -0.292 OA
ATOM     28  C   UNL     1       0.714   6.214   8.983  0.00  0.00    +0.091 C 
ENDBRANCH  24  26
ENDBRANCH   7  20
BRANCH   1  30
ATOM     29  C   UNL     1       6.401   3.826  -0.734  0.00  0.00    +0.003 C 
ATOM     30  C   UNL     1       5.637   3.829   0.591  0.00  0.00    -0.004 C 
ENDBRANCH   1  30
BRANCH   1  31
ATOM     31  C   UNL     1       5.075   1.407   0.311  0.00  0.00    +0.297 C 
ATOM     32  O   UNL     1       5.325   0.696   1.256  0.00  0.00    -0.252 OA
BRANCH  31  33
ATOM     33  O   UNL     1       5.295   0.967  -0.937  0.00  0.00    -0.466 OA
BRANCH  33  34
ATOM     34  C   UNL     1       5.835  -0.374  -1.078  0.00  0.00    +0.228 C 
ATOM     35  C   UNL     1       6.017  -0.697  -2.562  0.00  0.00    +0.048 C 
ENDBRANCH  33  34
ENDBRANCH  31  33
ENDBRANCH   1  31
TORSDOF 7
