REMARK  Name = ZINC60360563
REMARK  12 active torsions:
REMARK  status: ('A' for Active; 'I' for Inactive)
REMARK    1  A    between atoms: C_1  and  C_2
REMARK    2  A    between atoms: C_2  and  C_3
REMARK    3  A    between atoms: C_3  and  N_4
REMARK    4  A    between atoms: C_5  and  C_7
REMARK    5  A    between atoms: N_10  and  S_18
REMARK    6  A    between atoms: S_18  and  C_21
REMARK    7  A    between atoms: C_24  and  O_28
REMARK    8  A    between atoms: C_25  and  C_27
REMARK    9  A    between atoms: O_28  and  C_29
REMARK   10  A    between atoms: C_29  and  C_30
REMARK   11  A    between atoms: C_30  and  C_31
REMARK   12  A    between atoms: C_31  and  C_32
REMARK                            x       y       z     vdW  Elec       q    Type
REMARK                         _______ _______ _______ _____ _____    ______ ____
ROOT
ATOM      1  C   UNL     1       1.373  -4.145   2.233  0.00  0.00    +0.277 C 
ATOM      2  C   UNL     1      -0.056  -4.689   2.382  0.00  0.00    +0.186 C 
ATOM      3  N   UNL     1       0.028  -6.159   2.407  0.00  0.00    -0.195 N 
ATOM      4  C   UNL     1       1.063  -6.741   3.157  0.00  0.00    +0.093 A 
ATOM      5  C   UNL     1       1.029  -8.094   3.454  0.00  0.00    +0.028 A 
ATOM      6  C   UNL     1       2.052  -8.664   4.190  0.00  0.00    +0.002 A 
ATOM      7  C   UNL     1       3.106  -7.884   4.629  0.00  0.00    +0.004 A 
ATOM      8  C   UNL     1       3.144  -6.534   4.336  0.00  0.00    +0.047 A 
ATOM      9  C   UNL     1       2.122  -5.954   3.600  0.00  0.00    +0.144 A 
ATOM     10  O   UNL     1       2.166  -4.623   3.321  0.00  0.00    -0.476 OA
ENDROOT
BRANCH   1  12
ATOM     11  N   UNL     1       0.732  -1.963   1.259  0.00  0.00    -0.312 N 
ATOM     12  C   UNL     1       1.344  -2.639   2.252  0.00  0.00    +0.255 C 
ATOM     13  O   UNL     1       1.872  -2.034   3.161  0.00  0.00    -0.272 OA
ATOM     14  H   UNL     1       0.309  -2.447   0.532  0.00  0.00    +0.149 HD
BRANCH  11  15
ATOM     15  C   UNL     1       0.704  -0.499   1.278  0.00  0.00    +0.104 C 
BRANCH  15  17
ATOM     16  C   UNL     1      -0.076   1.542   0.067  0.00  0.00    +0.005 C 
ATOM     17  C   UNL     1      -0.047   0.013   0.047  0.00  0.00    +0.015 C 
ENDBRANCH  15  17
ENDBRANCH  11  15
ENDBRANCH   1  12
BRANCH   3  18
ATOM     18  S   UNL     1      -1.060  -7.094   1.580  0.00  0.00    +0.075 S 
ATOM     19  O   UNL     1      -1.653  -6.254   0.598  0.00  0.00    -0.150 OA
ATOM     20  O   UNL     1      -0.388  -8.300   1.245  0.00  0.00    -0.150 OA
BRANCH  18  21
ATOM     21  C   UNL     1      -2.340  -7.527   2.711  0.00  0.00    +0.109 A 
ATOM     22  C   UNL     1      -2.230  -8.678   3.469  0.00  0.00    +0.032 A 
ATOM     23  C   UNL     1      -3.232  -9.021   4.356  0.00  0.00    +0.048 A 
ATOM     24  C   UNL     1      -4.350  -8.208   4.486  0.00  0.00    +0.123 A 
ATOM     25  C   UNL     1      -4.457  -7.053   3.724  0.00  0.00    -0.007 A 
ATOM     26  C   UNL     1      -3.450  -6.713   2.842  0.00  0.00    +0.035 A 
ATOM     27  C   UNL     1      -5.669  -6.169   3.863  0.00  0.00    +0.047 C 
BRANCH  24  28
ATOM     28  O   UNL     1      -5.337  -8.543   5.357  0.00  0.00    -0.492 OA
BRANCH  28  29
ATOM     29  C   UNL     1      -5.159  -9.745   6.108  0.00  0.00    +0.229 C 
BRANCH  29  30
ATOM     30  C   UNL     1      -6.364  -9.955   7.029  0.00  0.00    +0.052 C 
BRANCH  30  31
ATOM     31  C   UNL     1      -6.174 -11.243   7.832  0.00  0.00    +0.128 C 
BRANCH  31  32
ATOM     32  C   UNL     1      -7.360 -11.449   8.739  0.00  0.00    +0.356 C 
ATOM     33  O   UNL     1      -8.273 -10.641   8.741  0.00  0.00    -0.246 OA
ATOM     34  O   UNL     1      -7.407 -12.424   9.469  0.00  0.00    -0.246 OA
ENDBRANCH  31  32
ENDBRANCH  30  31
ENDBRANCH  29  30
ENDBRANCH  28  29
ENDBRANCH  24  28
ENDBRANCH  18  21
ENDBRANCH   3  18
TORSDOF 10
