REMARK  Name = ZINC22472939
REMARK  9 active torsions:
REMARK  status: ('A' for Active; 'I' for Inactive)
REMARK    1  A    between atoms: C_1  and  N_2
REMARK    2  A    between atoms: N_2  and  C_3
REMARK    3  A    between atoms: C_3  and  C_4
REMARK    4  A    between atoms: C_4  and  C_5
REMARK    5  A    between atoms: C_5  and  N_6
REMARK    6  A    between atoms: C_9  and  O_10
REMARK    7  A    between atoms: C_18  and  C_20
REMARK    8  A    between atoms: C_20  and  C_21
REMARK    9  A    between atoms: C_20  and  C_27
REMARK                            x       y       z     vdW  Elec       q    Type
REMARK                         _______ _______ _______ _____ _____    ______ ____
ROOT
ATOM      1  C   UNL     1       1.125   0.752   2.492  0.00  0.00    +0.132 C 
ATOM      2  N   UNL     1      -0.171   0.071   2.468  0.00  0.00    -0.304 N 
ATOM      3  C   UNL     1      -0.719  -0.295   1.293  0.00  0.00    +0.227 C 
ATOM      4  O   UNL     1      -1.793  -0.860   1.273  0.00  0.00    -0.275 OA
ENDROOT
BRANCH   2   5
ATOM      5  C   UNL     1      -0.873  -0.213   3.723  0.00  0.00    +0.109 C 
BRANCH   5   6
ATOM      6  C   UNL     1      -0.448  -1.587   4.245  0.00  0.00    +0.040 C 
BRANCH   6   7
ATOM      7  C   UNL     1      -1.181  -1.883   5.556  0.00  0.00    +0.114 C 
BRANCH   7   8
ATOM      8  N   UNL     1      -0.774  -3.198   6.056  0.00  0.00    -0.384 N 
ATOM      9  C   UNL     1      -1.306  -3.683   7.231  0.00  0.00    +0.053 A 
ATOM     10  C   UNL     1      -2.216  -2.951   7.949  0.00  0.00    +0.113 A 
ATOM     11  C   UNL     1      -2.739  -3.471   9.140  0.00  0.00    +0.286 A 
ATOM     12  O   UNL     1      -2.374  -4.675   9.609  0.00  0.00    -0.425 OA
ATOM     13  C   UNL     1      -1.483  -5.452   8.956  0.00  0.00    +0.141 A 
ATOM     14  C   UNL     1      -0.918  -5.005   7.751  0.00  0.00    +0.041 A 
ATOM     15  C   UNL     1      -0.001  -5.806   7.069  0.00  0.00    +0.013 A 
ATOM     16  C   UNL     1       0.340  -7.038   7.583  0.00  0.00    +0.001 A 
ATOM     17  C   UNL     1      -0.223  -7.482   8.770  0.00  0.00    +0.004 A 
ATOM     18  C   UNL     1      -1.121  -6.694   9.460  0.00  0.00    +0.047 A 
ATOM     19  H   UNL     1      -0.044  -3.799   5.493  0.00  0.00    +0.160 HD
BRANCH  11  20
ATOM     20  O   UNL     1      -3.548  -2.811   9.769  0.00  0.00    -0.480 OA
ATOM     21  H   UNL     1      -3.969  -3.204  10.706  0.00  0.00    +0.295 HD
ENDBRANCH  11  20
ENDBRANCH   7   8
ENDBRANCH   6   7
ENDBRANCH   5   6
ENDBRANCH   2   5
BRANCH   3  22
ATOM     22  C   UNL     1       0.002  -0.004   0.002  0.00  0.00    +0.135 C 
BRANCH  22  23
ATOM     23  C   UNL     1       0.202   1.483  -0.137  0.00  0.00    -0.031 A 
ATOM     24  C   UNL     1      -0.869   2.342   0.021  0.00  0.00    +0.005 A 
ATOM     25  C   UNL     1      -0.685   3.707  -0.101  0.00  0.00    +0.000 A 
ATOM     26  C   UNL     1       0.569   4.212  -0.392  0.00  0.00    +0.000 A 
ATOM     27  C   UNL     1       1.639   3.352  -0.556  0.00  0.00    +0.000 A 
ATOM     28  C   UNL     1       1.456   1.988  -0.428  0.00  0.00    +0.005 A 
ENDBRANCH  22  23
BRANCH  22  29
ATOM     29  C   UNL     1      -0.817  -0.511  -1.157  0.00  0.00    -0.031 A 
ATOM     30  C   UNL     1      -2.134  -0.116  -1.298  0.00  0.00    +0.005 A 
ATOM     31  C   UNL     1      -2.884  -0.577  -2.364  0.00  0.00    +0.000 A 
ATOM     32  C   UNL     1      -2.320  -1.442  -3.283  0.00  0.00    +0.000 A 
ATOM     33  C   UNL     1      -1.005  -1.842  -3.138  0.00  0.00    +0.000 A 
ATOM     34  C   UNL     1      -0.253  -1.376  -2.076  0.00  0.00    +0.005 A 
ENDBRANCH  22  29
ENDBRANCH   3  22
TORSDOF 8
