REMARK  Name = ZINC12213528
REMARK  10 active torsions:
REMARK  status: ('A' for Active; 'I' for Inactive)
REMARK    1  A    between atoms: C_1  and  C_2
REMARK    2  A    between atoms: C_2  and  C_3
REMARK    3  A    between atoms: C_2  and  C_4
REMARK    4  A    between atoms: C_7  and  C_10
REMARK    5  A    between atoms: C_10  and  N_59
REMARK    6  A    between atoms: C_12  and  N_28
REMARK    7  A    between atoms: C_15  and  C_17
REMARK    8  A    between atoms: N_19  and  C_20
REMARK    9  A    between atoms: C_24  and  S_26
REMARK   10  A    between atoms: S_26  and  C_27
REMARK                            x       y       z     vdW  Elec       q    Type
REMARK                         _______ _______ _______ _____ _____    ______ ____
ROOT
ATOM      1  C   UNL     1      -0.431   2.889  -1.028  0.00  0.00    -0.050 C 
ATOM      2  C   UNL     1      -1.625   3.459  -1.816  0.00  0.00    +0.093 C 
ATOM      3  C   UNL     1      -2.572   2.258  -2.039  0.00  0.00    +0.019 C 
ATOM      4  C   UNL     1      -2.156   1.276  -0.915  0.00  0.00    +0.022 C 
ATOM      5  N   UNL     1      -0.700   1.456  -0.862  0.00  0.00    +0.391 N 
ATOM      6  H   UNL     1      -0.258   0.929  -1.625  0.00  0.00    -0.080 HD
ENDROOT
BRANCH   2   7
ATOM      7  N   UNL     1      -1.174   3.997  -3.102  0.00  0.00    -0.231 N 
ATOM      8  C   UNL     1      -0.167   3.522  -3.859  0.00  0.00    +0.245 A 
ATOM      9  N   UNL     1      -0.099   4.289  -4.919  0.00  0.00    -0.117 NA
ATOM     10  N   UNL     1      -1.017   5.188  -4.819  0.00  0.00    -0.023 NA
ATOM     11  N   UNL     1      -1.672   5.011  -3.725  0.00  0.00    -0.044 NA
ENDBRANCH   2   7
BRANCH   4  12
ATOM     12  C   UNL     1      -2.513  -0.140  -1.287  0.00  0.00    +0.204 C 
ATOM     13  O   UNL     1      -1.637  -0.956  -1.483  0.00  0.00    -0.277 OA
ATOM     14  N   UNL     1      -3.807  -0.500  -1.403  0.00  0.00    -0.287 N 
ATOM     15  H   UNL     1      -4.508   0.129  -1.173  0.00  0.00    +0.155 HD
BRANCH  14  16
ATOM     16  C   UNL     1      -4.139  -1.782  -1.855  0.00  0.00    +0.034 A 
ATOM     17  C   UNL     1      -3.335  -2.418  -2.793  0.00  0.00    +0.023 A 
ATOM     18  C   UNL     1      -3.659  -3.686  -3.237  0.00  0.00    +0.003 A 
ATOM     19  C   UNL     1      -4.788  -4.322  -2.758  0.00  0.00    +0.015 A 
ATOM     20  C   UNL     1      -5.599  -3.689  -1.823  0.00  0.00    +0.009 A 
ATOM     21  C   UNL     1      -5.273  -2.417  -1.371  0.00  0.00    +0.038 A 
BRANCH  20  22
ATOM     22  S   UNL     1      -7.039  -4.500  -1.212  0.00  0.00    -0.129 S 
ATOM     23  C   UNL     1      -7.043  -6.096  -2.074  0.00  0.00    +0.090 C 
ENDBRANCH  20  22
ENDBRANCH  14  16
ENDBRANCH   4  12
BRANCH   5  24
ATOM     24  C   UNL     1      -0.158   0.975   0.444  0.00  0.00    -0.042 C 
BRANCH  24  28
ATOM     25  C   UNL     1      -2.533   2.584   3.610  0.00  0.00    -0.045 A 
ATOM     26  C   UNL     1      -2.868   1.369   3.043  0.00  0.00    +0.004 A 
ATOM     27  C   UNL     1      -2.100   0.848   2.019  0.00  0.00    +0.002 A 
ATOM     28  C   UNL     1      -0.996   1.543   1.561  0.00  0.00    -0.064 A 
ATOM     29  C   UNL     1      -0.657   2.756   2.131  0.00  0.00    +0.002 A 
ATOM     30  C   UNL     1      -1.428   3.279   3.153  0.00  0.00    +0.004 A 
BRANCH  25  32
ATOM     31  C   UNL     1      -2.504   3.331   5.974  0.00  0.00    +0.012 C 
ATOM     32  C   UNL     1      -3.371   3.152   4.726  0.00  0.00    +0.013 C 
ATOM     33  C   UNL     1      -3.937   4.508   4.300  0.00  0.00    +0.012 C 
ENDBRANCH  25  32
ENDBRANCH  24  28
ENDBRANCH   5  24
TORSDOF 7
