REMARK  Name = ZINC54363821
REMARK  7 active torsions:
REMARK  status: ('A' for Active; 'I' for Inactive)
REMARK    1  A    between atoms: C_1  and  C_2
REMARK    2  A    between atoms: C_2  and  N_3
REMARK    3  A    between atoms: N_3  and  C_4
REMARK    4  A    between atoms: N_3  and  C_6
REMARK    5  A    between atoms: C_4  and  C_5
REMARK    6  A    between atoms: C_9  and  C_12
REMARK    7  A    between atoms: C_16  and  C_24
REMARK                            x       y       z     vdW  Elec       q    Type
REMARK                         _______ _______ _______ _____ _____    ______ ____
ROOT
ATOM      1  C   UNL     1      -4.239  -1.183   4.589  0.00  0.00    +0.013 C 
ATOM      2  C   UNL     1      -5.455  -1.759   4.698  0.00  0.00    -0.027 C 
ATOM      3  C   UNL     1      -6.220  -2.409   3.568  0.00  0.00    +0.037 C 
ATOM      4  C   UNL     1      -7.678  -2.507   4.066  0.00  0.00    +0.018 C 
ATOM      5  C   UNL     1      -7.517  -2.564   5.600  0.00  0.00    +0.077 C 
ATOM      6  C   UNL     1      -6.213  -1.855   5.893  0.00  0.00    +0.025 C 
ATOM      7  N   UNL     1      -5.848  -1.403   7.054  0.00  0.00    -0.369 N 
ATOM      8  C   UNL     1      -4.865  -0.314   7.168  0.00  0.00    +0.144 C 
ATOM      9  C   UNL     1      -5.441   0.763   8.095  0.00  0.00    +0.181 C 
ATOM     10  O   UNL     1      -5.859   0.155   9.319  0.00  0.00    -0.376 OA
ATOM     11  C   UNL     1      -6.905  -0.807   9.167  0.00  0.00    +0.181 C 
ATOM     12  C   UNL     1      -6.409  -1.960   8.296  0.00  0.00    +0.144 C 
ENDROOT
BRANCH   5  13
ATOM     13  C   UNL     1      -8.681  -1.844   6.283  0.00  0.00    +0.186 C 
ATOM     14  N   UNL     1      -8.722  -0.434   5.857  0.00  0.00    -0.296 N 
ATOM     15  C   UNL     1      -9.312  -0.097   4.668  0.00  0.00    +0.182 C 
ATOM     16  N   UNL     1     -10.313  -0.804   4.173  0.00  0.00    -0.183 NA
ATOM     17  C   UNL     1     -10.710  -1.914   4.838  0.00  0.00    +0.236 A 
ATOM     18  N   UNL     1      -9.955  -2.448   5.872  0.00  0.00    -0.289 N 
ATOM     19  C   UNL     1     -10.617  -3.541   6.345  0.00  0.00    +0.072 A 
ATOM     20  C   UNL     1     -10.349  -4.441   7.369  0.00  0.00    +0.028 A 
ATOM     21  C   UNL     1     -11.268  -5.459   7.573  0.00  0.00    +0.002 A 
ATOM     22  C   UNL     1     -12.407  -5.585   6.798  0.00  0.00    +0.002 A 
ATOM     23  C   UNL     1     -12.698  -4.703   5.774  0.00  0.00    +0.030 A 
ATOM     24  C   UNL     1     -11.785  -3.666   5.549  0.00  0.00    +0.091 A 
ATOM     25  N   UNL     1     -11.775  -2.656   4.649  0.00  0.00    -0.210 NA
ATOM     26  N   UNL     1      -8.856   0.993   3.978  0.00  0.00    -0.331 N 
ATOM     27  H   UNL     1      -8.331   0.255   6.418  0.00  0.00    +0.151 HD
ATOM     28  H   UNL     1      -8.122   1.519   4.332  0.00  0.00    +0.145 HD
ATOM     29  H   UNL     1      -9.267   1.240   3.135  0.00  0.00    +0.145 HD
ENDBRANCH   5  13
BRANCH   1  33
ATOM     30  C   UNL     1      -2.456  -0.702   0.770  0.00  0.00    +0.030 A 
ATOM     31  C   UNL     1      -3.279  -1.798   1.019  0.00  0.00    +0.024 A 
ATOM     32  C   UNL     1      -3.859  -1.957   2.257  0.00  0.00    +0.010 A 
ATOM     33  C   UNL     1      -3.621  -1.017   3.266  0.00  0.00    -0.025 A 
ATOM     34  C   UNL     1      -2.793   0.083   3.011  0.00  0.00    +0.010 A 
ATOM     35  C   UNL     1      -2.212   0.232   1.772  0.00  0.00    +0.024 A 
BRANCH  30  36
ATOM     36  N   UNL     1      -1.871  -0.545  -0.483  0.00  0.00    -0.330 N 
BRANCH  36  38
ATOM     37  C   UNL     1      -1.073  -2.635  -1.471  0.00  0.00    +0.024 C 
ATOM     38  C   UNL     1      -2.126  -1.527  -1.540  0.00  0.00    +0.102 C 
ENDBRANCH  36  38
BRANCH  36  39
ATOM     39  C   UNL     1      -1.000   0.604  -0.746  0.00  0.00    +0.102 C 
ATOM     40  C   UNL     1      -1.839   1.770  -1.274  0.00  0.00    +0.024 C 
ENDBRANCH  36  39
ENDBRANCH  30  36
ENDBRANCH   1  33
TORSDOF 5
