REMARK  Name = ZINC10882518
REMARK  6 active torsions:
REMARK  status: ('A' for Active; 'I' for Inactive)
REMARK    1  A    between atoms: C_1  and  C_2
REMARK    2  A    between atoms: C_8  and  C_10
REMARK    3  A    between atoms: C_10  and  C_12
REMARK    4  A    between atoms: C_10  and  S_13
REMARK    5  A    between atoms: S_13  and  C_14
REMARK    6  A    between atoms: N_18  and  C_19
REMARK                            x       y       z     vdW  Elec       q    Type
REMARK                         _______ _______ _______ _____ _____    ______ ____
ROOT
ATOM      1  S   UNL     1       0.147   0.980   2.733  0.00  0.00    -0.072 S 
ENDROOT
BRANCH   1   2
ATOM      2  C   UNL     1       1.675   1.838   2.550  0.00  0.00    +0.215 A 
ATOM      3  N   UNL     1       1.997   2.661   1.575  0.00  0.00    -0.101 NA
ATOM      4  N   UNL     1       3.185   3.118   1.747  0.00  0.00    -0.022 NA
ATOM      5  N   UNL     1       3.706   2.624   2.817  0.00  0.00    -0.038 NA
ATOM      6  N   UNL     1       2.743   1.770   3.383  0.00  0.00    -0.187 N 
BRANCH   6   7
ATOM      7  C   UNL     1       2.861   1.011   4.556  0.00  0.00    +0.070 A 
ATOM      8  C   UNL     1       1.757   0.821   5.376  0.00  0.00    +0.029 A 
ATOM      9  C   UNL     1       1.875   0.069   6.528  0.00  0.00    +0.022 A 
ATOM     10  C   UNL     1       3.095  -0.486   6.872  0.00  0.00    +0.041 A 
ATOM     11  C   UNL     1       4.199  -0.293   6.060  0.00  0.00    +0.022 A 
ATOM     12  C   UNL     1       4.085   0.454   4.903  0.00  0.00    +0.029 A 
ATOM     13 CL   UNL     1       3.242  -1.424   8.325  0.00  0.00    -0.084 Cl
ENDBRANCH   6   7
ENDBRANCH   1   2
BRANCH   1  14
ATOM     14  C   UNL     1      -0.729   1.579   1.267  0.00  0.00    +0.137 C 
ATOM     15  C   UNL     1      -0.013   1.086   0.008  0.00  0.00    +0.029 C 
BRANCH  14  23
ATOM     16  C   UNL     1      -6.125   4.638   0.262  0.00  0.00    +0.007 C 
ATOM     17  C   UNL     1      -5.165   3.493  -0.067  0.00  0.00    -0.011 C 
ATOM     18  C   UNL     1      -5.414   2.327   0.893  0.00  0.00    +0.022 C 
ATOM     19  C   UNL     1      -4.474   1.170   0.540  0.00  0.00    +0.108 C 
ATOM     20  N   UNL     1      -3.091   1.667   0.539  0.00  0.00    -0.301 N 
ATOM     21  C   UNL     1      -2.764   2.845  -0.276  0.00  0.00    +0.108 C 
ATOM     22  C   UNL     1      -3.722   3.980   0.083  0.00  0.00    +0.022 C 
ATOM     23  C   UNL     1      -2.143   1.058   1.278  0.00  0.00    +0.229 C 
ATOM     24  O   UNL     1      -2.427   0.089   1.950  0.00  0.00    -0.274 OA
ENDBRANCH  14  23
ENDBRANCH   1  14
TORSDOF 4
