REMARK  Name = ZINC05520421
REMARK  4 active torsions:
REMARK  status: ('A' for Active; 'I' for Inactive)
REMARK    1  A    between atoms: C_1  and  N_2
REMARK    2  A    between atoms: C_6  and  C_7
REMARK    3  A    between atoms: C_12  and  N_14
REMARK    4  A    between atoms: N_14  and  C_15
REMARK                            x       y       z     vdW  Elec       q    Type
REMARK                         _______ _______ _______ _____ _____    ______ ____
ROOT
ATOM      1  C   UNL     1      -0.457  -0.550   2.612  0.00  0.00    +0.046 C 
ATOM      2  C   UNL     1      -0.405   0.768   2.955  0.00  0.00    +0.081 C 
ATOM      3  C   UNL     1      -0.684   1.969   2.140  0.00  0.00    +0.276 C 
ATOM      4  O   UNL     1      -1.020   1.888   0.969  0.00  0.00    -0.267 OA
ATOM      5  N   UNL     1      -0.551   3.130   2.745  0.00  0.00    -0.152 NA
ATOM      6  C   UNL     1      -0.189   3.232   4.013  0.00  0.00    +0.175 C 
ATOM      7  S   UNL     1       0.011   1.530   4.518  0.00  0.00    -0.050 S 
ENDROOT
BRANCH   1  13
ATOM      8  C   UNL     1       1.177   0.409   0.198  0.00  0.00    +0.149 C 
ATOM      9  N   UNL     1       0.033  -0.505   0.171  0.00  0.00    -0.350 N 
ATOM     10  C   UNL     1      -0.492  -1.086  -0.939  0.00  0.00    +0.086 A 
ATOM     11  C   UNL     1      -1.539  -1.865  -0.575  0.00  0.00    +0.020 A 
ATOM     12  C   UNL     1      -1.680  -1.774   0.813  0.00  0.00    +0.027 A 
ATOM     13  C   UNL     1      -0.688  -0.923   1.268  0.00  0.00    +0.043 A 
ENDBRANCH   1  13
BRANCH   6  14
ATOM     14  N   UNL     1      -0.014   4.369   4.761  0.00  0.00    -0.192 NA
BRANCH  14  15
ATOM     15  C   UNL     1      -0.187   5.625   4.174  0.00  0.00    +0.056 A 
ATOM     16  C   UNL     1      -1.039   5.763   3.071  0.00  0.00    +0.026 A 
ATOM     17  C   UNL     1      -1.226   6.972   2.480  0.00  0.00    +0.010 A 
ATOM     18  C   UNL     1      -0.558   8.106   2.976  0.00  0.00    -0.018 A 
ATOM     19  C   UNL     1      -0.733   9.369   2.385  0.00  0.00    +0.008 A 
ATOM     20  C   UNL     1      -0.072  10.447   2.890  0.00  0.00    +0.001 A 
ATOM     21  C   UNL     1       0.778  10.318   3.987  0.00  0.00    +0.001 A 
ATOM     22  C   UNL     1       0.972   9.111   4.585  0.00  0.00    +0.008 A 
ATOM     23  C   UNL     1       0.306   7.975   4.092  0.00  0.00    -0.016 A 
ATOM     24  C   UNL     1       0.478   6.716   4.689  0.00  0.00    +0.033 A 
ENDBRANCH  14  15
ENDBRANCH   6  14
TORSDOF 3
