REMARK  Name = ZINC20706678
REMARK  7 active torsions:
REMARK  status: ('A' for Active; 'I' for Inactive)
REMARK    1  A    between atoms: C_1  and  C_2
REMARK    2  A    between atoms: C_2  and  N_3
REMARK    3  A    between atoms: N_3  and  C_4
REMARK    4  A    between atoms: N_3  and  C_6
REMARK    5  A    between atoms: C_4  and  C_5
REMARK    6  A    between atoms: C_19  and  C_22
REMARK    7  A    between atoms: C_27  and  O_28
REMARK                            x       y       z     vdW  Elec       q    Type
REMARK                         _______ _______ _______ _____ _____    ______ ____
ROOT
ATOM      1  C   UNL     1      -1.287   1.984   0.335  0.00  0.00    +0.030 A 
ATOM      2  C   UNL     1       0.101   1.992   0.353  0.00  0.00    +0.025 A 
ATOM      3  C   UNL     1       0.791   0.799   0.267  0.00  0.00    +0.025 A 
ATOM      4  C   UNL     1       0.100  -0.400   0.164  0.00  0.00    +0.031 A 
ATOM      5  C   UNL     1      -1.286  -0.417   0.147  0.00  0.00    -0.018 A 
ATOM      6  C   UNL     1      -1.975   0.786   0.233  0.00  0.00    +0.029 A 
ATOM      7  C   UNL     1      -2.071  -1.686   0.043  0.00  0.00    +0.049 C 
ATOM      8  C   UNL     1      -2.660  -1.858  -1.338  0.00  0.00    -0.023 C 
ATOM      9  C   UNL     1      -2.645  -3.122  -1.683  0.00  0.00    -0.030 C 
ATOM     10  C   UNL     1      -2.048  -3.968  -0.575  0.00  0.00    +0.033 C 
ATOM     11  C   UNL     1      -1.208  -2.946   0.246  0.00  0.00    +0.029 C 
ATOM     12  C   UNL     1       0.136  -2.781  -0.469  0.00  0.00    +0.108 C 
ATOM     13  N   UNL     1       0.819  -1.601   0.071  0.00  0.00    -0.336 N 
ATOM     14  H   UNL     1       1.869  -1.672   0.392  0.00  0.00    +0.147 HD
ENDROOT
BRANCH  12  15
ATOM     15  C   UNL     1      -0.098  -2.597  -1.946  0.00  0.00    +0.014 A 
ATOM     16  C   UNL     1      -0.383  -1.342  -2.450  0.00  0.00    +0.009 A 
ATOM     17  C   UNL     1      -0.593  -1.171  -3.806  0.00  0.00    +0.001 A 
ATOM     18  C   UNL     1      -0.529  -2.257  -4.660  0.00  0.00    +0.004 A 
ATOM     19  C   UNL     1      -0.250  -3.515  -4.161  0.00  0.00    +0.046 A 
ATOM     20  C   UNL     1      -0.034  -3.688  -2.801  0.00  0.00    +0.122 A 
BRANCH  20  21
ATOM     21  O   UNL     1       0.240  -4.924  -2.307  0.00  0.00    -0.506 OA
ATOM     22  H   UNL     1       0.291  -5.788  -2.986  0.00  0.00    +0.292 HD
ENDBRANCH  20  21
ENDBRANCH  12  15
BRANCH   1  23
ATOM     23  N   UNL     1      -1.994   3.190   0.419  0.00  0.00    -0.330 N 
BRANCH  23  25
ATOM     24  C   UNL     1      -0.997   5.011  -0.874  0.00  0.00    +0.024 C 
ATOM     25  C   UNL     1      -1.268   4.458   0.527  0.00  0.00    +0.102 C 
ENDBRANCH  23  25
BRANCH  23  26
ATOM     26  C   UNL     1      -3.458   3.184   0.400  0.00  0.00    +0.102 C 
ATOM     27  C   UNL     1      -3.987   3.070   1.832  0.00  0.00    +0.024 C 
ENDBRANCH  23  26
ENDBRANCH   1  23
TORSDOF 5
