REMARK  Name = ZINC09228325
REMARK  9 active torsions:
REMARK  status: ('A' for Active; 'I' for Inactive)
REMARK    1  A    between atoms: C_1  and  C_2
REMARK    2  A    between atoms: C_5  and  N_8
REMARK    3  A    between atoms: N_8  and  C_9
REMARK    4  A    between atoms: C_9  and  C_10
REMARK    5  A    between atoms: N_18  and  C_21
REMARK    6  A    between atoms: C_21  and  C_22
REMARK    7  A    between atoms: N_24  and  C_25
REMARK    8  A    between atoms: C_27  and  C_32
REMARK    9  A    between atoms: C_29  and  C_31
REMARK                            x       y       z     vdW  Elec       q    Type
REMARK                         _______ _______ _______ _____ _____    ______ ____
ROOT
ATOM      1  C   UNL     1       4.117   7.606  -1.664  0.00  0.00    +0.035 A 
ATOM      2  C   UNL     1       4.035   8.399  -0.566  0.00  0.00    +0.020 A 
ATOM      3  C   UNL     1       4.237   7.794   0.750  0.00  0.00    +0.003 A 
ATOM      4  C   UNL     1       4.163   8.563   1.918  0.00  0.00    +0.059 A 
ATOM      5  C   UNL     1       4.360   7.966   3.146  0.00  0.00    +0.163 A 
ATOM      6  C   UNL     1       4.630   6.597   3.226  0.00  0.00    +0.164 A 
ATOM      7  C   UNL     1       4.704   5.828   2.077  0.00  0.00    +0.076 A 
ATOM      8  C   UNL     1       4.510   6.415   0.834  0.00  0.00    +0.056 A 
ATOM      9  N   UNL     1       4.580   5.664  -0.322  0.00  0.00    -0.299 N 
ATOM     10  C   UNL     1       4.397   6.231  -1.528  0.00  0.00    +0.257 A 
ATOM     11  O   UNL     1       4.471   5.537  -2.528  0.00  0.00    -0.267 OA
ATOM     12  O   UNL     1       4.821   5.998   4.433  0.00  0.00    -0.485 OA
ATOM     13  C   UNL     1       5.112   6.859   5.540  0.00  0.00    +0.270 C 
ATOM     14  C   UNL     1       4.122   8.031   5.511  0.00  0.00    +0.270 C 
ATOM     15  O   UNL     1       4.289   8.728   4.272  0.00  0.00    -0.485 OA
ENDROOT
BRANCH   1  16
ATOM     16  C   UNL     1       3.914   8.198  -3.035  0.00  0.00    +0.142 C 
BRANCH  16  17
ATOM     17  N   UNL     1       5.213   8.542  -3.616  0.00  0.00    -0.340 N 
ATOM     18  H   UNL     1       6.028   8.376  -3.116  0.00  0.00    +0.146 HD
BRANCH  17  23
ATOM     19  C   UNL     1       5.484  10.847  -8.790  0.00  0.00    +0.044 C 
ATOM     20  C   UNL     1       5.412  10.234  -7.415  0.00  0.00    -0.050 A 
ATOM     21  C   UNL     1       6.574   9.998  -6.703  0.00  0.00    +0.005 A 
ATOM     22  C   UNL     1       6.512   9.437  -5.443  0.00  0.00    +0.023 A 
ATOM     23  C   UNL     1       5.280   9.110  -4.890  0.00  0.00    +0.027 A 
ATOM     24  C   UNL     1       4.115   9.344  -5.610  0.00  0.00    +0.023 A 
ATOM     25  C   UNL     1       4.184   9.910  -6.868  0.00  0.00    +0.005 A 
ENDBRANCH  17  23
ENDBRANCH  16  17
ENDBRANCH   1  16
BRANCH   9  26
ATOM     26  C   UNL     1       4.864   4.229  -0.235  0.00  0.00    +0.221 C 
BRANCH  26  27
ATOM     27  C   UNL     1       3.569   3.468  -0.114  0.00  0.00    +0.237 C 
ATOM     28  O   UNL     1       2.513   4.065  -0.102  0.00  0.00    -0.274 OA
ATOM     29  N   UNL     1       3.584   2.123  -0.019  0.00  0.00    -0.284 N 
ATOM     30  H   UNL     1       4.429   1.652   0.048  0.00  0.00    +0.155 HD
BRANCH  29  31
ATOM     31  C   UNL     1       2.381   1.409  -0.018  0.00  0.00    +0.034 A 
ATOM     32  C   UNL     1       2.268   0.238   0.720  0.00  0.00    +0.026 A 
ATOM     33  C   UNL     1       1.080  -0.466   0.718  0.00  0.00    -0.048 A 
ATOM     34  C   UNL     1       0.003  -0.006  -0.018  0.00  0.00    +0.006 A 
ATOM     35  C   UNL     1       0.113   1.159  -0.754  0.00  0.00    -0.048 A 
ATOM     36  C   UNL     1       1.298   1.867  -0.757  0.00  0.00    +0.026 A 
ATOM     37  C   UNL     1      -1.063   1.657  -1.555  0.00  0.00    +0.044 C 
ATOM     38  C   UNL     1       0.954  -1.733   1.524  0.00  0.00    +0.044 C 
ENDBRANCH  29  31
ENDBRANCH  26  27
ENDBRANCH   9  26
TORSDOF 6
