REMARK  Name = ZINC36287816
REMARK  4 active torsions:
REMARK  status: ('A' for Active; 'I' for Inactive)
REMARK    1  A    between atoms: C_1  and  N_2
REMARK    2  A    between atoms: N_2  and  C_3
REMARK    3  A    between atoms: C_3  and  C_4
REMARK    4  A    between atoms: N_14  and  C_15
REMARK                            x       y       z     vdW  Elec       q    Type
REMARK                         _______ _______ _______ _____ _____    ______ ____
ROOT
ATOM      1  C   UNL     1      -0.018   1.461   0.010  0.00  0.00    +0.134 C 
ATOM      2  N   UNL     1       0.002  -0.004   0.002  0.00  0.00    -0.280 N 
ATOM      3  C   UNL     1       0.000  -0.672  -1.169  0.00  0.00    +0.303 C 
ATOM      4  O   UNL     1       0.017  -1.887  -1.175  0.00  0.00    -0.253 OA
ATOM      5  N   UNL     1      -0.020   0.009  -2.332  0.00  0.00    -0.296 N 
ATOM      6  H   UNL     1      -0.033   0.978  -2.327  0.00  0.00    +0.151 HD
ENDROOT
BRANCH   5   7
ATOM      7  C   UNL     1      -0.022  -0.717  -3.605  0.00  0.00    +0.074 C 
ATOM      8  C   UNL     1       1.416  -1.059  -3.999  0.00  0.00    +0.022 C 
ATOM      9  C   UNL     1       1.413  -1.817  -5.329  0.00  0.00    +0.002 C 
ATOM     10  C   UNL     1       0.782  -0.943  -6.413  0.00  0.00    +0.000 C 
ATOM     11  C   UNL     1      -0.657  -0.600  -6.019  0.00  0.00    +0.002 C 
ATOM     12  C   UNL     1      -0.654   0.158  -4.690  0.00  0.00    +0.022 C 
ENDBRANCH   5   7
BRANCH   2  13
ATOM     13  C   UNL     1       0.024  -0.743   1.267  0.00  0.00    +0.204 C 
BRANCH  13  14
ATOM     14  C   UNL     1      -1.389  -1.016   1.714  0.00  0.00    +0.233 C 
ATOM     15  O   UNL     1      -2.322  -0.631   1.042  0.00  0.00    -0.274 OA
ATOM     16  N   UNL     1      -1.615  -1.688   2.860  0.00  0.00    -0.298 N 
ATOM     17  C   UNL     1      -0.498  -2.159   3.692  0.00  0.00    +0.123 C 
ATOM     18  C   UNL     1      -0.707  -3.647   3.991  0.00  0.00    +0.100 C 
ATOM     19  N   UNL     1      -2.041  -3.844   4.574  0.00  0.00    -0.313 NA
ATOM     20  C   UNL     1      -3.097  -3.466   3.626  0.00  0.00    +0.100 C 
ATOM     21  C   UNL     1      -2.986  -1.965   3.314  0.00  0.00    +0.123 C 
ATOM     22  H   UNL     1      -2.161  -4.795   4.889  0.00  0.00    +0.122 HD
ENDBRANCH  13  14
ENDBRANCH   2  13
TORSDOF 3
