REMARK  Name = ZINC63244758
REMARK  8 active torsions:
REMARK  status: ('A' for Active; 'I' for Inactive)
REMARK    1  A    between atoms: C_1  and  C_2
REMARK    2  A    between atoms: C_4  and  C_25
REMARK    3  A    between atoms: C_5  and  S_21
REMARK    4  A    between atoms: C_7  and  C_8
REMARK    5  A    between atoms: N_10  and  N_11
REMARK    6  A    between atoms: N_14  and  C_15
REMARK    7  A    between atoms: C_15  and  C_16
REMARK    8  A    between atoms: S_21  and  N_24
REMARK                            x       y       z     vdW  Elec       q    Type
REMARK                         _______ _______ _______ _____ _____    ______ ____
ROOT
ATOM      1  C   UNL     1       0.242   0.021   2.481  0.00  0.00    +0.260 C 
ATOM      2  O   UNL     1       0.135   1.232   2.503  0.00  0.00    -0.269 OA
ATOM      3  N   UNL     1       0.465  -0.656   3.625  0.00  0.00    -0.229 N 
ATOM      4  H   UNL     1       0.550  -1.622   3.607  0.00  0.00    +0.173 HD
ENDROOT
BRANCH   1  11
ATOM      5  C   UNL     1      -0.511   1.452   0.082  0.00  0.00    +0.044 C 
ATOM      6  C   UNL     1      -0.235  -0.028   0.036  0.00  0.00    -0.038 A 
ATOM      7  C   UNL     1      -0.334  -0.714  -1.157  0.00  0.00    +0.009 A 
ATOM      8  C   UNL     1      -0.079  -2.073  -1.200  0.00  0.00    -0.024 A 
ATOM      9  C   UNL     1       0.275  -2.754  -0.049  0.00  0.00    +0.109 A 
ATOM     10  C   UNL     1       0.378  -2.080   1.150  0.00  0.00    +0.042 A 
ATOM     11  C   UNL     1       0.128  -0.708   1.200  0.00  0.00    +0.043 A 
ATOM     12  C   UNL     1      -0.190  -2.815  -2.507  0.00  0.00    +0.046 C 
BRANCH   9  13
ATOM     13  S   UNL     1       0.596  -4.485  -0.116  0.00  0.00    +0.056 S 
ATOM     14  O   UNL     1       1.488  -4.692  -1.202  0.00  0.00    -0.153 OA
ATOM     15  O   UNL     1       0.904  -4.892   1.211  0.00  0.00    -0.153 OA
BRANCH  13  16
ATOM     16  N   UNL     1      -0.826  -5.231  -0.522  0.00  0.00    -0.204 NA
ATOM     17  H   UNL     1      -0.811  -6.063  -1.021  0.00  0.00    +0.144 HD
ATOM     18  H   UNL     1      -1.672  -4.837  -0.261  0.00  0.00    +0.144 HD
ENDBRANCH  13  16
ENDBRANCH   9  13
ENDBRANCH   1  11
BRANCH   3  19
ATOM     19  N   UNL     1       0.573   0.035   4.838  0.00  0.00    -0.218 N 
ATOM     20  C   UNL     1       0.796  -0.642   5.982  0.00  0.00    +0.316 C 
ATOM     21  O   UNL     1       0.890  -0.042   7.036  0.00  0.00    -0.251 OA
ATOM     22  N   UNL     1       0.915  -1.985   5.958  0.00  0.00    -0.296 N 
ATOM     23  H   UNL     1       0.488   1.001   4.856  0.00  0.00    +0.174 HD
ATOM     24  H   UNL     1       0.840  -2.463   5.118  0.00  0.00    +0.150 HD
BRANCH  22  25
ATOM     25  C   UNL     1       1.157  -2.721   7.201  0.00  0.00    +0.137 C 
BRANCH  25  26
ATOM     26  C   UNL     1       1.250  -4.218   6.897  0.00  0.00    +0.135 C 
ATOM     27  C   UNL     1       1.390  -5.011   8.214  0.00  0.00    +0.035 C 
ATOM     28  C   UNL     1       2.411  -6.115   7.827  0.00  0.00    +0.031 C 
ATOM     29  C   UNL     1       3.309  -5.347   6.825  0.00  0.00    +0.160 C 
ATOM     30  O   UNL     1       2.415  -4.481   6.107  0.00  0.00    -0.375 OA
ENDBRANCH  25  26
ENDBRANCH  22  25
ENDBRANCH   3  19
TORSDOF 6
