REMARK  Name = ZINC16571501
REMARK  9 active torsions:
REMARK  status: ('A' for Active; 'I' for Inactive)
REMARK    1  A    between atoms: C_1  and  C_2
REMARK    2  A    between atoms: C_2  and  C_3
REMARK    3  A    between atoms: C_3  and  C_5
REMARK    4  A    between atoms: C_3  and  C_6
REMARK    5  A    between atoms: C_6  and  C_8
REMARK    6  A    between atoms: C_6  and  N_23
REMARK    7  A    between atoms: C_14  and  C_16
REMARK    8  A    between atoms: C_24  and  C_26
REMARK    9  A    between atoms: C_30  and  N_32
REMARK                            x       y       z     vdW  Elec       q    Type
REMARK                         _______ _______ _______ _____ _____    ______ ____
ROOT
ATOM      1  C   UNL     1       0.743   8.424   0.137  0.00  0.00    +0.162 C 
ENDROOT
BRANCH   1   2
ATOM      2  C   UNL     1       1.972   9.027  -0.493  0.00  0.00    +0.239 C 
ATOM      3  O   UNL     1       2.630   8.380  -1.280  0.00  0.00    -0.273 OA
ATOM      4  N   UNL     1       2.340  10.286  -0.182  0.00  0.00    -0.262 N 
ATOM      5  C   UNL     1       3.409  10.880  -0.840  0.00  0.00    +0.188 A 
ATOM      6  N   UNL     1       4.201  10.397  -1.790  0.00  0.00    -0.125 NA
ATOM      7  N   UNL     1       5.136  11.080  -2.289  0.00  0.00    -0.140 NA
ATOM      8  C   UNL     1       5.392  12.319  -1.887  0.00  0.00    +0.134 A 
ATOM      9  S   UNL     1       4.117  12.513  -0.644  0.00  0.00    -0.030 S 
ATOM     10  H   UNL     1       1.857  10.777   0.502  0.00  0.00    +0.157 HD
BRANCH   8  11
ATOM     11  C   UNL     1       6.432  13.268  -2.337  0.00  0.00    +0.009 A 
ATOM     12  C   UNL     1       6.512  14.541  -1.769  0.00  0.00    +0.012 A 
ATOM     13  C   UNL     1       7.488  15.420  -2.190  0.00  0.00    +0.016 A 
ATOM     14  C   UNL     1       8.380  15.047  -3.180  0.00  0.00    +0.018 A 
ATOM     15  C   UNL     1       8.302  13.788  -3.751  0.00  0.00    +0.016 A 
ATOM     16  C   UNL     1       7.334  12.898  -3.335  0.00  0.00    +0.012 A 
ATOM     17 BR   UNL     1       9.710  16.262  -3.757  0.00  0.00    -0.050 Br
ENDBRANCH   8  11
ENDBRANCH   1   2
BRANCH   1  18
ATOM     18  N   UNL     1       0.552   7.063  -0.371  0.00  0.00    -0.300 N 
ATOM     19  C   UNL     1      -0.691   6.604  -0.618  0.00  0.00    +0.245 C 
ATOM     20  O   UNL     1      -1.657   7.287  -0.340  0.00  0.00    -0.270 OA
ATOM     21  H   UNL     1       1.320   6.492  -0.529  0.00  0.00    +0.150 HD
BRANCH  19  22
ATOM     22  C   UNL     1      -0.878   5.270  -1.227  0.00  0.00    +0.039 A 
ATOM     23  C   UNL     1       0.229   4.483  -1.547  0.00  0.00    +0.013 A 
ATOM     24  C   UNL     1       0.047   3.240  -2.116  0.00  0.00    +0.003 A 
ATOM     25  C   UNL     1      -1.230   2.772  -2.369  0.00  0.00    +0.033 A 
ATOM     26  C   UNL     1      -2.332   3.549  -2.058  0.00  0.00    +0.127 A 
ATOM     27  C   UNL     1      -2.164   4.792  -1.484  0.00  0.00    +0.045 A 
BRANCH  26  28
ATOM     28  N   UNL     1      -3.695   3.042  -2.338  0.00  0.00    +0.056 N 
ATOM     29  O   UNL     1      -3.845   1.943  -2.840  0.00  0.00    -0.126 OA
ATOM     30  O   UNL     1      -4.666   3.725  -2.065  0.00  0.00    -0.126 OA
ENDBRANCH  26  28
ENDBRANCH  19  22
ENDBRANCH   1  18
BRANCH   1  31
ATOM     31  C   UNL     1       0.917   8.382   1.656  0.00  0.00    +0.015 C 
ATOM     32  C   UNL     1      -0.387   7.915   2.306  0.00  0.00    +0.010 C 
BRANCH  31  34
ATOM     33  C   UNL     1       3.380   7.979   1.538  0.00  0.00    +0.004 C 
ATOM     34  C   UNL     1       2.042   7.409   2.014  0.00  0.00    +0.002 C 
ENDBRANCH  31  34
ENDBRANCH   1  31
TORSDOF 7
