REMARK  Name = ZINC45943450
REMARK  14 active torsions:
REMARK  status: ('A' for Active; 'I' for Inactive)
REMARK    1  A    between atoms: C_1  and  C_2
REMARK    2  A    between atoms: C_2  and  C_3
REMARK    3  A    between atoms: C_3  and  C_5
REMARK    4  A    between atoms: C_3  and  N_6
REMARK    5  A    between atoms: C_7  and  C_9
REMARK    6  A    between atoms: N_18  and  C_21
REMARK    7  A    between atoms: C_21  and  C_22
REMARK    8  A    between atoms: N_24  and  C_25
REMARK    9  A    between atoms: C_30  and  C_31
REMARK   10  A    between atoms: N_32  and  C_35
REMARK   11  A    between atoms: C_35  and  C_36
REMARK   12  A    between atoms: C_36  and  C_37
REMARK   13  A    between atoms: C_37  and  C_38
REMARK   14  A    between atoms: C_37  and  C_39
REMARK                            x       y       z     vdW  Elec       q    Type
REMARK                         _______ _______ _______ _____ _____    ______ ____
ROOT
ATOM      1  C   UNL     1      -0.210   0.385  -4.818  0.00  0.00    +0.039 A 
ATOM      2  C   UNL     1      -1.584   0.615  -4.706  0.00  0.00    +0.014 A 
ATOM      3  C   UNL     1      -2.317   0.986  -5.812  0.00  0.00    +0.016 A 
ATOM      4  C   UNL     1      -1.685   1.133  -7.045  0.00  0.00    +0.064 A 
ATOM      5  C   UNL     1      -0.306   0.904  -7.162  0.00  0.00    +0.067 A 
ATOM      6  C   UNL     1       0.429   0.536  -6.047  0.00  0.00    +0.040 A 
ATOM      7  N   UNL     1       0.310   1.056  -8.405  0.00  0.00    -0.229 N 
ATOM      8  C   UNL     1      -0.426   1.428  -9.509  0.00  0.00    +0.240 A 
ATOM      9  N   UNL     1       0.379   1.498 -10.534  0.00  0.00    -0.129 NA
ATOM     10  N   UNL     1       1.669   1.168 -10.102  0.00  0.00    -0.202 N 
ATOM     11  C   UNL     1       1.596   0.900  -8.783  0.00  0.00    +0.353 A 
ATOM     12  O   UNL     1       2.523   0.576  -8.062  0.00  0.00    -0.244 OA
ATOM     13  N   UNL     1      -1.791   1.661  -9.420  0.00  0.00    -0.277 N 
ATOM     14  C   UNL     1      -2.444   1.530  -8.248  0.00  0.00    +0.263 A 
ATOM     15  O   UNL     1      -3.641   1.736  -8.182  0.00  0.00    -0.267 OA
ENDROOT
BRANCH   1  17
ATOM     16  N   UNL     1      -0.046  -0.161  -2.435  0.00  0.00    -0.309 N 
ATOM     17  C   UNL     1       0.570  -0.014  -3.625  0.00  0.00    +0.244 C 
ATOM     18  O   UNL     1       1.766  -0.209  -3.718  0.00  0.00    -0.270 OA
ATOM     19  H   UNL     1      -1.000  -0.005  -2.360  0.00  0.00    +0.149 HD
BRANCH  16  20
ATOM     20  C   UNL     1       0.727  -0.556  -1.254  0.00  0.00    +0.070 C 
ATOM     21  C   UNL     1       0.851  -2.080  -1.213  0.00  0.00    +0.028 C 
BRANCH  20  23
ATOM     22  C   UNL     1      -0.000   1.462   0.027  0.00  0.00    +0.005 C 
ATOM     23  C   UNL     1       0.014  -0.068   0.008  0.00  0.00    +0.018 C 
ENDBRANCH  20  23
ENDBRANCH  16  20
ENDBRANCH   1  17
BRANCH  10  24
ATOM     24  C   UNL     1       2.876   1.123 -10.930  0.00  0.00    +0.245 C 
BRANCH  24  25
ATOM     25  C   UNL     1       3.038  -0.260 -11.507  0.00  0.00    +0.239 C 
ATOM     26  O   UNL     1       2.225  -1.123 -11.251  0.00  0.00    -0.273 OA
ATOM     27  N   UNL     1       4.086  -0.538 -12.307  0.00  0.00    -0.284 N 
ATOM     28  H   UNL     1       4.692   0.170 -12.577  0.00  0.00    +0.155 HD
BRANCH  27  29
ATOM     29  C   UNL     1       4.301  -1.848 -12.749  0.00  0.00    +0.036 A 
ATOM     30  C   UNL     1       3.811  -2.920 -12.013  0.00  0.00    +0.023 A 
ATOM     31  C   UNL     1       4.024  -4.212 -12.452  0.00  0.00    +0.002 A 
ATOM     32  C   UNL     1       4.726  -4.439 -13.622  0.00  0.00    +0.000 A 
ATOM     33  C   UNL     1       5.216  -3.375 -14.356  0.00  0.00    +0.005 A 
ATOM     34  C   UNL     1       5.000  -2.080 -13.926  0.00  0.00    -0.029 A 
ATOM     35  C   UNL     1       5.527  -0.920 -14.731  0.00  0.00    +0.045 C 
ENDBRANCH  27  29
ENDBRANCH  24  25
ENDBRANCH  10  24
BRANCH  13  36
ATOM     36  C   UNL     1      -2.534   2.054 -10.619  0.00  0.00    +0.128 C 
BRANCH  36  37
ATOM     37  C   UNL     1      -3.050   0.802 -11.333  0.00  0.00    +0.025 C 
BRANCH  37  38
ATOM     38  C   UNL     1      -3.826   1.213 -12.586  0.00  0.00    -0.016 C 
ATOM     39  C   UNL     1      -4.234  -0.038 -13.366  0.00  0.00    +0.007 C 
ATOM     40  C   UNL     1      -5.079   1.990 -12.177  0.00  0.00    +0.007 C 
ENDBRANCH  37  38
ENDBRANCH  36  37
ENDBRANCH  13  36
TORSDOF 9
