REMARK  Name = ZINC22083157
REMARK  7 active torsions:
REMARK  status: ('A' for Active; 'I' for Inactive)
REMARK    1  A    between atoms: C_1  and  C_2
REMARK    2  A    between atoms: C_9  and  C_16
REMARK    3  A    between atoms: C_11  and  O_12
REMARK    4  A    between atoms: C_16  and  S_17
REMARK    5  A    between atoms: S_17  and  C_18
REMARK    6  A    between atoms: C_21  and  C_24
REMARK    7  A    between atoms: N_22  and  C_23
REMARK                            x       y       z     vdW  Elec       q    Type
REMARK                         _______ _______ _______ _____ _____    ______ ____
ROOT
ATOM      1  C   UNL     1       7.697   8.202  -1.072  0.00  0.00    +0.113 C 
ENDROOT
BRANCH   1  10
ATOM      2  C   UNL     1       9.212  16.916  -2.013  0.00  0.00    +0.109 C 
ATOM      3  C   UNL     1       9.352  15.454  -1.678  0.00  0.00    +0.214 C 
ATOM      4  O   UNL     1      10.071  15.106  -0.766  0.00  0.00    -0.276 OA
ATOM      5  N   UNL     1       8.678  14.531  -2.394  0.00  0.00    -0.286 N 
ATOM      6  C   UNL     1       8.733  13.187  -2.026  0.00  0.00    +0.037 A 
ATOM      7  C   UNL     1       7.608  12.378  -2.191  0.00  0.00    +0.024 A 
ATOM      8  C   UNL     1       7.646  11.061  -1.835  0.00  0.00    +0.013 A 
ATOM      9  C   UNL     1       8.821  10.518  -1.302  0.00  0.00    +0.022 A 
ATOM     10  C   UNL     1       8.890   9.108  -0.911  0.00  0.00    -0.020 A 
ATOM     11  C   UNL     1      10.060   8.639  -0.405  0.00  0.00    +0.092 A 
ATOM     12  C   UNL     1      11.162   9.508  -0.265  0.00  0.00    +0.285 A 
ATOM     13  O   UNL     1      11.091  10.800  -0.619  0.00  0.00    -0.425 OA
ATOM     14  C   UNL     1       9.958  11.330  -1.128  0.00  0.00    +0.141 A 
ATOM     15  C   UNL     1       9.902  12.667  -1.490  0.00  0.00    +0.070 A 
ATOM     16  H   UNL     1       8.085  14.839  -3.268  0.00  0.00    +0.155 HD
BRANCH  12  17
ATOM     17  O   UNL     1      12.205   9.074   0.191  0.00  0.00    -0.480 OA
ATOM     18  H   UNL     1      13.074   9.739   0.307  0.00  0.00    +0.295 HD
ENDBRANCH  12  17
ENDBRANCH   1  10
BRANCH   1  19
ATOM     19  S   UNL     1       6.701   8.242   0.438  0.00  0.00    -0.081 S 
BRANCH  19  20
ATOM     20  C   UNL     1       5.413   7.128  -0.015  0.00  0.00    +0.192 A 
ATOM     21  N   UNL     1       5.297   6.493  -1.159  0.00  0.00    -0.122 NA
ATOM     22  N   UNL     1       4.239   5.763  -1.147  0.00  0.00    -0.130 NA
ATOM     23  C   UNL     1       3.622   5.887  -0.006  0.00  0.00    +0.178 A 
ATOM     24  N   UNL     1       4.345   6.765   0.754  0.00  0.00    -0.306 N 
ATOM     25  C   UNL     1       4.039   7.219   2.113  0.00  0.00    +0.153 C 
BRANCH  23  26
ATOM     26  C   UNL     1       2.345   5.197   0.399  0.00  0.00    +0.278 C 
ATOM     27  C   UNL     1       1.154   5.855  -0.311  0.00  0.00    +0.281 C 
ATOM     28  O   UNL     1      -0.038   5.168   0.085  0.00  0.00    -0.484 OA
ATOM     29  C   UNL     1       0.004   3.808   0.065  0.00  0.00    +0.162 A 
ATOM     30  C   UNL     1      -1.182   3.089   0.080  0.00  0.00    +0.049 A 
ATOM     31  C   UNL     1      -1.155   1.707   0.060  0.00  0.00    +0.004 A 
ATOM     32  C   UNL     1       0.055   1.038   0.036  0.00  0.00    +0.004 A 
ATOM     33  C   UNL     1       1.240   1.748   0.021  0.00  0.00    +0.049 A 
ATOM     34  C   UNL     1       1.220   3.135   0.033  0.00  0.00    +0.163 A 
ATOM     35  O   UNL     1       2.395   3.820   0.009  0.00  0.00    -0.474 OA
ENDBRANCH  23  26
ENDBRANCH  19  20
ENDBRANCH   1  19
TORSDOF 5
