REMARK  Name = ZINC02725786
REMARK  4 active torsions:
REMARK  status: ('A' for Active; 'I' for Inactive)
REMARK    1  A    between atoms: C_4  and  C_7
REMARK    2  A    between atoms: C_7  and  N_8
REMARK    3  A    between atoms: C_10  and  C_19
REMARK    4  A    between atoms: C_11  and  C_13
REMARK                            x       y       z     vdW  Elec       q    Type
REMARK                         _______ _______ _______ _____ _____    ______ ____
ROOT
ATOM      1  N   UNL     1      -3.976   5.588  -0.138  0.00  0.00    -0.266 N 
ATOM      2  C   UNL     1      -2.646   5.427  -0.053  0.00  0.00    +0.117 A 
ATOM      3  C   UNL     1      -2.067   6.685  -0.040  0.00  0.00    +0.021 A 
ATOM      4  C   UNL     1      -3.173   7.647  -0.135  0.00  0.00    +0.101 A 
ATOM      5  N   UNL     1      -4.284   6.950  -0.191  0.00  0.00    -0.170 NA
ENDROOT
BRANCH   3   6
ATOM      6  C   UNL     1      -0.639   6.994   0.046  0.00  0.00    +0.025 C 
ATOM      7  C   UNL     1       0.158   6.319   0.942  0.00  0.00    +0.047 C 
ATOM      8  C   UNL     1      -0.275   5.395   2.015  0.00  0.00    +0.008 A 
ATOM      9  C   UNL     1      -1.520   4.942   2.438  0.00  0.00    +0.012 A 
ATOM     10  C   UNL     1      -1.604   4.055   3.491  0.00  0.00    +0.021 A 
ATOM     11  C   UNL     1      -0.452   3.627   4.133  0.00  0.00    +0.043 A 
ATOM     12  C   UNL     1       0.788   4.072   3.721  0.00  0.00    +0.044 A 
ATOM     13  C   UNL     1       0.892   4.961   2.656  0.00  0.00    +0.043 A 
ATOM     14  N   UNL     1       1.994   5.554   2.051  0.00  0.00    -0.281 N 
ATOM     15  C   UNL     1       1.625   6.359   1.041  0.00  0.00    +0.249 C 
ATOM     16  O   UNL     1       2.373   7.008   0.332  0.00  0.00    -0.270 OA
ATOM     17 CL   UNL     1      -0.570   2.518   5.463  0.00  0.00    -0.083 Cl
ATOM     18  H   UNL     1       2.913   5.405   2.323  0.00  0.00    +0.155 HD
ENDBRANCH   3   6
BRANCH   4  19
ATOM     19  C   UNL     1      -3.056   9.125  -0.163  0.00  0.00    +0.021 A 
ATOM     20  C   UNL     1      -3.937   9.893  -0.931  0.00  0.00    +0.013 A 
ATOM     21  C   UNL     1      -3.786  11.269  -0.923  0.00  0.00    +0.020 A 
ATOM     22  C   UNL     1      -2.779  11.835  -0.163  0.00  0.00    +0.111 A 
ATOM     23  N   UNL     1      -1.963  11.084   0.552  0.00  0.00    -0.263 NA
ATOM     24  C   UNL     1      -2.071   9.772   0.581  0.00  0.00    +0.120 A 
ENDBRANCH   4  19
BRANCH   1  25
ATOM     25  C   UNL     1      -4.956   4.500  -0.176  0.00  0.00    +0.178 C 
BRANCH  25  29
ATOM     26  C   UNL     1      -7.834   5.065   2.929  0.00  0.00    +0.000 A 
ATOM     27  C   UNL     1      -8.049   5.614   1.679  0.00  0.00    +0.000 A 
ATOM     28  C   UNL     1      -7.118   5.431   0.674  0.00  0.00    +0.005 A 
ATOM     29  C   UNL     1      -5.971   4.700   0.919  0.00  0.00    -0.026 A 
ATOM     30  C   UNL     1      -5.758   4.147   2.168  0.00  0.00    +0.005 A 
ATOM     31  C   UNL     1      -6.687   4.333   3.175  0.00  0.00    +0.000 A 
ENDBRANCH  25  29
ENDBRANCH   1  25
TORSDOF 4
