REMARK  Name = ZINC20617610
REMARK  6 active torsions:
REMARK  status: ('A' for Active; 'I' for Inactive)
REMARK    1  A    between atoms: C_1  and  C_2
REMARK    2  A    between atoms: C_6  and  C_17
REMARK    3  A    between atoms: N_8  and  C_9
REMARK    4  A    between atoms: N_19  and  C_20
REMARK    5  A    between atoms: C_31  and  C_34
REMARK    6  A    between atoms: C_34  and  O_35
REMARK                            x       y       z     vdW  Elec       q    Type
REMARK                         _______ _______ _______ _____ _____    ______ ____
ROOT
ATOM      1  C   UNL     1       1.331   1.610   0.105  0.00  0.00    +0.069 C 
ATOM      2  C   UNL     1       0.920   0.160   0.123  0.00  0.00    +0.081 A 
ATOM      3  C   UNL     1       0.549  -0.467  -1.058  0.00  0.00    +0.159 A 
ATOM      4  C   UNL     1       0.171  -1.822  -1.016  0.00  0.00    +0.027 A 
ATOM      5  C   UNL     1      -0.218  -2.504  -2.252  0.00  0.00    +0.030 A 
ATOM      6  C   UNL     1       0.057  -1.863  -3.441  0.00  0.00    +0.098 A 
ATOM      7  C   UNL     1       0.722  -0.547  -3.361  0.00  0.00    +0.212 A 
ATOM      8  N   UNL     1       1.468  -0.107  -4.350  0.00  0.00    -0.325 N 
ATOM      9  O   UNL     1       0.542   0.196  -2.239  0.00  0.00    -0.437 OA
ATOM     10  C   UNL     1       0.182  -2.483   0.218  0.00  0.00    +0.007 A 
ATOM     11  C   UNL     1       0.565  -1.776   1.339  0.00  0.00    +0.117 A 
ATOM     12  N   UNL     1       0.919  -0.506   1.259  0.00  0.00    -0.256 NA
ATOM     13  H   UNL     1       1.675  -0.689  -5.098  0.00  0.00    +0.169 HD
ENDROOT
BRANCH   8  14
ATOM     14  C   UNL     1       1.952   1.172  -4.324  0.00  0.00    +0.042 A 
ATOM     15  C   UNL     1       1.117   2.231  -3.961  0.00  0.00    +0.028 A 
ATOM     16  C   UNL     1       1.611   3.519  -3.937  0.00  0.00    +0.040 A 
ATOM     17  C   UNL     1       2.933   3.763  -4.272  0.00  0.00    +0.124 A 
ATOM     18  C   UNL     1       3.767   2.716  -4.634  0.00  0.00    +0.040 A 
ATOM     19  C   UNL     1       3.286   1.424  -4.656  0.00  0.00    +0.028 A 
ATOM     20  F   UNL     1       3.412   5.026  -4.248  0.00  0.00    -0.205 F 
ENDBRANCH   8  14
BRANCH   6  21
ATOM     21  C   UNL     1      -0.298  -2.467  -4.738  0.00  0.00    +0.253 C 
ATOM     22  O   UNL     1      -0.745  -3.597  -4.780  0.00  0.00    -0.270 OA
ATOM     23  N   UNL     1      -0.127  -1.766  -5.876  0.00  0.00    -0.282 N 
ATOM     24  H   UNL     1       0.273  -0.883  -5.847  0.00  0.00    +0.155 HD
BRANCH  23  25
ATOM     25  C   UNL     1      -0.524  -2.313  -7.100  0.00  0.00    +0.032 C 
ATOM     26  C   UNL     1      -0.488  -1.570  -8.199  0.00  0.00    +0.030 C 
ATOM     27  C   UNL     1      -0.893  -2.089  -9.551  0.00  0.00    +0.178 C 
ATOM     28  C   UNL     1      -1.839  -3.291  -9.432  0.00  0.00    +0.177 C 
ATOM     29  C   UNL     1      -1.574  -4.149  -8.249  0.00  0.00    +0.009 C 
ATOM     30  C   UNL     1      -0.977  -3.714  -7.165  0.00  0.00    +0.021 C 
ATOM     31  O   UNL     1      -3.146  -2.684  -9.375  0.00  0.00    -0.344 OA
ATOM     32  C   UNL     1      -3.023  -1.620 -10.351  0.00  0.00    +0.324 C 
ATOM     33  O   UNL     1      -1.693  -1.054 -10.176  0.00  0.00    -0.344 OA
ENDBRANCH  23  25
ENDBRANCH   6  21
BRANCH  10  34
ATOM     34  C   UNL     1      -0.217  -3.933   0.320  0.00  0.00    +0.193 C 
BRANCH  34  35
ATOM     35  O   UNL     1      -0.119  -4.359   1.680  0.00  0.00    -0.390 OA
ATOM     36  H   UNL     1      -0.361  -5.285   1.820  0.00  0.00    +0.210 HD
ENDBRANCH  34  35
ENDBRANCH  10  34
TORSDOF 5
