REMARK  Name = ZINC01879793
REMARK  11 active torsions:
REMARK  status: ('A' for Active; 'I' for Inactive)
REMARK    1  A    between atoms: C_1  and  C_2
REMARK    2  A    between atoms: C_6  and  O_9
REMARK    3  A    between atoms: C_7  and  C_8
REMARK    4  A    between atoms: O_9  and  C_10
REMARK    5  A    between atoms: C_10  and  C_11
REMARK    6  A    between atoms: N_13  and  N_14
REMARK    7  A    between atoms: N_22  and  C_25
REMARK    8  A    between atoms: C_25  and  N_26
REMARK    9  A    between atoms: C_28  and  C_37
REMARK   10  A    between atoms: C_33  and  C_35
REMARK   11  A    between atoms: C_33  and  C_36
REMARK                            x       y       z     vdW  Elec       q    Type
REMARK                         _______ _______ _______ _____ _____    ______ ____
ROOT
ATOM      1  N   UNL     1       0.114  -6.669   5.120  0.00  0.00    -0.174 NA
ATOM      2  C   UNL     1       0.132  -7.969   5.283  0.00  0.00    +0.153 C 
ATOM      3  C   UNL     1       0.142  -8.719   6.561  0.00  0.00    +0.029 A 
ATOM      4  C   UNL     1       0.136  -8.326   7.895  0.00  0.00    +0.027 A 
ATOM      5  C   UNL     1       0.149  -9.283   8.891  0.00  0.00    +0.019 A 
ATOM      6  C   UNL     1       0.168 -10.629   8.560  0.00  0.00    +0.017 A 
ATOM      7  C   UNL     1       0.174 -11.027   7.239  0.00  0.00    +0.025 A 
ATOM      8  C   UNL     1       0.161 -10.078   6.223  0.00  0.00    +0.047 A 
ATOM      9  N   UNL     1       0.164 -10.207   4.838  0.00  0.00    -0.252 N 
ATOM     10  C   UNL     1       0.141  -9.008   4.232  0.00  0.00    +0.272 C 
ATOM     11  O   UNL     1       0.132  -8.811   3.031  0.00  0.00    -0.268 OA
ATOM     12 BR   UNL     1       0.141  -8.757  10.707  0.00  0.00    -0.050 Br
ENDROOT
BRANCH   1  15
ATOM     13  C   UNL     1       0.083  -4.787   3.662  0.00  0.00    +0.270 C 
ATOM     14  O   UNL     1       0.077  -4.056   4.629  0.00  0.00    -0.270 OA
ATOM     15  N   UNL     1       0.101  -6.125   3.830  0.00  0.00    -0.203 N 
ATOM     16  H   UNL     1       0.105  -6.710   3.056  0.00  0.00    +0.177 HD
BRANCH  13  17
ATOM     17  C   UNL     1       0.069  -4.202   2.274  0.00  0.00    +0.326 C 
BRANCH  17  18
ATOM     18  O   UNL     1       0.050  -2.776   2.358  0.00  0.00    -0.482 OA
BRANCH  18  24
ATOM     19  C   UNL     1      -0.018   1.503   0.010  0.00  0.00    +0.044 C 
ATOM     20  C   UNL     1       0.002  -0.004   0.002  0.00  0.00    -0.044 A 
ATOM     21  C   UNL     1       0.006  -0.688  -1.200  0.00  0.00    +0.004 A 
ATOM     22  C   UNL     1       0.024  -2.071  -1.211  0.00  0.00    +0.004 A 
ATOM     23  C   UNL     1       0.039  -2.772  -0.020  0.00  0.00    +0.046 A 
ATOM     24  C   UNL     1       0.035  -2.088   1.186  0.00  0.00    +0.124 A 
ATOM     25  C   UNL     1       0.023  -0.700   1.195  0.00  0.00    -0.006 A 
ATOM     26  C   UNL     1       0.026   0.046   2.504  0.00  0.00    +0.048 C 
ENDBRANCH  18  24
ENDBRANCH  17  18
ENDBRANCH  13  17
ENDBRANCH   1  15
BRANCH   9  27
ATOM     27  C   UNL     1       0.182 -11.489   4.129  0.00  0.00    +0.201 C 
BRANCH  27  28
ATOM     28  N   UNL     1      -1.180 -11.932   3.894  0.00  0.00    -0.283 NA
ATOM     29  C   UNL     1      -1.821 -12.547   5.065  0.00  0.00    +0.093 C 
ATOM     30  C   UNL     1      -2.655 -13.735   4.528  0.00  0.00    -0.017 C 
ATOM     31  C   UNL     1      -2.777 -13.440   3.010  0.00  0.00    +0.027 C 
ATOM     32  C   UNL     1      -1.366 -12.842   2.751  0.00  0.00    +0.059 C 
ATOM     33  C   UNL     1      -0.371 -13.988   2.772  0.00  0.00    +0.025 C 
ATOM     34  C   UNL     1      -0.532 -15.012   3.873  0.00  0.00    -0.033 C 
ATOM     35  C   UNL     1      -1.821 -15.007   4.669  0.00  0.00    +0.014 C 
ATOM     36  C   UNL     1      -0.407 -16.412   3.218  0.00  0.00    +0.011 C 
ATOM     37  C   UNL     1       0.656 -14.893   4.849  0.00  0.00    +0.011 C 
ATOM     38  C   UNL     1      -4.024 -13.843   5.216  0.00  0.00    +0.012 C 
ENDBRANCH  27  28
ENDBRANCH   9  27
TORSDOF 6
