REMARK  Name = ZINC12608220
REMARK  12 active torsions:
REMARK  status: ('A' for Active; 'I' for Inactive)
REMARK    1  A    between atoms: C_1  and  C_2
REMARK    2  A    between atoms: C_2  and  O_3
REMARK    3  A    between atoms: O_3  and  C_4
REMARK    4  A    between atoms: C_9  and  N_10
REMARK    5  A    between atoms: N_10  and  C_11
REMARK    6  A    between atoms: C_11  and  C_13
REMARK    7  A    between atoms: C_11  and  C_14
REMARK    8  A    between atoms: N_16  and  C_17
REMARK    9  A    between atoms: C_19  and  C_25
REMARK   10  A    between atoms: C_22  and  O_23
REMARK   11  A    between atoms: O_23  and  C_24
REMARK   12  A    between atoms: C_27  and  C_30
REMARK                            x       y       z     vdW  Elec       q    Type
REMARK                         _______ _______ _______ _____ _____    ______ ____
ROOT
ATOM      1  N   UNL     1      -3.529   7.349   0.382  0.00  0.00    -0.330 N 
ATOM      2  H   UNL     1      -2.677   7.670   0.718  0.00  0.00    +0.147 HD
ENDROOT
BRANCH   1   8
ATOM      3  C   UNL     1      -4.276   9.630   0.096  0.00  0.00    +0.142 A 
ATOM      4  C   UNL     1      -5.255  10.528  -0.298  0.00  0.00    +0.055 A 
ATOM      5  C   UNL     1      -6.462  10.066  -0.779  0.00  0.00    +0.001 A 
ATOM      6  C   UNL     1      -6.717   8.704  -0.876  0.00  0.00    +0.126 A 
ATOM      7  C   UNL     1      -5.731   7.802  -0.486  0.00  0.00    +0.072 A 
ATOM      8  C   UNL     1      -4.516   8.262  -0.007  0.00  0.00    +0.073 A 
ATOM      9  O   UNL     1      -7.970   8.470  -1.359  0.00  0.00    -0.488 OA
ATOM     10  C   UNL     1      -8.452   9.654  -2.018  0.00  0.00    +0.175 C 
ATOM     11  C   UNL     1      -7.698  10.787  -1.282  0.00  0.00    +0.083 C 
ATOM     12  C   UNL     1      -9.964   9.799  -1.833  0.00  0.00    +0.052 C 
BRANCH   3  13
ATOM     13  O   UNL     1      -3.086  10.083   0.575  0.00  0.00    -0.490 OA
BRANCH  13  15
ATOM     14  C   UNL     1      -1.524  11.814   1.209  0.00  0.00    +0.048 C 
ATOM     15  C   UNL     1      -2.913  11.499   0.651  0.00  0.00    +0.226 C 
ENDBRANCH  13  15
ENDBRANCH   3  13
ENDBRANCH   1   8
BRANCH   1  16
ATOM     16  C   UNL     1      -3.781   5.910   0.281  0.00  0.00    +0.154 C 
ATOM     17  C   UNL     1      -4.512   5.431   1.537  0.00  0.00    +0.038 C 
BRANCH  16  18
ATOM     18  C   UNL     1      -2.470   5.178   0.152  0.00  0.00    +0.237 C 
ATOM     19  O   UNL     1      -1.428   5.797   0.145  0.00  0.00    -0.273 OA
ATOM     20  N   UNL     1      -2.457   3.834   0.044  0.00  0.00    -0.281 N 
ATOM     21  H   UNL     1      -3.292   3.344  -0.015  0.00  0.00    +0.155 HD
BRANCH  20  22
ATOM     22  C   UNL     1      -1.236   3.146   0.018  0.00  0.00    +0.076 A 
ATOM     23  C   UNL     1      -0.130   3.716  -0.594  0.00  0.00    +0.030 A 
ATOM     24  C   UNL     1       1.073   3.034  -0.618  0.00  0.00    -0.048 A 
ATOM     25  C   UNL     1       1.176   1.785  -0.034  0.00  0.00    +0.007 A 
ATOM     26  C   UNL     1       0.077   1.211   0.577  0.00  0.00    +0.048 A 
ATOM     27  C   UNL     1      -1.133   1.885   0.602  0.00  0.00    +0.141 A 
ATOM     28  C   UNL     1       2.274   3.655  -1.284  0.00  0.00    +0.044 C 
BRANCH  27  29
ATOM     29  O   UNL     1      -2.217   1.319   1.198  0.00  0.00    -0.493 OA
ATOM     30  C   UNL     1      -2.036   0.027   1.780  0.00  0.00    +0.277 C 
ENDBRANCH  27  29
ENDBRANCH  20  22
ENDBRANCH  16  18
ENDBRANCH   1  16
TORSDOF 7
