REMARK  Name = ZINC48606519
REMARK  3 active torsions:
REMARK  status: ('A' for Active; 'I' for Inactive)
REMARK    1  A    between atoms: C_10  and  C_12
REMARK    2  A    between atoms: C_12  and  C_13
REMARK    3  A    between atoms: N_15  and  C_16
REMARK                            x       y       z     vdW  Elec       q    Type
REMARK                         _______ _______ _______ _____ _____    ______ ____
ROOT
ATOM      1  C   UNL     1      -0.017   1.395   0.010  0.00  0.00    +0.035 A 
ATOM      2  C   UNL     1       1.161   2.084   0.002  0.00  0.00    +0.043 A 
ATOM      3  C   UNL     1       2.382   1.413  -0.013  0.00  0.00    +0.042 A 
ATOM      4  C   UNL     1       2.434   0.050  -0.021  0.00  0.00    +0.068 A 
ATOM      5  C   UNL     1       1.242  -0.689  -0.013  0.00  0.00    +0.097 A 
ATOM      6  C   UNL     1       0.002  -0.004   0.002  0.00  0.00    +0.069 A 
ATOM      7  C   UNL     1      -1.185  -0.772   0.009  0.00  0.00    +0.281 A 
ATOM      8  O   UNL     1      -2.399  -0.175   0.024  0.00  0.00    -0.265 OA
ATOM      9  N   UNL     1      -1.078  -2.092   0.001  0.00  0.00    -0.193 NA
ATOM     10  C   UNL     1       0.104  -2.690  -0.013  0.00  0.00    +0.142 A 
ATOM     11  N   UNL     1       1.237  -2.030  -0.021  0.00  0.00    -0.230 NA
ATOM     12 CL   UNL     1       3.967  -0.765  -0.042  0.00  0.00    -0.081 Cl
ATOM     13 CL   UNL     1       1.139   3.820   0.012  0.00  0.00    -0.083 Cl
ENDROOT
BRANCH  10  14
ATOM     14  C   UNL     1       0.148  -4.196  -0.022  0.00  0.00    +0.172 C 
BRANCH  14  15
ATOM     15  C   UNL     1       0.149  -4.690  -1.445  0.00  0.00    +0.221 C 
ATOM     16  O   UNL     1       0.117  -3.898  -2.363  0.00  0.00    -0.275 OA
ATOM     17  N   UNL     1       0.186  -6.014  -1.699  0.00  0.00    -0.312 N 
ATOM     18  H   UNL     1       0.211  -6.648  -0.965  0.00  0.00    +0.149 HD
BRANCH  17  19
ATOM     19  C   UNL     1       0.187  -6.494  -3.083  0.00  0.00    +0.073 C 
ATOM     20  C   UNL     1      -0.718  -7.681  -3.419  0.00  0.00    +0.024 C 
ATOM     21  C   UNL     1       0.798  -7.871  -3.352  0.00  0.00    +0.024 C 
ENDBRANCH  17  19
ENDBRANCH  14  15
ENDBRANCH  10  14
TORSDOF 3
