REMARK  Name = ZINC50321321
REMARK  10 active torsions:
REMARK  status: ('A' for Active; 'I' for Inactive)
REMARK    1  A    between atoms: C_1  and  C_2
REMARK    2  A    between atoms: C_3  and  C_8
REMARK    3  A    between atoms: C_5  and  C_7
REMARK    4  A    between atoms: C_8  and  C_10
REMARK    5  A    between atoms: C_8  and  N_11
REMARK    6  A    between atoms: C_12  and  C_14
REMARK    7  A    between atoms: C_15  and  N_23
REMARK    8  A    between atoms: C_16  and  C_20
REMARK    9  A    between atoms: C_20  and  C_21
REMARK   10  A    between atoms: C_20  and  C_22
REMARK                            x       y       z     vdW  Elec       q    Type
REMARK                         _______ _______ _______ _____ _____    ______ ____
ROOT
ATOM      1  N   UNL     1       0.975  -0.964  -3.369  0.00  0.00    -0.303 N 
ATOM      2  C   UNL     1       1.510  -0.416  -4.478  0.00  0.00    +0.266 C 
ATOM      3  O   UNL     1       1.177   0.701  -4.826  0.00  0.00    -0.268 OA
ATOM      4  H   UNL     1       1.240  -1.855  -3.092  0.00  0.00    +0.150 HD
ENDROOT
BRANCH   2   5
ATOM      5  C   UNL     1       2.500  -1.170  -5.269  0.00  0.00    +0.168 A 
ATOM      6  C   UNL     1       3.151  -0.727  -6.449  0.00  0.00    +0.078 A 
ATOM      7  C   UNL     1       3.966  -1.750  -6.819  0.00  0.00    +0.060 A 
ATOM      8  N   UNL     1       3.801  -2.741  -5.904  0.00  0.00    -0.279 N 
ATOM      9  H   UNL     1       4.263  -3.595  -5.921  0.00  0.00    +0.189 HD
ATOM     10  N   UNL     1       2.951  -2.383  -5.010  0.00  0.00    -0.167 NA
BRANCH   7  11
ATOM     11  C   UNL     1       4.880  -1.780  -8.017  0.00  0.00    +0.033 C 
ATOM     12  C   UNL     1       6.325  -1.970  -7.552  0.00  0.00    +0.014 C 
ATOM     13  C   UNL     1       4.482  -2.939  -8.933  0.00  0.00    +0.014 C 
ENDBRANCH   7  11
BRANCH   6  14
ATOM     14  N   UNL     1       2.989   0.506  -7.097  0.00  0.00    -0.355 N 
ATOM     15  H   UNL     1       2.374   1.165  -6.738  0.00  0.00    +0.142 HD
ATOM     16  H   UNL     1       3.491   0.701  -7.903  0.00  0.00    +0.142 HD
ENDBRANCH   6  14
ENDBRANCH   2   5
BRANCH   1  17
ATOM     17  C   UNL     1      -0.008  -0.215  -2.583  0.00  0.00    +0.109 C 
ATOM     18  C   UNL     1      -1.402  -0.420  -3.180  0.00  0.00    +0.033 C 
BRANCH  17  21
ATOM     19  C   UNL     1      -0.018   1.503   0.010  0.00  0.00    +0.066 C 
ATOM     20  C   UNL     1       0.002  -0.004   0.002  0.00  0.00    +0.051 A 
ATOM     21  C   UNL     1       0.006  -0.708  -1.159  0.00  0.00    +0.032 A 
ATOM     22  S   UNL     1       0.032  -2.379  -0.531  0.00  0.00    -0.075 S 
ATOM     23  C   UNL     1       0.036  -2.009   1.111  0.00  0.00    +0.076 A 
ATOM     24  N   UNL     1       0.023  -0.699   1.122  0.00  0.00    -0.249 NA
ATOM     25  C   UNL     1       0.055  -2.955   2.284  0.00  0.00    +0.073 C 
ENDBRANCH  17  21
ENDBRANCH   1  17
TORSDOF 5
