REMARK  Name = ZINC36246074
REMARK  18 active torsions:
REMARK  status: ('A' for Active; 'I' for Inactive)
REMARK    1  A    between atoms: C_1  and  C_2
REMARK    2  A    between atoms: C_2  and  C_3
REMARK    3  A    between atoms: C_3  and  N_4
REMARK    4  A    between atoms: N_4  and  C_5
REMARK    5  A    between atoms: N_4  and  C_22
REMARK    6  A    between atoms: C_5  and  C_6
REMARK    7  A    between atoms: C_7  and  C_16
REMARK    8  A    between atoms: C_10  and  N_11
REMARK    9  A    between atoms: N_11  and  C_12
REMARK   10  A    between atoms: N_11  and  C_14
REMARK   11  A    between atoms: C_12  and  C_13
REMARK   12  A    between atoms: C_14  and  C_15
REMARK   13  A    between atoms: C_22  and  C_23
REMARK   14  A    between atoms: C_23  and  C_25
REMARK   15  A    between atoms: C_23  and  O_34
REMARK   16  A    between atoms: C_25  and  O_26
REMARK   17  A    between atoms: O_26  and  C_27
REMARK   18  A    between atoms: C_32  and  C_33
REMARK                            x       y       z     vdW  Elec       q    Type
REMARK                         _______ _______ _______ _____ _____    ______ ____
ROOT
ATOM      1  N   UNL     1      -1.039  -2.464  -0.383  0.00  0.00    +0.384 N 
ATOM      2  H   UNL     1      -0.381  -2.461  -1.148  0.00  0.00    -0.081 HD
ENDROOT
BRANCH   1   3
ATOM      3  C   UNL     1      -1.628  -1.126  -0.238  0.00  0.00    -0.079 C 
BRANCH   3   5
ATOM      4  C   UNL     1      -1.113   1.306   0.010  0.00  0.00    +0.002 C 
ATOM      5  C   UNL     1      -0.515  -0.102  -0.007  0.00  0.00    -0.022 C 
ENDBRANCH   3   5
ENDBRANCH   1   3
BRANCH   1   6
ATOM      6  C   UNL     1      -2.103  -3.440  -0.656  0.00  0.00    -0.035 C 
BRANCH   6   7
ATOM      7  C   UNL     1      -2.734  -3.135  -1.991  0.00  0.00    +0.025 A 
ATOM      8  C   UNL     1      -3.869  -2.326  -2.206  0.00  0.00    +0.117 A 
ATOM      9  N   UNL     1      -4.109  -2.301  -3.497  0.00  0.00    -0.076 NA
ATOM     10  O   UNL     1      -3.130  -3.097  -4.139  0.00  0.00    -0.339 OA
ATOM     11  C   UNL     1      -2.306  -3.586  -3.197  0.00  0.00    +0.222 A 
BRANCH   8  12
ATOM     12  C   UNL     1      -4.653  -1.625  -1.159  0.00  0.00    +0.004 A 
ATOM     13  C   UNL     1      -4.962  -2.274   0.035  0.00  0.00    +0.010 A 
ATOM     14  C   UNL     1      -5.691  -1.617   1.006  0.00  0.00    +0.001 A 
ATOM     15  C   UNL     1      -6.115  -0.318   0.795  0.00  0.00    +0.000 A 
ATOM     16  C   UNL     1      -5.810   0.332  -0.387  0.00  0.00    +0.001 A 
ATOM     17  C   UNL     1      -5.077  -0.314  -1.363  0.00  0.00    +0.010 A 
ENDBRANCH   8  12
BRANCH  11  18
ATOM     18  N   UNL     1      -1.215  -4.406  -3.418  0.00  0.00    -0.300 N 
BRANCH  18  19
ATOM     19  C   UNL     1      -0.416  -4.883  -2.286  0.00  0.00    +0.104 C 
ATOM     20  C   UNL     1      -1.025  -6.176  -1.741  0.00  0.00    +0.024 C 
ENDBRANCH  18  19
BRANCH  18  21
ATOM     21  C   UNL     1      -0.858  -4.798  -4.784  0.00  0.00    +0.104 C 
ATOM     22  C   UNL     1       0.207  -3.843  -5.327  0.00  0.00    +0.024 C 
ENDBRANCH  18  21
ENDBRANCH  11  18
ENDBRANCH   6   7
ENDBRANCH   1   6
BRANCH   1  23
ATOM     23  C   UNL     1      -0.345  -2.831   0.859  0.00  0.00    -0.043 C 
BRANCH  23  24
ATOM     24  C   UNL     1      -1.362  -2.941   1.997  0.00  0.00    +0.135 C 
BRANCH  24  25
ATOM     25  O   UNL     1      -1.884  -1.645   2.296  0.00  0.00    -0.390 OA
ATOM     26  H   UNL     1      -1.214  -1.005   2.571  0.00  0.00    +0.210 HD
ENDBRANCH  24  25
BRANCH  24  27
ATOM     27  C   UNL     1      -0.675  -3.513   3.240  0.00  0.00    +0.258 C 
BRANCH  27  28
ATOM     28  O   UNL     1      -1.647  -3.724   4.266  0.00  0.00    -0.489 OA
BRANCH  28  29
ATOM     29  C   UNL     1      -1.200  -4.232   5.444  0.00  0.00    +0.124 A 
ATOM     30  C   UNL     1       0.148  -4.515   5.612  0.00  0.00    +0.046 A 
ATOM     31  C   UNL     1       0.600  -5.030   6.811  0.00  0.00    +0.004 A 
ATOM     32  C   UNL     1      -0.289  -5.264   7.844  0.00  0.00    +0.000 A 
ATOM     33  C   UNL     1      -1.633  -4.983   7.679  0.00  0.00    +0.007 A 
ATOM     34  C   UNL     1      -2.089  -4.462   6.484  0.00  0.00    -0.009 A 
ATOM     35  C   UNL     1      -3.553  -4.150   6.307  0.00  0.00    +0.047 C 
ENDBRANCH  28  29
ENDBRANCH  27  28
ENDBRANCH  24  27
ENDBRANCH  23  24
ENDBRANCH   1  23
TORSDOF 14
