REMARK  Name = ZINC64556119
REMARK  4 active torsions:
REMARK  status: ('A' for Active; 'I' for Inactive)
REMARK    1  A    between atoms: C_1  and  C_2
REMARK    2  A    between atoms: C_2  and  C_3
REMARK    3  A    between atoms: C_3  and  N_4
REMARK    4  A    between atoms: N_12  and  C_13
REMARK                            x       y       z     vdW  Elec       q    Type
REMARK                         _______ _______ _______ _____ _____    ______ ____
ROOT
ATOM      1  N   UNL     1       0.761  -1.977   1.275  0.00  0.00    -0.270 N 
ATOM      2  C   UNL     1       1.861  -2.756   1.352  0.00  0.00    +0.110 A 
ATOM      3  C   UNL     1       1.459  -4.046   1.301  0.00  0.00    +0.065 A 
ATOM      4  C   UNL     1       0.060  -4.058   1.188  0.00  0.00    +0.148 A 
ATOM      5  N   UNL     1      -0.358  -2.814   1.178  0.00  0.00    -0.156 NA
ATOM      6  N   UNL     1      -0.750  -5.199   1.106  0.00  0.00    -0.253 N 
ATOM      7  C   UNL     1      -0.192  -6.425   1.133  0.00  0.00    +0.309 C 
ATOM      8  O   UNL     1       1.015  -6.542   1.228  0.00  0.00    -0.252 OA
ATOM      9  N   UNL     1      -0.971  -7.522   1.054  0.00  0.00    -0.267 N 
ATOM     10  H   UNL     1      -1.713  -5.106   1.030  0.00  0.00    +0.158 HD
ATOM     11  H   UNL     1      -1.936  -7.432   1.043  0.00  0.00    +0.156 HD
ENDROOT
BRANCH   9  12
ATOM     12  C   UNL     1      -0.385  -8.794   0.988  0.00  0.00    +0.070 A 
ATOM     13  C   UNL     1       0.792  -9.055   1.676  0.00  0.00    +0.029 A 
ATOM     14  C   UNL     1       1.367 -10.309   1.610  0.00  0.00    +0.040 A 
ATOM     15  C   UNL     1       0.772 -11.307   0.857  0.00  0.00    +0.126 A 
ATOM     16  C   UNL     1      -0.401 -11.051   0.168  0.00  0.00    +0.078 A 
ATOM     17  C   UNL     1      -0.985  -9.799   0.237  0.00  0.00    +0.147 A 
ATOM     18  F   UNL     1      -2.133  -9.551  -0.430  0.00  0.00    -0.203 F 
ATOM     19  F   UNL     1       1.338 -12.532   0.794  0.00  0.00    -0.205 F 
ENDBRANCH   9  12
BRANCH   1  20
ATOM     20  C   UNL     1       0.741  -0.512   1.295  0.00  0.00    +0.143 C 
BRANCH  20  22
ATOM     21  C   UNL     1      -0.023   1.534   0.082  0.00  0.00    +0.005 C 
ATOM     22  C   UNL     1      -0.002   0.004   0.061  0.00  0.00    +0.020 C 
ENDBRANCH  20  22
ENDBRANCH   1  20
TORSDOF 3
