REMARK  Name = ZINC09532067
REMARK  6 active torsions:
REMARK  status: ('A' for Active; 'I' for Inactive)
REMARK    1  A    between atoms: C_1  and  C_2
REMARK    2  A    between atoms: C_4  and  O_31
REMARK    3  A    between atoms: C_5  and  C_23
REMARK    4  A    between atoms: C_11  and  C_12
REMARK    5  A    between atoms: C_23  and  N_55
REMARK    6  A    between atoms: C_28  and  C_30
REMARK                            x       y       z     vdW  Elec       q    Type
REMARK                         _______ _______ _______ _____ _____    ______ ____
ROOT
ATOM      1  C   UNL     1       3.040  -2.303  -0.040  0.00  0.00    +0.045 C 
ATOM      2  C   UNL     1       1.611  -1.825  -0.023  0.00  0.00    -0.033 A 
ATOM      3  C   UNL     1       0.587  -2.730  -0.017  0.00  0.00    +0.050 A 
ATOM      4  C   UNL     1      -0.734  -2.292  -0.002  0.00  0.00    +0.122 A 
ATOM      5  C   UNL     1      -1.027  -0.937   0.007  0.00  0.00    +0.020 A 
ATOM      6  C   UNL     1       0.002  -0.004   0.002  0.00  0.00    +0.145 A 
ATOM      7  C   UNL     1       1.331  -0.459  -0.013  0.00  0.00    +0.071 A 
ATOM      8  C   UNL     1       2.181   0.746  -0.015  0.00  0.00    +0.232 C 
ATOM      9  O   UNL     1       3.399   0.799  -0.025  0.00  0.00    -0.283 OA
ATOM     10  C   UNL     1       1.233   1.867   0.000  0.00  0.00    +0.179 C 
ATOM     11  C   UNL     1       1.553   3.191   0.004  0.00  0.00    +0.096 C 
ATOM     12  O   UNL     1      -0.016   1.347   0.009  0.00  0.00    -0.451 OA
ENDROOT
BRANCH  11  13
ATOM     13  C   UNL     1       0.528   4.167   0.020  0.00  0.00    +0.133 A 
ATOM     14  C   UNL     1       0.725   5.516   0.031  0.00  0.00    +0.058 A 
ATOM     15  C   UNL     1      -0.559   6.118   0.042  0.00  0.00    +0.022 A 
ATOM     16  C   UNL     1      -1.005   7.444   0.053  0.00  0.00    +0.027 A 
ATOM     17  C   UNL     1      -2.346   7.708   0.068  0.00  0.00    +0.019 A 
ATOM     18  C   UNL     1      -3.268   6.670   0.072  0.00  0.00    +0.019 A 
ATOM     19  C   UNL     1      -2.849   5.356   0.061  0.00  0.00    +0.048 A 
ATOM     20  C   UNL     1      -1.491   5.064   0.046  0.00  0.00    +0.136 A 
ATOM     21  O   UNL     1      -0.797   3.907   0.032  0.00  0.00    -0.455 OA
ATOM     22 BR   UNL     1      -2.950   9.500   0.083  0.00  0.00    -0.050 Br
ENDBRANCH  11  13
BRANCH   4  23
ATOM     23  O   UNL     1      -1.744  -3.199   0.002  0.00  0.00    -0.506 OA
ATOM     24  H   UNL     1      -2.045  -3.457  -0.880  0.00  0.00    +0.292 HD
ENDBRANCH   4  23
BRANCH   5  25
ATOM     25  C   UNL     1      -2.462  -0.477   0.023  0.00  0.00    -0.035 C 
BRANCH  25  32
ATOM     26  C   UNL     1      -2.558  -1.474  -2.181  0.00  0.00    -0.078 C 
ATOM     27  C   UNL     1      -2.944  -1.212  -3.638  0.00  0.00    -0.019 C 
ATOM     28  C   UNL     1      -4.455  -0.978  -3.727  0.00  0.00    -0.003 C 
ATOM     29  C   UNL     1      -4.834   0.198  -2.822  0.00  0.00    -0.016 C 
ATOM     30  C   UNL     1      -4.393  -0.104  -1.388  0.00  0.00    -0.071 C 
ATOM     31  C   UNL     1      -4.753   1.077  -0.484  0.00  0.00    -0.013 C 
ATOM     32  N   UNL     1      -2.928  -0.296  -1.367  0.00  0.00    +0.384 N 
ATOM     33  H   UNL     1      -2.477   0.537  -1.764  0.00  0.00    -0.081 HD
ENDBRANCH  25  32
ENDBRANCH   5  25
TORSDOF 4
