REMARK  Name = ZINC51017749
REMARK  4 active torsions:
REMARK  status: ('A' for Active; 'I' for Inactive)
REMARK    1  A    between atoms: C_4  and  N_21
REMARK    2  A    between atoms: C_5  and  C_7
REMARK    3  A    between atoms: N_11  and  C_12
REMARK    4  A    between atoms: C_12  and  C_13
REMARK                            x       y       z     vdW  Elec       q    Type
REMARK                         _______ _______ _______ _____ _____    ______ ____
ROOT
ATOM      1  C   UNL     1       1.275  -2.379  -0.034  0.00  0.00    +0.184 A 
ATOM      2  N   UNL     1       2.275  -3.233  -0.107  0.00  0.00    -0.108 NA
ATOM      3  N   UNL     1       1.842  -4.440  -0.038  0.00  0.00    -0.023 NA
ATOM      4  N   UNL     1       0.559  -4.451   0.082  0.00  0.00    -0.043 NA
ATOM      5  N   UNL     1       0.139  -3.109   0.095  0.00  0.00    -0.221 N 
ENDROOT
BRANCH   1  10
ATOM      6  C   UNL     1       0.811   1.245   0.836  0.00  0.00    +0.001 A 
ATOM      7  C   UNL     1       1.553   1.862  -0.157  0.00  0.00    +0.002 A 
ATOM      8  C   UNL     1       2.206   1.108  -1.112  0.00  0.00    +0.023 A 
ATOM      9  C   UNL     1       2.122  -0.277  -1.081  0.00  0.00    +0.035 A 
ATOM     10  C   UNL     1       1.372  -0.905  -0.077  0.00  0.00    +0.041 A 
ATOM     11  C   UNL     1       0.718  -0.131   0.881  0.00  0.00    +0.013 A 
BRANCH   9  12
ATOM     12  N   UNL     1       2.779  -1.040  -2.044  0.00  0.00    -0.357 N 
ATOM     13  H   UNL     1       3.297  -0.603  -2.738  0.00  0.00    +0.142 HD
ATOM     14  H   UNL     1       2.718  -2.008  -2.020  0.00  0.00    +0.142 HD
ENDBRANCH   9  12
ENDBRANCH   1  10
BRANCH   5  15
ATOM     15  C   UNL     1      -1.232  -2.608   0.217  0.00  0.00    +0.185 C 
BRANCH  15  16
ATOM     16  C   UNL     1      -1.885  -2.591  -1.141  0.00  0.00    +0.009 A 
ATOM     17  C   UNL     1      -1.880  -1.433  -1.895  0.00  0.00    +0.011 A 
ATOM     18  C   UNL     1      -2.477  -1.416  -3.141  0.00  0.00    +0.039 A 
ATOM     19  C   UNL     1      -3.082  -2.560  -3.635  0.00  0.00    +0.126 A 
ATOM     20  C   UNL     1      -3.087  -3.720  -2.881  0.00  0.00    +0.077 A 
ATOM     21  C   UNL     1      -2.483  -3.737  -1.635  0.00  0.00    +0.131 A 
ATOM     22  F   UNL     1      -2.483  -4.870  -0.900  0.00  0.00    -0.205 F 
ATOM     23  F   UNL     1      -3.667  -2.543  -4.853  0.00  0.00    -0.205 F 
ENDBRANCH  15  16
ENDBRANCH   5  15
TORSDOF 4
