REMARK  Name = ZINC13791325
REMARK  9 active torsions:
REMARK  status: ('A' for Active; 'I' for Inactive)
REMARK    1  A    between atoms: C_1  and  C_2
REMARK    2  A    between atoms: C_5  and  N_16
REMARK    3  A    between atoms: C_6  and  C_8
REMARK    4  A    between atoms: C_8  and  C_10
REMARK    5  A    between atoms: C_17  and  C_19
REMARK    6  A    between atoms: C_24  and  N_25
REMARK    7  A    between atoms: C_26  and  C_28
REMARK    8  A    between atoms: N_33  and  S_35
REMARK    9  A    between atoms: S_35  and  C_38
REMARK                            x       y       z     vdW  Elec       q    Type
REMARK                         _______ _______ _______ _____ _____    ______ ____
ROOT
ATOM      1  C   UNL     1      -3.346   7.776  -1.711  0.00  0.00    +0.058 A 
ATOM      2  C   UNL     1      -3.546   9.151  -1.564  0.00  0.00    +0.015 A 
ATOM      3  C   UNL     1      -3.008   9.812  -0.481  0.00  0.00    +0.001 A 
ATOM      4  C   UNL     1      -2.272   9.120   0.467  0.00  0.00    +0.002 A 
ATOM      5  C   UNL     1      -2.071   7.760   0.338  0.00  0.00    +0.024 A 
ATOM      6  C   UNL     1      -2.605   7.077  -0.746  0.00  0.00    +0.046 A 
ENDROOT
BRANCH   1   8
ATOM      7  N   UNL     1      -4.539   7.753  -3.845  0.00  0.00    -0.281 N 
ATOM      8  C   UNL     1      -3.914   7.064  -2.870  0.00  0.00    +0.250 C 
ATOM      9  O   UNL     1      -3.819   5.854  -2.946  0.00  0.00    -0.270 OA
ATOM     10  H   UNL     1      -4.689   8.706  -3.745  0.00  0.00    +0.155 HD
BRANCH   7  15
ATOM     11  C   UNL     1      -6.284   5.068  -8.532  0.00  0.00    +0.044 C 
ATOM     12  C   UNL     1      -5.827   5.788  -7.289  0.00  0.00    -0.050 A 
ATOM     13  C   UNL     1      -4.780   5.273  -6.540  0.00  0.00    +0.005 A 
ATOM     14  C   UNL     1      -4.352   5.922  -5.400  0.00  0.00    +0.024 A 
ATOM     15  C   UNL     1      -4.969   7.098  -4.995  0.00  0.00    +0.045 A 
ATOM     16  C   UNL     1      -6.034   7.619  -5.748  0.00  0.00    +0.044 A 
ATOM     17  C   UNL     1      -6.453   6.952  -6.903  0.00  0.00    +0.017 A 
BRANCH  16  18
ATOM     18  C   UNL     1      -6.702   8.863  -5.326  0.00  0.00    +0.195 C 
ATOM     19  O   UNL     1      -6.540   9.886  -5.963  0.00  0.00    -0.287 OA
BRANCH  18  20
ATOM     20  C   UNL     1      -7.568   8.867  -4.128  0.00  0.00    +0.022 A 
ATOM     21  C   UNL     1      -7.679   7.720  -3.339  0.00  0.00    +0.012 A 
ATOM     22  C   UNL     1      -8.485   7.733  -2.220  0.00  0.00    +0.001 A 
ATOM     23  C   UNL     1      -9.191   8.875  -1.884  0.00  0.00    +0.000 A 
ATOM     24  C   UNL     1      -9.089  10.013  -2.665  0.00  0.00    +0.001 A 
ATOM     25  C   UNL     1      -8.283  10.016  -3.783  0.00  0.00    +0.012 A 
ENDBRANCH  18  20
ENDBRANCH  16  18
ENDBRANCH   7  15
ENDBRANCH   1   8
BRANCH   6  26
ATOM     26  N   UNL     1      -2.402   5.705  -0.879  0.00  0.00    -0.285 N 
ATOM     27  C   UNL     1      -1.328   5.125  -0.308  0.00  0.00    +0.222 C 
ATOM     28  O   UNL     1      -0.483   5.809   0.231  0.00  0.00    -0.275 OA
ATOM     29  H   UNL     1      -3.034   5.168  -1.381  0.00  0.00    +0.155 HD
BRANCH  27  30
ATOM     30  C   UNL     1      -1.175   3.626  -0.340  0.00  0.00    +0.091 C 
ATOM     31  C   UNL     1      -1.125   3.149  -1.793  0.00  0.00    +0.015 C 
ATOM     32  C   UNL     1      -1.004   1.623  -1.827  0.00  0.00    +0.018 C 
ATOM     33  C   UNL     1       0.296   1.203  -1.134  0.00  0.00    +0.109 C 
ATOM     34  N   UNL     1       0.325   1.781   0.216  0.00  0.00    -0.181 NA
ATOM     35  C   UNL     1       0.123   3.229   0.369  0.00  0.00    +0.121 C 
BRANCH  34  36
ATOM     36  S   UNL     1       0.574   0.819   1.541  0.00  0.00    +0.029 S 
ATOM     37  O   UNL     1      -0.048   1.511   2.614  0.00  0.00    -0.158 OA
ATOM     38  O   UNL     1       0.117  -0.468   1.146  0.00  0.00    -0.158 OA
ATOM     39  C   UNL     1       2.373   0.799   1.770  0.00  0.00    +0.215 C 
ENDBRANCH  34  36
ENDBRANCH  27  30
ENDBRANCH   6  26
TORSDOF 7
