REMARK  Name = ZINC63623030
REMARK  9 active torsions:
REMARK  status: ('A' for Active; 'I' for Inactive)
REMARK    1  A    between atoms: C_4  and  C_7
REMARK    2  A    between atoms: C_7  and  C_9
REMARK    3  A    between atoms: C_9  and  O_10
REMARK    4  A    between atoms: O_10  and  C_11
REMARK    5  A    between atoms: C_11  and  C_13
REMARK    6  A    between atoms: C_13  and  C_15
REMARK    7  A    between atoms: C_13  and  N_25
REMARK    8  A    between atoms: C_15  and  C_16
REMARK    9  A    between atoms: C_26  and  C_28
REMARK                            x       y       z     vdW  Elec       q    Type
REMARK                         _______ _______ _______ _____ _____    ______ ____
ROOT
ATOM      1  C   UNL     1       6.671  -4.520  -0.089  0.00  0.00    +0.186 C 
ENDROOT
BRANCH   1   2
ATOM      2  N   UNL     1       6.619  -5.984  -0.097  0.00  0.00    -0.298 N 
ATOM      3  C   UNL     1       7.657  -6.698   0.382  0.00  0.00    +0.245 C 
ATOM      4  O   UNL     1       8.636  -6.127   0.820  0.00  0.00    -0.270 OA
ATOM      5  H   UNL     1       5.837  -6.440  -0.446  0.00  0.00    +0.150 HD
BRANCH   3   6
ATOM      6  C   UNL     1       7.604  -8.175   0.375  0.00  0.00    +0.037 A 
ATOM      7  C   UNL     1       6.482  -8.834  -0.133  0.00  0.00    +0.014 A 
ATOM      8  C   UNL     1       6.439 -10.212  -0.137  0.00  0.00    +0.016 A 
ATOM      9  C   UNL     1       7.505 -10.943   0.361  0.00  0.00    +0.018 A 
ATOM     10  C   UNL     1       8.620 -10.295   0.866  0.00  0.00    +0.016 A 
ATOM     11  C   UNL     1       8.678  -8.918   0.870  0.00  0.00    +0.014 A 
ATOM     12 BR   UNL     1       7.437 -12.833   0.353  0.00  0.00    -0.050 Br
ENDBRANCH   3   6
ENDBRANCH   1   2
BRANCH   1  13
ATOM     13  C   UNL     1       5.269  -3.968  -0.072  0.00  0.00    +0.328 C 
ATOM     14  O   UNL     1       4.323  -4.720  -0.066  0.00  0.00    -0.249 OA
BRANCH  13  15
ATOM     15  O   UNL     1       5.071  -2.640  -0.063  0.00  0.00    -0.455 OA
BRANCH  15  16
ATOM     16  C   UNL     1       3.716  -2.186  -0.046  0.00  0.00    +0.311 C 
BRANCH  16  17
ATOM     17  C   UNL     1       3.691  -0.679  -0.038  0.00  0.00    +0.200 C 
ATOM     18  O   UNL     1       4.731  -0.056  -0.045  0.00  0.00    -0.288 OA
BRANCH  17  22
ATOM     19  C   UNL     1      -0.017   1.380   0.010  0.00  0.00    +0.000 A 
ATOM     20  C   UNL     1       1.168   2.095   0.002  0.00  0.00    +0.001 A 
ATOM     21  C   UNL     1       2.377   1.433  -0.013  0.00  0.00    +0.011 A 
ATOM     22  C   UNL     1       2.405   0.035  -0.021  0.00  0.00    +0.021 A 
ATOM     23  C   UNL     1       1.203  -0.681  -0.013  0.00  0.00    +0.011 A 
ATOM     24  C   UNL     1       0.002  -0.004   0.002  0.00  0.00    +0.001 A 
ENDBRANCH  17  22
ENDBRANCH  16  17
ENDBRANCH  15  16
ENDBRANCH  13  15
ENDBRANCH   1  13
BRANCH   1  25
ATOM     25  C   UNL     1       7.397  -4.030  -1.343  0.00  0.00    +0.067 C 
BRANCH  25  26
ATOM     26  C   UNL     1       8.835  -4.480  -1.300  0.00  0.00    -0.039 C 
ATOM     27  C   UNL     1       9.357  -5.587  -1.876  0.00  0.00    -0.001 A 
ATOM     28  C   UNL     1       8.767  -6.662  -2.682  0.00  0.00    +0.010 A 
ATOM     29  C   UNL     1       9.563  -7.661  -3.127  0.00  0.00    +0.001 A 
ATOM     30  C   UNL     1      10.934  -7.695  -2.838  0.00  0.00    +0.002 A 
ATOM     31  C   UNL     1      11.548  -6.744  -2.104  0.00  0.00    +0.026 A 
ATOM     32  C   UNL     1      10.808  -5.646  -1.585  0.00  0.00    +0.043 A 
ATOM     33  N   UNL     1      11.168  -4.617  -0.858  0.00  0.00    -0.380 N 
ATOM     34  C   UNL     1       9.986  -3.783  -0.610  0.00  0.00    +0.144 C 
ATOM     35  H   UNL     1      12.066  -4.434  -0.540  0.00  0.00    +0.160 HD
ENDBRANCH  25  26
ENDBRANCH   1  25
TORSDOF 9
