REMARK  Name = ZINC04394808
REMARK  2 active torsions:
REMARK  status: ('A' for Active; 'I' for Inactive)
REMARK    1  A    between atoms: C_1  and  N_2
REMARK    2  A    between atoms: C_5  and  C_7
REMARK                            x       y       z     vdW  Elec       q    Type
REMARK                         _______ _______ _______ _____ _____    ______ ____
ROOT
ATOM      1  C   UNL     1       1.824  -1.843  -0.025  0.00  0.00    +0.188 C 
ATOM      2  N   UNL     1       3.123  -1.964  -0.729  0.00  0.00    -0.223 NA
ATOM      3  N   UNL     1       3.131  -2.729  -1.829  0.00  0.00    -0.267 N 
ATOM      4  C   UNL     1       2.030  -3.360  -2.282  0.00  0.00    +0.122 C 
ATOM      5  S   UNL     1       1.873  -4.364  -3.659  0.00  0.00    -0.027 S 
ATOM      6  S   UNL     1       0.772  -2.895  -1.101  0.00  0.00    -0.075 S 
ATOM      7  H   UNL     1       3.518  -1.055  -0.918  0.00  0.00    +0.146 HD
ATOM      8  H   UNL     1       4.062  -2.862  -2.399  0.00  0.00    +0.167 HD
ENDROOT
BRANCH   1  13
ATOM      9  C   UNL     1       1.706   3.175   0.002  0.00  0.00    +0.172 C 
ATOM     10  N   UNL     1       1.264   1.778  -0.001  0.00  0.00    -0.273 N 
ATOM     11  C   UNL     1      -0.016   1.349   0.009  0.00  0.00    +0.128 A 
ATOM     12  C   UNL     1       0.002  -0.004   0.002  0.00  0.00    +0.084 A 
ATOM     13  C   UNL     1       1.339  -0.416  -0.013  0.00  0.00    +0.110 A 
ATOM     14  N   UNL     1       2.096   0.651  -0.015  0.00  0.00    -0.172 NA
ATOM     15 CL   UNL     1      -1.387  -1.045   0.009  0.00  0.00    -0.080 Cl
ENDBRANCH   1  13
TORSDOF 1
