REMARK  Name = ZINC58018371
REMARK  8 active torsions:
REMARK  status: ('A' for Active; 'I' for Inactive)
REMARK    1  A    between atoms: C_1  and  C_2
REMARK    2  A    between atoms: C_4  and  S_21
REMARK    3  A    between atoms: C_6  and  N_9
REMARK    4  A    between atoms: C_7  and  C_8
REMARK    5  A    between atoms: C_10  and  C_12
REMARK    6  A    between atoms: C_12  and  N_13
REMARK    7  A    between atoms: N_13  and  C_14
REMARK    8  A    between atoms: S_21  and  N_24
REMARK                            x       y       z     vdW  Elec       q    Type
REMARK                         _______ _______ _______ _____ _____    ______ ____
ROOT
ATOM      1  C   UNL     1      -0.044   1.494  -0.004  0.00  0.00    +0.044 C 
ATOM      2  C   UNL     1      -0.021  -0.012  -0.007  0.00  0.00    -0.044 A 
ATOM      3  C   UNL     1      -0.024  -0.701  -1.207  0.00  0.00    +0.032 A 
ATOM      4  C   UNL     1      -0.002  -2.083  -1.214  0.00  0.00    +0.107 A 
ATOM      5  C   UNL     1       0.024  -2.781  -0.022  0.00  0.00    +0.052 A 
ATOM      6  C   UNL     1       0.027  -2.093   1.184  0.00  0.00    +0.038 A 
ATOM      7  C   UNL     1       0.010  -0.704   1.188  0.00  0.00    -0.026 A 
ATOM      8  C   UNL     1       0.019   0.047   2.494  0.00  0.00    +0.046 C 
ENDROOT
BRANCH   6   9
ATOM      9  N   UNL     1       0.052  -2.797   2.393  0.00  0.00    -0.284 N 
ATOM     10  C   UNL     1       0.563  -4.044   2.436  0.00  0.00    +0.234 C 
ATOM     11  O   UNL     1       1.091  -4.518   1.452  0.00  0.00    -0.274 OA
ATOM     12  H   UNL     1      -0.298  -2.388   3.200  0.00  0.00    +0.155 HD
BRANCH  10  13
ATOM     13  C   UNL     1       0.477  -4.849   3.707  0.00  0.00    +0.198 C 
BRANCH  13  14
ATOM     14  N   UNL     1       1.099  -6.159   3.497  0.00  0.00    -0.334 N 
ATOM     15  H   UNL     1       1.481  -6.382   2.634  0.00  0.00    +0.147 HD
BRANCH  14  16
ATOM     16  C   UNL     1       1.141  -7.088   4.541  0.00  0.00    +0.046 A 
ATOM     17  C   UNL     1       0.590  -6.772   5.776  0.00  0.00    +0.024 A 
ATOM     18  C   UNL     1       0.633  -7.692   6.805  0.00  0.00    +0.002 A 
ATOM     19  C   UNL     1       1.225  -8.926   6.608  0.00  0.00    +0.002 A 
ATOM     20  C   UNL     1       1.775  -9.245   5.380  0.00  0.00    +0.022 A 
ATOM     21  C   UNL     1       1.731  -8.331   4.344  0.00  0.00    +0.062 A 
ATOM     22 CL   UNL     1       2.416  -8.733   2.800  0.00  0.00    -0.082 Cl
ENDBRANCH  14  16
ENDBRANCH  13  14
ENDBRANCH  10  13
ENDBRANCH   6   9
BRANCH   4  23
ATOM     23  S   UNL     1      -0.007  -2.955  -2.745  0.00  0.00    +0.056 S 
ATOM     24  O   UNL     1      -0.534  -4.247  -2.475  0.00  0.00    -0.153 OA
ATOM     25  O   UNL     1      -0.583  -2.083  -3.707  0.00  0.00    -0.153 OA
BRANCH  23  26
ATOM     26  N   UNL     1       1.574  -3.172  -3.190  0.00  0.00    -0.204 NA
ATOM     27  H   UNL     1       2.287  -2.835  -2.626  0.00  0.00    +0.144 HD
ATOM     28  H   UNL     1       1.786  -3.637  -4.014  0.00  0.00    +0.144 HD
ENDBRANCH  23  26
ENDBRANCH   4  23
TORSDOF 6
