REMARK  Name = ZINC09102675
REMARK  12 active torsions:
REMARK  status: ('A' for Active; 'I' for Inactive)
REMARK    1  A    between atoms: C_1  and  C_2
REMARK    2  A    between atoms: C_3  and  C_34
REMARK    3  A    between atoms: C_11  and  C_13
REMARK    4  A    between atoms: C_13  and  C_15
REMARK    5  A    between atoms: C_13  and  S_16
REMARK    6  A    between atoms: S_16  and  C_17
REMARK    7  A    between atoms: C_20  and  C_29
REMARK    8  A    between atoms: N_21  and  C_22
REMARK    9  A    between atoms: C_29  and  C_31
REMARK   10  A    between atoms: C_29  and  N_57
REMARK   11  A    between atoms: C_32  and  N_57
REMARK   12  A    between atoms: C_33  and  N_57
REMARK                            x       y       z     vdW  Elec       q    Type
REMARK                         _______ _______ _______ _____ _____    ______ ____
ROOT
ATOM      1  C   UNL     1       0.483  -0.830   0.981  0.00  0.00    +0.197 A 
ATOM      2  N   UNL     1       0.304  -2.062   0.566  0.00  0.00    -0.122 NA
ATOM      3  N   UNL     1      -0.249  -2.058  -0.594  0.00  0.00    -0.135 NA
ATOM      4  C   UNL     1      -0.462  -0.833  -0.985  0.00  0.00    +0.125 A 
ATOM      5  N   UNL     1       0.002  -0.004   0.002  0.00  0.00    -0.275 N 
ENDROOT
BRANCH   5   6
ATOM      6  C   UNL     1      -0.017   1.399   0.010  0.00  0.00    +0.050 A 
ATOM      7  C   UNL     1      -1.228   2.077   0.019  0.00  0.00    +0.028 A 
ATOM      8  C   UNL     1      -1.244   3.458   0.033  0.00  0.00    +0.022 A 
ATOM      9  C   UNL     1      -0.054   4.165   0.025  0.00  0.00    +0.041 A 
ATOM     10  C   UNL     1       1.154   3.491   0.010  0.00  0.00    +0.022 A 
ATOM     11  C   UNL     1       1.175   2.110   0.002  0.00  0.00    +0.028 A 
ATOM     12 CL   UNL     1      -0.078   5.901   0.034  0.00  0.00    -0.084 Cl
ENDBRANCH   5   6
BRANCH   4  13
ATOM     13  C   UNL     1      -1.098  -0.407  -2.283  0.00  0.00    -0.003 C 
ATOM     14  C   UNL     1      -0.101  -0.600  -3.427  0.00  0.00    -0.005 C 
BRANCH  13  17
ATOM     15  C   UNL     1      -3.236  -1.135  -1.409  0.00  0.00    -0.096 C 
ATOM     16  C   UNL     1      -2.942  -0.835  -3.793  0.00  0.00    -0.096 C 
ATOM     17  N   UNL     1      -2.286  -1.250  -2.535  0.00  0.00    +0.382 N 
ATOM     18  H   UNL     1      -1.988  -2.228  -2.622  0.00  0.00    -0.082 HD
ENDBRANCH  13  17
ENDBRANCH   4  13
BRANCH   1  19
ATOM     19  S   UNL     1       1.205  -0.333   2.510  0.00  0.00    -0.075 S 
BRANCH  19  20
ATOM     20  C   UNL     1       1.572  -1.954   3.225  0.00  0.00    +0.117 C 
ATOM     21  C   UNL     1       2.624  -2.663   2.369  0.00  0.00    +0.027 C 
BRANCH  20  32
ATOM     22  C   UNL     1       3.461  -1.983   9.658  0.00  0.00    +0.045 C 
ATOM     23  C   UNL     1       3.668  -1.105   8.450  0.00  0.00    -0.026 A 
ATOM     24  C   UNL     1       4.413   0.009   8.540  0.00  0.00    -0.008 A 
ATOM     25  S   UNL     1       4.354   0.678   6.889  0.00  0.00    -0.073 S 
ATOM     26  C   UNL     1       3.332  -0.557   6.128  0.00  0.00    +0.116 A 
ATOM     27  C   UNL     1       3.066  -1.454   7.177  0.00  0.00    +0.075 A 
ATOM     28  C   UNL     1       2.242  -2.577   6.838  0.00  0.00    +0.260 A 
ATOM     29  O   UNL     1       1.955  -3.410   7.680  0.00  0.00    -0.267 OA
ATOM     30  N   UNL     1       1.791  -2.696   5.576  0.00  0.00    -0.309 N 
ATOM     31  H   UNL     1       1.234  -3.454   5.340  0.00  0.00    +0.170 HD
ATOM     32  C   UNL     1       2.101  -1.778   4.625  0.00  0.00    +0.124 A 
ATOM     33  N   UNL     1       2.853  -0.746   4.902  0.00  0.00    -0.225 NA
ATOM     34  C   UNL     1       5.126   0.561   9.747  0.00  0.00    +0.052 C 
ENDBRANCH  20  32
ENDBRANCH  19  20
ENDBRANCH   1  19
TORSDOF 6
