REMARK  Name = ZINC36386311
REMARK  5 active torsions:
REMARK  status: ('A' for Active; 'I' for Inactive)
REMARK    1  A    between atoms: C_7  and  N_17
REMARK    2  A    between atoms: C_9  and  C_11
REMARK    3  A    between atoms: N_20  and  C_23
REMARK    4  A    between atoms: C_23  and  C_24
REMARK    5  A    between atoms: C_23  and  C_31
REMARK                            x       y       z     vdW  Elec       q    Type
REMARK                         _______ _______ _______ _____ _____    ______ ____
ROOT
ATOM      1  N   UNL     1       0.168  -2.865  -0.013  0.00  0.00    -0.312 N 
ATOM      2  C   UNL     1      -1.162  -2.247   0.107  0.00  0.00    +0.122 C 
ATOM      3  C   UNL     1      -1.924  -2.950   1.236  0.00  0.00    +0.104 C 
ATOM      4  N   UNL     1      -1.932  -4.398   0.990  0.00  0.00    -0.285 NA
ATOM      5  C   UNL     1      -0.571  -4.950   1.012  0.00  0.00    +0.104 C 
ATOM      6  C   UNL     1       0.246  -4.329  -0.132  0.00  0.00    +0.122 C 
ENDROOT
BRANCH   1  13
ATOM      7  C   UNL     1       1.795  -1.351  -3.611  0.00  0.00    +0.001 A 
ATOM      8  C   UNL     1       2.950  -0.574  -3.560  0.00  0.00    +0.002 A 
ATOM      9  C   UNL     1       3.559  -0.298  -2.372  0.00  0.00    +0.028 A 
ATOM     10  C   UNL     1       3.016  -0.803  -1.182  0.00  0.00    +0.077 A 
ATOM     11  C   UNL     1       1.840  -1.593  -1.237  0.00  0.00    +0.040 A 
ATOM     12  C   UNL     1       1.241  -1.857  -2.472  0.00  0.00    +0.013 A 
ATOM     13  C   UNL     1       1.309  -2.092  -0.021  0.00  0.00    +0.133 A 
ATOM     14  N   UNL     1       1.937  -1.796   1.107  0.00  0.00    -0.212 NA
ATOM     15  C   UNL     1       3.039  -1.050   1.113  0.00  0.00    +0.164 A 
ATOM     16  N   UNL     1       3.576  -0.561   0.010  0.00  0.00    -0.227 NA
BRANCH  15  17
ATOM     17  C   UNL     1       3.692  -0.757   2.411  0.00  0.00    +0.037 A 
ATOM     18  C   UNL     1       4.849   0.027   2.464  0.00  0.00    +0.014 A 
ATOM     19  C   UNL     1       5.420   0.272   3.701  0.00  0.00    +0.020 A 
ATOM     20  C   UNL     1       4.833  -0.262   4.835  0.00  0.00    +0.111 A 
ATOM     21  N   UNL     1       3.742  -0.998   4.753  0.00  0.00    -0.263 NA
ATOM     22  C   UNL     1       3.160  -1.253   3.600  0.00  0.00    +0.122 A 
ENDBRANCH  15  17
ENDBRANCH   1  13
BRANCH   4  23
ATOM     23  C   UNL     1      -2.797  -5.091   1.954  0.00  0.00    +0.174 C 
BRANCH  23  24
ATOM     24  C   UNL     1      -2.780  -6.571   1.671  0.00  0.00    -0.021 A 
ATOM     25  C   UNL     1      -2.789  -7.025   0.365  0.00  0.00    +0.007 A 
ATOM     26  C   UNL     1      -2.773  -8.382   0.104  0.00  0.00    +0.020 A 
ATOM     27  C   UNL     1      -2.749  -9.287   1.151  0.00  0.00    +0.041 A 
ATOM     28  C   UNL     1      -2.741  -8.832   2.458  0.00  0.00    +0.020 A 
ATOM     29  C   UNL     1      -2.751  -7.474   2.717  0.00  0.00    +0.007 A 
ATOM     30 CL   UNL     1      -2.730 -10.992   0.825  0.00  0.00    -0.084 Cl
ENDBRANCH  23  24
BRANCH  23  31
ATOM     31  C   UNL     1      -4.207  -4.572   1.828  0.00  0.00    +0.232 C 
ATOM     32  O   UNL     1      -4.465  -3.709   1.015  0.00  0.00    -0.274 OA
ATOM     33  N   UNL     1      -5.180  -5.066   2.618  0.00  0.00    -0.328 N 
ATOM     34  H   UNL     1      -4.973  -5.755   3.268  0.00  0.00    +0.145 HD
ATOM     35  H   UNL     1      -6.087  -4.731   2.537  0.00  0.00    +0.145 HD
ENDBRANCH  23  31
ENDBRANCH   4  23
TORSDOF 5
