REMARK  Name = ZINC65495866
REMARK  9 active torsions:
REMARK  status: ('A' for Active; 'I' for Inactive)
REMARK    1  A    between atoms: C_4  and  N_7
REMARK    2  A    between atoms: C_9  and  C_12
REMARK    3  A    between atoms: C_12  and  C_13
REMARK    4  A    between atoms: C_13  and  O_15
REMARK    5  A    between atoms: O_15  and  C_16
REMARK    6  A    between atoms: C_16  and  C_17
REMARK    7  A    between atoms: C_17  and  C_18
REMARK    8  A    between atoms: C_17  and  C_26
REMARK    9  A    between atoms: C_18  and  C_19
REMARK                            x       y       z     vdW  Elec       q    Type
REMARK                         _______ _______ _______ _____ _____    ______ ____
ROOT
ATOM      1  C   UNL     1       5.959  -4.053  -1.510  0.00  0.00    +0.312 C 
ATOM      2  O   UNL     1       5.617  -3.334  -2.419  0.00  0.00    -0.250 OA
ENDROOT
BRANCH   1   3
ATOM      3  C   UNL     1       5.757  -3.612  -0.083  0.00  0.00    +0.158 C 
BRANCH   3   6
ATOM      4  N   UNL     1       3.624  -0.652  -0.037  0.00  0.00    -0.240 N 
ATOM      5  C   UNL     1       3.786  -1.994  -0.052  0.00  0.00    +0.118 A 
ATOM      6  C   UNL     1       5.115  -2.248  -0.065  0.00  0.00    +0.001 A 
ATOM      7  C   UNL     1       5.788  -1.022  -0.059  0.00  0.00    +0.139 A 
ATOM      8  N   UNL     1       4.895  -0.065  -0.048  0.00  0.00    -0.175 NA
BRANCH   4  12
ATOM      9  C   UNL     1      -0.017   1.379   0.010  0.00  0.00    +0.000 A 
ATOM     10  C   UNL     1       1.170   2.089   0.002  0.00  0.00    +0.002 A 
ATOM     11  C   UNL     1       2.377   1.419  -0.013  0.00  0.00    +0.028 A 
ATOM     12  C   UNL     1       2.399   0.031  -0.021  0.00  0.00    +0.065 A 
ATOM     13  C   UNL     1       1.207  -0.680  -0.013  0.00  0.00    +0.028 A 
ATOM     14  C   UNL     1       0.002  -0.004   0.002  0.00  0.00    +0.002 A 
ENDBRANCH   4  12
ENDBRANCH   3   6
ENDBRANCH   1   3
BRANCH   1  15
ATOM     15  O   UNL     1       6.519  -5.244  -1.771  0.00  0.00    -0.463 OA
BRANCH  15  16
ATOM     16  C   UNL     1       6.681  -5.598  -3.146  0.00  0.00    +0.250 C 
BRANCH  16  17
ATOM     17  C   UNL     1       7.331  -6.980  -3.244  0.00  0.00    +0.133 C 
BRANCH  17  18
ATOM     18  C   UNL     1       6.420  -7.992  -2.686  0.00  0.00    +0.070 C 
ATOM     19  N   UNL     1       5.716  -8.773  -2.255  0.00  0.00    -0.196 NA
ENDBRANCH  17  18
BRANCH  17  20
ATOM     20  C   UNL     1       7.617  -7.305  -4.711  0.00  0.00    +0.056 C 
BRANCH  20  21
ATOM     21  C   UNL     1       8.368  -8.609  -4.799  0.00  0.00    -0.046 A 
ATOM     22  C   UNL     1       9.750  -8.615  -4.763  0.00  0.00    +0.006 A 
ATOM     23  C   UNL     1      10.439  -9.810  -4.843  0.00  0.00    +0.038 A 
ATOM     24  C   UNL     1       9.745 -11.002  -4.960  0.00  0.00    +0.123 A 
ATOM     25  C   UNL     1       8.361 -10.995  -4.996  0.00  0.00    +0.038 A 
ATOM     26  C   UNL     1       7.673  -9.800  -4.911  0.00  0.00    +0.006 A 
ATOM     27  F   UNL     1      10.417 -12.171  -5.039  0.00  0.00    -0.205 F 
ENDBRANCH  20  21
ENDBRANCH  17  20
ENDBRANCH  16  17
ENDBRANCH  15  16
ENDBRANCH   1  15
TORSDOF 9
