REMARK  Name = ZINC04430517
REMARK  13 active torsions:
REMARK  status: ('A' for Active; 'I' for Inactive)
REMARK    1  A    between atoms: C_1  and  C_2
REMARK    2  A    between atoms: C_2  and  C_3
REMARK    3  A    between atoms: C_8  and  C_9
REMARK    4  A    between atoms: C_9  and  C_10
REMARK    5  A    between atoms: N_11  and  C_22
REMARK    6  A    between atoms: C_22  and  C_23
REMARK    7  A    between atoms: C_23  and  C_25
REMARK    8  A    between atoms: C_23  and  O_33
REMARK    9  A    between atoms: C_25  and  C_27
REMARK   10  A    between atoms: C_25  and  O_32
REMARK   11  A    between atoms: C_27  and  C_29
REMARK   12  A    between atoms: C_27  and  O_31
REMARK   13  A    between atoms: C_29  and  O_30
REMARK                            x       y       z     vdW  Elec       q    Type
REMARK                         _______ _______ _______ _____ _____    ______ ____
ROOT
ATOM      1  C   UNL     1      -0.749   3.086   1.275  0.00  0.00    -0.042 A 
ATOM      2  C   UNL     1       0.215   3.769   1.953  0.00  0.00    +0.033 A 
ATOM      3  C   UNL     1       0.205   5.177   1.961  0.00  0.00    +0.089 A 
ATOM      4  C   UNL     1      -0.818   5.864   1.269  0.00  0.00    +0.069 A 
ATOM      5  C   UNL     1      -1.794   5.141   0.589  0.00  0.00    +0.032 A 
ATOM      6  C   UNL     1      -1.756   3.764   0.595  0.00  0.00    -0.042 A 
ATOM      7  N   UNL     1      -0.853   7.243   1.267  0.00  0.00    -0.320 N 
ATOM      8  C   UNL     1       0.118   7.918   1.942  0.00  0.00    +0.170 A 
ATOM      9  N   UNL     1       0.157   9.240   1.989  0.00  0.00    -0.173 NA
ATOM     10  C   UNL     1       1.113   9.885   2.654  0.00  0.00    +0.351 A 
ATOM     11  O   UNL     1       1.086  11.103   2.654  0.00  0.00    -0.245 OA
ATOM     12  N   UNL     1       2.103   9.277   3.324  0.00  0.00    -0.272 N 
ATOM     13  H   UNL     1       2.785   9.832   3.800  0.00  0.00    +0.174 HD
ATOM     14  C   UNL     1       2.197   7.928   3.368  0.00  0.00    +0.282 A 
ATOM     15  O   UNL     1       3.094   7.375   3.975  0.00  0.00    -0.265 OA
ATOM     16  C   UNL     1       1.162   7.155   2.647  0.00  0.00    +0.171 A 
ATOM     17  N   UNL     1       1.157   5.847   2.624  0.00  0.00    -0.237 NA
ENDROOT
BRANCH   1  19
ATOM     18  C   UNL     1      -0.013   1.086   0.008  0.00  0.00    +0.009 C 
ATOM     19  C   UNL     1      -0.729   1.579   1.267  0.00  0.00    +0.032 C 
ENDBRANCH   1  19
BRANCH   6  20
ATOM     20  C   UNL     1      -2.814   2.984  -0.142  0.00  0.00    +0.032 C 
ATOM     21  C   UNL     1      -3.930   2.596   0.829  0.00  0.00    +0.009 C 
ENDBRANCH   6  20
BRANCH   7  22
ATOM     22  C   UNL     1      -1.910   7.965   0.554  0.00  0.00    +0.158 C 
BRANCH  22  23
ATOM     23  C   UNL     1      -3.093   8.197   1.496  0.00  0.00    +0.165 C 
BRANCH  23  24
ATOM     24  O   UNL     1      -3.670   6.940   1.855  0.00  0.00    -0.387 OA
ATOM     25  H   UNL     1      -4.000   6.429   1.103  0.00  0.00    +0.210 HD
ENDBRANCH  23  24
BRANCH  23  26
ATOM     26  C   UNL     1      -4.144   9.058   0.791  0.00  0.00    +0.175 C 
BRANCH  26  27
ATOM     27  O   UNL     1      -3.567  10.315   0.432  0.00  0.00    -0.387 OA
ATOM     28  H   UNL     1      -3.237  10.825   1.183  0.00  0.00    +0.210 HD
ENDBRANCH  26  27
BRANCH  26  29
ATOM     29  C   UNL     1      -5.327   9.290   1.733  0.00  0.00    +0.171 C 
BRANCH  29  30
ATOM     30  O   UNL     1      -5.904   8.033   2.092  0.00  0.00    -0.387 OA
ATOM     31  H   UNL     1      -6.234   7.522   1.340  0.00  0.00    +0.210 HD
ENDBRANCH  29  30
BRANCH  29  32
ATOM     32  C   UNL     1      -6.378  10.151   1.028  0.00  0.00    +0.189 C 
BRANCH  32  33
ATOM     33  O   UNL     1      -7.429  10.465   1.945  0.00  0.00    -0.392 OA
ATOM     34  H   UNL     1      -8.132  11.010   1.565  0.00  0.00    +0.210 HD
ENDBRANCH  32  33
ENDBRANCH  29  32
ENDBRANCH  26  29
ENDBRANCH  23  26
ENDBRANCH  22  23
ENDBRANCH   7  22
TORSDOF 11
