REMARK  Name = ZINC35060083
REMARK  14 active torsions:
REMARK  status: ('A' for Active; 'I' for Inactive)
REMARK    1  A    between atoms: C_1  and  C_2
REMARK    2  A    between atoms: C_2  and  C_3
REMARK    3  A    between atoms: C_3  and  C_5
REMARK    4  A    between atoms: C_3  and  N_20
REMARK    5  A    between atoms: N_15  and  C_16
REMARK    6  A    between atoms: C_16  and  C_17
REMARK    7  A    between atoms: C_17  and  O_18
REMARK    8  A    between atoms: O_18  and  C_19
REMARK    9  A    between atoms: N_20  and  C_21
REMARK   10  A    between atoms: C_21  and  C_22
REMARK   11  A    between atoms: C_22  and  C_23
REMARK   12  A    between atoms: C_23  and  C_24
REMARK   13  A    between atoms: C_23  and  C_25
REMARK   14  A    between atoms: N_28  and  C_29
REMARK                            x       y       z     vdW  Elec       q    Type
REMARK                         _______ _______ _______ _____ _____    ______ ____
ROOT
ATOM      1  C   UNL     1       0.037  -0.483  -1.647  0.00  0.00    +0.143 C 
ENDROOT
BRANCH   1   2
ATOM      2  C   UNL     1       0.168  -1.984  -1.595  0.00  0.00    +0.134 A 
ATOM      3  N   UNL     1      -0.252  -2.602  -0.533  0.00  0.00    -0.232 NA
ATOM      4  C   UNL     1      -0.166  -3.951  -0.415  0.00  0.00    +0.078 A 
ATOM      5  C   UNL     1      -0.619  -4.617   0.726  0.00  0.00    +0.028 A 
ATOM      6  C   UNL     1      -0.512  -5.987   0.803  0.00  0.00    +0.002 A 
ATOM      7  C   UNL     1       0.040  -6.718  -0.241  0.00  0.00    +0.001 A 
ATOM      8  C   UNL     1       0.493  -6.083  -1.377  0.00  0.00    +0.015 A 
ATOM      9  C   UNL     1       0.395  -4.697  -1.475  0.00  0.00    +0.065 A 
ATOM     10  C   UNL     1       0.861  -3.966  -2.663  0.00  0.00    +0.262 A 
ATOM     11  O   UNL     1       1.354  -4.549  -3.611  0.00  0.00    -0.267 OA
ATOM     12  N   UNL     1       0.716  -2.621  -2.663  0.00  0.00    -0.292 N 
BRANCH  12  13
ATOM     13  C   UNL     1       1.158  -1.843  -3.823  0.00  0.00    +0.154 C 
BRANCH  13  14
ATOM     14  C   UNL     1       2.654  -1.549  -3.700  0.00  0.00    +0.181 C 
BRANCH  14  15
ATOM     15  O   UNL     1       3.387  -2.774  -3.764  0.00  0.00    -0.381 OA
ATOM     16  C   UNL     1       4.803  -2.610  -3.658  0.00  0.00    +0.194 C 
ENDBRANCH  14  15
ENDBRANCH  13  14
ENDBRANCH  12  13
ENDBRANCH   1   2
BRANCH   1  17
ATOM     17  N   UNL     1       1.342   0.130  -1.391  0.00  0.00    -0.275 N 
ATOM     18  C   UNL     1       1.849   1.024  -2.263  0.00  0.00    +0.307 C 
ATOM     19  O   UNL     1       1.224   1.321  -3.262  0.00  0.00    -0.252 OA
ATOM     20  N   UNL     1       3.050   1.589  -2.027  0.00  0.00    -0.268 N 
ATOM     21  H   UNL     1       3.584   1.296  -1.273  0.00  0.00    +0.156 HD
BRANCH  20  22
ATOM     22  C   UNL     1       3.527   2.598  -2.872  0.00  0.00    +0.049 A 
ATOM     23  C   UNL     1       2.634   3.431  -3.534  0.00  0.00    +0.024 A 
ATOM     24  C   UNL     1       3.108   4.426  -4.366  0.00  0.00    +0.002 A 
ATOM     25  C   UNL     1       4.469   4.594  -4.542  0.00  0.00    +0.001 A 
ATOM     26  C   UNL     1       5.361   3.767  -3.884  0.00  0.00    +0.017 A 
ATOM     27  C   UNL     1       4.894   2.773  -3.046  0.00  0.00    +0.039 A 
ATOM     28 BR   UNL     1       6.115   1.646  -2.142  0.00  0.00    -0.048 Br
ENDBRANCH  20  22
BRANCH  17  29
ATOM     29  C   UNL     1       2.096  -0.228  -0.187  0.00  0.00    +0.110 C 
BRANCH  29  30
ATOM     30  C   UNL     1       3.114  -1.318  -0.528  0.00  0.00    +0.022 C 
BRANCH  30  31
ATOM     31  C   UNL     1       3.805  -1.789   0.753  0.00  0.00    -0.016 C 
ATOM     32  C   UNL     1       4.731  -2.964   0.431  0.00  0.00    +0.007 C 
ATOM     33  C   UNL     1       4.626  -0.640   1.341  0.00  0.00    +0.007 C 
ENDBRANCH  30  31
ENDBRANCH  29  30
ENDBRANCH  17  29
ENDBRANCH   1  17
BRANCH   1  35
ATOM     34  C   UNL     1      -1.196   1.484  -0.725  0.00  0.00    +0.006 C 
ATOM     35  C   UNL     1      -0.961  -0.021  -0.584  0.00  0.00    +0.027 C 
ENDBRANCH   1  35
TORSDOF 10
