REMARK  Name = ZINC08704642
REMARK  6 active torsions:
REMARK  status: ('A' for Active; 'I' for Inactive)
REMARK    1  A    between atoms: C_1  and  C_2
REMARK    2  A    between atoms: C_6  and  C_15
REMARK    3  A    between atoms: N_8  and  C_9
REMARK    4  A    between atoms: N_17  and  C_18
REMARK    5  A    between atoms: C_22  and  S_24
REMARK    6  A    between atoms: S_24  and  N_27
REMARK                            x       y       z     vdW  Elec       q    Type
REMARK                         _______ _______ _______ _____ _____    ______ ____
ROOT
ATOM      1  C   UNL     1       5.531  -0.624  -4.034  0.00  0.00    +0.272 C 
ATOM      2  O   UNL     1       5.349   0.115  -4.982  0.00  0.00    -0.268 OA
ATOM      3  N   UNL     1       5.158  -0.238  -2.798  0.00  0.00    -0.280 N 
ATOM      4  H   UNL     1       5.364  -0.798  -2.033  0.00  0.00    +0.155 HD
ENDROOT
BRANCH   1  10
ATOM      5  C   UNL     1       7.950  -5.756  -4.634  0.00  0.00    +0.066 C 
ATOM      6  C   UNL     1       7.320  -4.390  -4.561  0.00  0.00    +0.044 A 
ATOM      7  C   UNL     1       7.171  -3.661  -5.693  0.00  0.00    +0.076 A 
ATOM      8  C   UNL     1       6.573  -2.379  -5.581  0.00  0.00    +0.213 A 
ATOM      9  O   UNL     1       6.407  -1.667  -6.559  0.00  0.00    -0.285 OA
ATOM     10  C   UNL     1       6.160  -1.944  -4.237  0.00  0.00    +0.193 A 
ATOM     11  N   UNL     1       6.368  -2.752  -3.219  0.00  0.00    -0.158 NA
ATOM     12  N   UNL     1       6.908  -3.905  -3.364  0.00  0.00    -0.236 N 
BRANCH  12  13
ATOM     13  C   UNL     1       7.087  -4.702  -2.228  0.00  0.00    +0.066 A 
ATOM     14  C   UNL     1       6.052  -4.854  -1.314  0.00  0.00    +0.028 A 
ATOM     15  C   UNL     1       6.230  -5.646  -0.197  0.00  0.00    +0.002 A 
ATOM     16  C   UNL     1       7.441  -6.278   0.019  0.00  0.00    +0.000 A 
ATOM     17  C   UNL     1       8.476  -6.125  -0.886  0.00  0.00    +0.002 A 
ATOM     18  C   UNL     1       8.302  -5.339  -2.008  0.00  0.00    +0.028 A 
ENDBRANCH  12  13
ENDBRANCH   1  10
BRANCH   3  19
ATOM     19  C   UNL     1       4.474   0.968  -2.618  0.00  0.00    +0.036 A 
ATOM     20  C   UNL     1       4.775   2.064  -3.417  0.00  0.00    +0.023 A 
ATOM     21  C   UNL     1       4.098   3.254  -3.237  0.00  0.00    +0.004 A 
ATOM     22  C   UNL     1       3.122   3.356  -2.262  0.00  0.00    +0.029 A 
ATOM     23  C   UNL     1       2.821   2.267  -1.465  0.00  0.00    +0.110 A 
ATOM     24  C   UNL     1       3.498   1.075  -1.637  0.00  0.00    +0.052 A 
BRANCH  23  25
ATOM     25  S   UNL     1       1.578   2.402  -0.224  0.00  0.00    +0.073 S 
ATOM     26  O   UNL     1       1.478   3.781   0.103  0.00  0.00    -0.150 OA
ATOM     27  O   UNL     1       1.865   1.407   0.749  0.00  0.00    -0.150 OA
BRANCH  25  28
ATOM     28  N   UNL     1       0.139   1.977  -0.924  0.00  0.00    -0.205 N 
ATOM     29  C   UNL     1      -0.054   0.696  -1.371  0.00  0.00    +0.088 C 
ATOM     30  C   UNL     1       0.334  -1.510  -1.847  0.00  0.00    +0.114 C 
ATOM     31  C   UNL     1      -0.899  -1.129  -2.699  0.00  0.00    +0.028 C 
ATOM     32  C   UNL     1      -1.326   0.197  -2.019  0.00  0.00    +0.072 C 
ATOM     33  H   UNL     1      -0.567   2.636  -1.022  0.00  0.00    +0.175 HD
ATOM     34  N   UNL     1       0.839  -0.241  -1.281  0.00  0.00    -0.375 N 
ATOM     35  H   UNL     1       1.772  -0.118  -0.872  0.00  0.00    +0.161 HD
ENDBRANCH  25  28
ENDBRANCH  23  25
ENDBRANCH   3  19
TORSDOF 5
