REMARK  Name = ZINC39696025
REMARK  7 active torsions:
REMARK  status: ('A' for Active; 'I' for Inactive)
REMARK    1  A    between atoms: C_1  and  C_2
REMARK    2  A    between atoms: C_2  and  C_3
REMARK    3  A    between atoms: C_6  and  C_9
REMARK    4  A    between atoms: C_9  and  C_11
REMARK    5  A    between atoms: C_9  and  N_12
REMARK    6  A    between atoms: C_13  and  C_15
REMARK    7  A    between atoms: C_26  and  C_28
REMARK                            x       y       z     vdW  Elec       q    Type
REMARK                         _______ _______ _______ _____ _____    ______ ____
ROOT
ATOM      1  C   UNL     1      -8.357  -0.943  -1.494  0.00  0.00    +0.100 C 
ATOM      2  C   UNL     1      -8.055  -1.429  -2.929  0.00  0.00    +0.121 C 
ATOM      3  N   UNL     1      -9.202  -2.300  -3.278  0.00  0.00    -0.296 N 
ATOM      4  C   UNL     1     -10.380  -1.607  -2.703  0.00  0.00    +0.115 C 
ATOM      5  C   UNL     1      -9.884  -1.057  -1.351  0.00  0.00    -0.004 C 
ATOM      6  C   UNL     1     -10.493   0.315  -1.083  0.00  0.00    -0.010 C 
ATOM      7  C   UNL     1     -12.005   0.168  -0.886  0.00  0.00    -0.082 C 
ATOM      8  N   UNL     1     -12.268  -0.736   0.241  0.00  0.00    +0.379 N 
ATOM      9  C   UNL     1     -11.760  -2.079  -0.065  0.00  0.00    -0.082 C 
ATOM     10  C   UNL     1     -10.238  -2.026  -0.227  0.00  0.00    -0.010 C 
ATOM     11  C   UNL     1      -9.180  -3.460  -3.964  0.00  0.00    +0.250 C 
ATOM     12  O   UNL     1     -10.222  -4.014  -4.255  0.00  0.00    -0.270 OA
ATOM     13  H   UNL     1     -11.808  -0.384   1.067  0.00  0.00    -0.086 HD
ATOM     14  H   UNL     1     -13.262  -0.783   0.407  0.00  0.00    -0.086 HD
ENDROOT
BRANCH  11  15
ATOM     15  C   UNL     1      -7.889  -4.058  -4.362  0.00  0.00    +0.074 A 
ATOM     16  C   UNL     1      -6.810  -3.245  -4.729  0.00  0.00    +0.017 A 
ATOM     17  C   UNL     1      -5.623  -3.855  -5.093  0.00  0.00    +0.021 A 
ATOM     18  C   UNL     1      -5.540  -5.236  -5.084  0.00  0.00    +0.112 A 
ATOM     19  N   UNL     1      -6.572  -5.979  -4.735  0.00  0.00    -0.243 NA
ATOM     20  C   UNL     1      -7.723  -5.446  -4.375  0.00  0.00    +0.141 A 
ATOM     21 CL   UNL     1      -9.044  -6.475  -3.919  0.00  0.00    -0.061 Cl
ENDBRANCH  11  15
BRANCH   1  23
ATOM     22  N   UNL     1      -7.320  -1.329   0.719  0.00  0.00    -0.308 N 
ATOM     23  C   UNL     1      -7.668  -1.826  -0.485  0.00  0.00    +0.219 C 
ATOM     24  O   UNL     1      -7.426  -2.983  -0.757  0.00  0.00    -0.275 OA
ATOM     25  H   UNL     1      -7.514  -0.404   0.936  0.00  0.00    +0.149 HD
BRANCH  22  26
ATOM     26  C   UNL     1      -6.651  -2.187   1.699  0.00  0.00    +0.100 C 
ATOM     27  C   UNL     1      -5.144  -2.191   1.430  0.00  0.00    +0.033 C 
BRANCH  26  31
ATOM     28  C   UNL     1      -7.387  -0.698   5.635  0.00  0.00    -0.048 A 
ATOM     29  C   UNL     1      -7.399  -2.060   5.397  0.00  0.00    +0.004 A 
ATOM     30  C   UNL     1      -7.161  -2.542   4.124  0.00  0.00    +0.006 A 
ATOM     31  C   UNL     1      -6.911  -1.662   3.087  0.00  0.00    -0.027 A 
ATOM     32  C   UNL     1      -6.900  -0.300   3.324  0.00  0.00    +0.006 A 
ATOM     33  C   UNL     1      -7.143   0.182   4.597  0.00  0.00    +0.004 A 
BRANCH  28  35
ATOM     34  C   UNL     1      -9.148   0.061   7.207  0.00  0.00    +0.009 C 
ATOM     35  C   UNL     1      -7.647  -0.173   7.023  0.00  0.00    +0.032 C 
ENDBRANCH  28  35
ENDBRANCH  26  31
ENDBRANCH  22  26
ENDBRANCH   1  23
TORSDOF 5
