REMARK  Name = ZINC22618468
REMARK  9 active torsions:
REMARK  status: ('A' for Active; 'I' for Inactive)
REMARK    1  A    between atoms: C_1  and  C_2
REMARK    2  A    between atoms: C_2  and  C_3
REMARK    3  A    between atoms: C_3  and  C_4
REMARK    4  A    between atoms: C_4  and  N_5
REMARK    5  A    between atoms: C_6  and  C_28
REMARK    6  A    between atoms: C_8  and  C_14
REMARK    7  A    between atoms: C_14  and  N_16
REMARK    8  A    between atoms: C_33  and  O_34
REMARK    9  A    between atoms: O_34  and  C_35
REMARK                            x       y       z     vdW  Elec       q    Type
REMARK                         _______ _______ _______ _____ _____    ______ ____
ROOT
ATOM      1  N   UNL     1       1.350  -2.387  -2.484  0.00  0.00    -0.294 N 
ATOM      2  C   UNL     1       0.621  -2.878  -3.647  0.00  0.00    +0.122 C 
ATOM      3  C   UNL     1       1.501  -3.817  -4.474  0.00  0.00    +0.102 C 
ATOM      4  C   UNL     1       2.841  -3.122  -4.743  0.00  0.00    +0.024 C 
ATOM      5  C   UNL     1       3.590  -2.984  -3.416  0.00  0.00    +0.097 C 
ATOM      6  C   UNL     1       2.679  -2.402  -2.374  0.00  0.00    +0.216 C 
ATOM      7  O   UNL     1       3.177  -1.924  -1.377  0.00  0.00    -0.276 OA
ENDROOT
BRANCH   2   8
ATOM      8  C   UNL     1      -0.604  -3.627  -3.188  0.00  0.00    +0.015 A 
ATOM      9  C   UNL     1      -0.657  -4.147  -1.909  0.00  0.00    +0.009 A 
ATOM     10  C   UNL     1      -1.780  -4.834  -1.487  0.00  0.00    +0.001 A 
ATOM     11  C   UNL     1      -2.853  -5.002  -2.343  0.00  0.00    +0.004 A 
ATOM     12  C   UNL     1      -2.805  -4.483  -3.623  0.00  0.00    +0.046 A 
ATOM     13  C   UNL     1      -1.681  -3.789  -4.047  0.00  0.00    +0.125 A 
BRANCH  13  14
ATOM     14  O   UNL     1      -1.634  -3.273  -5.303  0.00  0.00    -0.495 OA
ATOM     15  C   UNL     1      -2.779  -3.478  -6.132  0.00  0.00    +0.277 C 
ENDBRANCH  13  14
ENDBRANCH   2   8
BRANCH   3  16
ATOM     16  C   UNL     1       1.734  -5.094  -3.710  0.00  0.00    +0.244 C 
ATOM     17  O   UNL     1       1.244  -5.242  -2.607  0.00  0.00    -0.273 OA
BRANCH  16  18
ATOM     18  N   UNL     1       2.477  -6.060  -4.241  0.00  0.00    -0.147 NA
ATOM     19  C   UNL     1       2.601  -7.226  -3.613  0.00  0.00    +0.198 A 
ATOM     20  N   UNL     1       2.098  -7.516  -2.384  0.00  0.00    -0.326 N 
ATOM     21  H   UNL     1       1.591  -6.910  -1.820  0.00  0.00    +0.169 HD
ATOM     22  C   UNL     1       2.434  -8.829  -2.073  0.00  0.00    +0.065 A 
ATOM     23  C   UNL     1       2.187  -9.635  -0.970  0.00  0.00    +0.028 A 
ATOM     24  C   UNL     1       2.660 -10.931  -0.946  0.00  0.00    +0.002 A 
ATOM     25  C   UNL     1       3.380 -11.432  -2.018  0.00  0.00    +0.002 A 
ATOM     26  C   UNL     1       3.631 -10.640  -3.119  0.00  0.00    +0.028 A 
ATOM     27  C   UNL     1       3.160  -9.335  -3.154  0.00  0.00    +0.065 A 
ATOM     28  N   UNL     1       3.245  -8.319  -4.101  0.00  0.00    -0.326 N 
ATOM     29  H   UNL     1       3.689  -8.380  -4.961  0.00  0.00    +0.169 HD
ENDBRANCH  16  18
ENDBRANCH   3  16
BRANCH   1  30
ATOM     30  C   UNL     1       0.574  -1.837  -1.370  0.00  0.00    +0.108 C 
BRANCH  30  31
ATOM     31  C   UNL     1       0.505  -0.315  -1.498  0.00  0.00    +0.019 C 
BRANCH  31  33
ATOM     32  C   UNL     1      -0.374   1.783  -0.463  0.00  0.00    +0.004 C 
ATOM     33  C   UNL     1      -0.305   0.260  -0.334  0.00  0.00    -0.002 C 
ENDBRANCH  31  33
ENDBRANCH  30  31
ENDBRANCH   1  30
TORSDOF 7
