REMARK  Name = ZINC38502917
REMARK  10 active torsions:
REMARK  status: ('A' for Active; 'I' for Inactive)
REMARK    1  A    between atoms: C_1  and  C_2
REMARK    2  A    between atoms: C_2  and  O_3
REMARK    3  A    between atoms: O_3  and  C_4
REMARK    4  A    between atoms: N_12  and  C_13
REMARK    5  A    between atoms: C_13  and  C_15
REMARK    6  A    between atoms: C_17  and  C_23
REMARK    7  A    between atoms: N_19  and  C_20
REMARK    8  A    between atoms: C_20  and  C_21
REMARK    9  A    between atoms: C_20  and  C_22
REMARK   10  A    between atoms: N_24  and  C_25
REMARK                            x       y       z     vdW  Elec       q    Type
REMARK                         _______ _______ _______ _____ _____    ______ ____
ROOT
ATOM      1  C   UNL     1       0.595  -1.887  -1.344  0.00  0.00    +0.122 A 
ATOM      2  C   UNL     1       0.039  -2.788  -0.445  0.00  0.00    +0.048 A 
ATOM      3  C   UNL     1       0.171  -4.143  -0.623  0.00  0.00    +0.030 A 
ATOM      4  C   UNL     1       0.874  -4.664  -1.724  0.00  0.00    +0.058 A 
ATOM      5  C   UNL     1       1.424  -3.731  -2.615  0.00  0.00    +0.042 A 
ATOM      6  C   UNL     1       1.290  -2.373  -2.443  0.00  0.00    +0.062 A 
ATOM      7  S   UNL     1       2.212  -4.747  -3.840  0.00  0.00    -0.052 S 
ATOM      8  C   UNL     1       1.795  -6.338  -3.146  0.00  0.00    +0.167 A 
ATOM      9  N   UNL     1       2.098  -7.549  -3.600  0.00  0.00    -0.151 NA
ATOM     10  N   UNL     1       1.087  -5.996  -2.034  0.00  0.00    -0.324 N 
ATOM     11  C   UNL     1       0.550  -7.043  -1.161  0.00  0.00    +0.151 C 
ENDROOT
BRANCH   9  12
ATOM     12  C   UNL     1       1.806  -8.631  -2.868  0.00  0.00    +0.287 C 
ATOM     13  O   UNL     1       0.796  -9.272  -3.103  0.00  0.00    -0.266 OA
BRANCH  12  14
ATOM     14  C   UNL     1       2.706  -9.047  -1.775  0.00  0.00    +0.126 A 
ATOM     15  C   UNL     1       2.539 -10.136  -0.946  0.00  0.00    +0.057 A 
ATOM     16  C   UNL     1       3.613 -10.161  -0.060  0.00  0.00    +0.061 A 
ATOM     17  N   UNL     1       4.401  -9.149  -0.323  0.00  0.00    -0.176 NA
ATOM     18  N   UNL     1       3.865  -8.430  -1.399  0.00  0.00    -0.256 N 
ATOM     19  C   UNL     1       3.833 -11.185   1.024  0.00  0.00    +0.067 C 
BRANCH  18  20
ATOM     20  C   UNL     1       4.442  -7.229  -2.009  0.00  0.00    +0.102 C 
ATOM     21  C   UNL     1       4.552  -6.125  -0.955  0.00  0.00    +0.032 C 
ATOM     22  C   UNL     1       5.833  -7.553  -2.555  0.00  0.00    +0.032 C 
ENDBRANCH  18  20
ENDBRANCH  12  14
ENDBRANCH   9  12
BRANCH   1  23
ATOM     23  O   UNL     1       0.456  -0.547  -1.154  0.00  0.00    -0.492 OA
BRANCH  23  25
ATOM     24  C   UNL     1      -0.324   1.400   0.046  0.00  0.00    +0.048 C 
ATOM     25  C   UNL     1      -0.273  -0.129   0.001  0.00  0.00    +0.225 C 
ENDBRANCH  23  25
ENDBRANCH   1  23
TORSDOF 5
