REMARK  Name = ZINC00796460
REMARK  9 active torsions:
REMARK  status: ('A' for Active; 'I' for Inactive)
REMARK    1  A    between atoms: C_1  and  C_2
REMARK    2  A    between atoms: C_2  and  O_3
REMARK    3  A    between atoms: O_3  and  C_4
REMARK    4  A    between atoms: C_6  and  C_11
REMARK    5  A    between atoms: C_9  and  O_10
REMARK    6  A    between atoms: C_16  and  C_20
REMARK    7  A    between atoms: C_16  and  C_21
REMARK    8  A    between atoms: C_25  and  C_31
REMARK    9  A    between atoms: C_26  and  C_30
REMARK                            x       y       z     vdW  Elec       q    Type
REMARK                         _______ _______ _______ _____ _____    ______ ____
ROOT
ATOM      1  C   UNL     1      -0.013   1.086   0.008  0.00  0.00    +0.136 C 
ATOM      2  C   UNL     1      -0.898   1.420   1.185  0.00  0.00    +0.036 C 
ATOM      3  C   UNL     1      -0.653   2.357   2.115  0.00  0.00    +0.017 C 
ATOM      4  C   UNL     1      -1.655   2.615   3.229  0.00  0.00    +0.058 C 
ATOM      5  C   UNL     1      -2.360   1.313   3.605  0.00  0.00    -0.023 C 
ATOM      6  C   UNL     1      -3.079   0.793   2.355  0.00  0.00    +0.086 C 
ATOM      7  C   UNL     1      -2.074   0.636   1.255  0.00  0.00    +0.163 C 
ATOM      8  O   UNL     1      -2.276  -0.195   0.391  0.00  0.00    -0.292 OA
ATOM      9  C   UNL     1      -1.331   0.284   4.077  0.00  0.00    +0.011 C 
ATOM     10  C   UNL     1      -3.377   1.577   4.717  0.00  0.00    +0.011 C 
ATOM     11  N   UNL     1       0.452   3.145   2.153  0.00  0.00    -0.316 N 
ATOM     12  C   UNL     1       0.978   3.824   1.060  0.00  0.00    +0.053 A 
ATOM     13  C   UNL     1       1.068   5.205   1.023  0.00  0.00    +0.028 A 
ATOM     14  C   UNL     1       1.700   5.815  -0.047  0.00  0.00    -0.046 A 
ATOM     15  C   UNL     1       2.236   5.052  -1.069  0.00  0.00    -0.046 A 
ATOM     16  C   UNL     1       2.127   3.672  -1.043  0.00  0.00    +0.028 A 
ATOM     17  C   UNL     1       1.480   3.059   0.018  0.00  0.00    +0.050 A 
ATOM     18  N   UNL     1       1.307   1.677   0.066  0.00  0.00    -0.331 N 
ATOM     19  C   UNL     1       2.941   5.726  -2.217  0.00  0.00    +0.044 C 
ATOM     20  C   UNL     1       1.806   7.317  -0.099  0.00  0.00    +0.044 C 
ATOM     21  H   UNL     1       0.907   3.240   3.004  0.00  0.00    +0.152 HD
ATOM     22  H   UNL     1       2.085   1.102   0.138  0.00  0.00    +0.147 HD
ENDROOT
BRANCH   1  25
ATOM     23  C   UNL     1      -1.748   1.076  -3.348  0.00  0.00    +0.162 A 
ATOM     24  C   UNL     1      -1.121   0.642  -2.191  0.00  0.00    +0.055 A 
ATOM     25  C   UNL     1      -0.695   1.560  -1.250  0.00  0.00    -0.019 A 
ATOM     26  C   UNL     1      -0.897   2.912  -1.456  0.00  0.00    +0.009 A 
ATOM     27  C   UNL     1      -1.517   3.352  -2.611  0.00  0.00    +0.049 A 
ATOM     28  C   UNL     1      -1.947   2.437  -3.559  0.00  0.00    +0.158 A 
BRANCH  28  29
ATOM     29  O   UNL     1      -2.563   2.868  -4.692  0.00  0.00    -0.503 OA
ATOM     30  H   UNL     1      -3.524   2.941  -4.614  0.00  0.00    +0.292 HD
ENDBRANCH  28  29
BRANCH  23  31
ATOM     31  O   UNL     1      -2.168   0.174  -4.275  0.00  0.00    -0.489 OA
BRANCH  31  33
ATOM     32  C   UNL     1      -2.468  -2.062  -5.140  0.00  0.00    +0.048 C 
ATOM     33  C   UNL     1      -1.930  -1.206  -3.992  0.00  0.00    +0.226 C 
ENDBRANCH  31  33
ENDBRANCH  23  31
ENDBRANCH   1  25
TORSDOF 4
