REMARK  Name = ZINC64073222
REMARK  7 active torsions:
REMARK  status: ('A' for Active; 'I' for Inactive)
REMARK    1  A    between atoms: C_1  and  C_2
REMARK    2  A    between atoms: N_7  and  S_9
REMARK    3  A    between atoms: S_9  and  N_12
REMARK    4  A    between atoms: N_12  and  C_13
REMARK    5  A    between atoms: C_13  and  C_14
REMARK    6  A    between atoms: C_14  and  C_16
REMARK    7  A    between atoms: C_14  and  C_23
REMARK                            x       y       z     vdW  Elec       q    Type
REMARK                         _______ _______ _______ _____ _____    ______ ____
ROOT
ATOM      1  C   UNL     1       3.071  -2.494   5.288  0.00  0.00    +0.064 C 
ENDROOT
BRANCH   1   2
ATOM      2  C   UNL     1       3.532  -1.321   6.113  0.00  0.00    -0.033 C 
ATOM      3  C   UNL     1       3.313  -1.118   7.432  0.00  0.00    -0.000 A 
ATOM      4  C   UNL     1       2.606  -1.900   8.454  0.00  0.00    +0.010 A 
ATOM      5  C   UNL     1       2.553  -1.428   9.721  0.00  0.00    +0.001 A 
ATOM      6  C   UNL     1       3.155  -0.214  10.081  0.00  0.00    +0.002 A 
ATOM      7  C   UNL     1       3.822   0.559   9.198  0.00  0.00    +0.026 A 
ATOM      8  C   UNL     1       3.940   0.160   7.838  0.00  0.00    +0.043 A 
ATOM      9  N   UNL     1       4.524   0.725   6.810  0.00  0.00    -0.380 N 
ATOM     10  C   UNL     1       4.338  -0.134   5.636  0.00  0.00    +0.145 C 
ATOM     11  H   UNL     1       5.003   1.569   6.824  0.00  0.00    +0.160 HD
ENDBRANCH   1   2
BRANCH   1  12
ATOM     12  C   UNL     1       4.269  -3.202   4.709  0.00  0.00    -0.021 A 
ATOM     13  C   UNL     1       5.138  -2.523   3.876  0.00  0.00    +0.006 A 
ATOM     14  C   UNL     1       6.236  -3.172   3.345  0.00  0.00    +0.000 A 
ATOM     15  C   UNL     1       6.467  -4.502   3.646  0.00  0.00    +0.001 A 
ATOM     16  C   UNL     1       5.599  -5.182   4.479  0.00  0.00    +0.020 A 
ATOM     17  C   UNL     1       4.502  -4.531   5.016  0.00  0.00    +0.045 A 
ATOM     18 CL   UNL     1       3.415  -5.383   6.067  0.00  0.00    -0.083 Cl
ENDBRANCH   1  12
BRANCH   1  19
ATOM     19  C   UNL     1       2.174  -1.998   4.152  0.00  0.00    +0.119 C 
BRANCH  19  20
ATOM     20  N   UNL     1       1.630  -3.146   3.422  0.00  0.00    -0.179 NA
ATOM     21  H   UNL     1       2.019  -4.026   3.543  0.00  0.00    +0.149 HD
BRANCH  20  22
ATOM     22  S   UNL     1       0.350  -2.942   2.392  0.00  0.00    +0.097 S 
ATOM     23  O   UNL     1      -0.630  -2.199   3.104  0.00  0.00    -0.141 OA
ATOM     24  O   UNL     1       0.077  -4.216   1.825  0.00  0.00    -0.141 OA
BRANCH  22  30
ATOM     25  C   UNL     1      -0.019   1.526   0.010  0.00  0.00    +0.009 C 
ATOM     26  C   UNL     1       0.002  -0.004   0.002  0.00  0.00    +0.002 C 
ATOM     27  C   UNL     1       0.720  -0.498  -1.256  0.00  0.00    +0.006 C 
ATOM     28  C   UNL     1       0.712  -2.028  -1.282  0.00  0.00    +0.017 C 
ATOM     29  C   UNL     1       1.463  -2.559  -0.057  0.00  0.00    +0.110 C 
ATOM     30  N   UNL     1       0.869  -1.973   1.153  0.00  0.00    -0.166 NA
ATOM     31  C   UNL     1       0.744  -0.512   1.242  0.00  0.00    +0.113 C 
ENDBRANCH  22  30
ENDBRANCH  20  22
ENDBRANCH  19  20
ENDBRANCH   1  19
TORSDOF 6
