REMARK  Name = ZINC65623064
REMARK  10 active torsions:
REMARK  status: ('A' for Active; 'I' for Inactive)
REMARK    1  A    between atoms: C_1  and  C_2
REMARK    2  A    between atoms: C_4  and  C_13
REMARK    3  A    between atoms: C_6  and  S_9
REMARK    4  A    between atoms: C_7  and  C_8
REMARK    5  A    between atoms: S_9  and  N_12
REMARK    6  A    between atoms: N_15  and  N_16
REMARK    7  A    between atoms: N_19  and  C_20
REMARK    8  A    between atoms: C_20  and  C_21
REMARK    9  A    between atoms: C_21  and  C_22
REMARK   10  A    between atoms: C_21  and  C_23
REMARK                            x       y       z     vdW  Elec       q    Type
REMARK                         _______ _______ _______ _____ _____    ______ ____
ROOT
ATOM      1  C   UNL     1      -0.018   1.503   0.010  0.00  0.00    +0.044 C 
ATOM      2  C   UNL     1       0.002  -0.004   0.002  0.00  0.00    -0.045 A 
ATOM      3  C   UNL     1       0.006  -0.686  -1.198  0.00  0.00    +0.016 A 
ATOM      4  C   UNL     1       0.025  -2.081  -1.203  0.00  0.00    +0.040 A 
ATOM      5  C   UNL     1       0.041  -2.778   0.006  0.00  0.00    +0.042 A 
ATOM      6  C   UNL     1       0.037  -2.084   1.198  0.00  0.00    +0.109 A 
ATOM      7  C   UNL     1       0.023  -0.701   1.197  0.00  0.00    -0.021 A 
ATOM      8  C   UNL     1       0.025   0.051   2.503  0.00  0.00    +0.046 C 
ENDROOT
BRANCH   4   9
ATOM      9  C   UNL     1       0.029  -2.818  -2.485  0.00  0.00    +0.260 C 
ATOM     10  O   UNL     1       0.046  -4.034  -2.487  0.00  0.00    -0.269 OA
ATOM     11  N   UNL     1       0.013  -2.143  -3.651  0.00  0.00    -0.229 N 
ATOM     12  H   UNL     1      -0.000  -1.173  -3.649  0.00  0.00    +0.173 HD
BRANCH  11  13
ATOM     13  N   UNL     1       0.017  -2.841  -4.865  0.00  0.00    -0.218 N 
ATOM     14  C   UNL     1       0.001  -2.166  -6.032  0.00  0.00    +0.316 C 
ATOM     15  O   UNL     1       0.004  -2.772  -7.085  0.00  0.00    -0.251 OA
ATOM     16  N   UNL     1      -0.018  -0.818  -6.029  0.00  0.00    -0.298 N 
ATOM     17  H   UNL     1       0.030  -3.811  -4.867  0.00  0.00    +0.174 HD
ATOM     18  H   UNL     1      -0.020  -0.334  -5.188  0.00  0.00    +0.150 HD
BRANCH  16  19
ATOM     19  C   UNL     1      -0.035  -0.083  -7.297  0.00  0.00    +0.108 C 
BRANCH  19  20
ATOM     20  C   UNL     1      -0.054   1.420  -7.015  0.00  0.00    -0.000 C 
ATOM     21  C   UNL     1       1.251   1.827  -6.328  0.00  0.00    +0.009 C 
ATOM     22  C   UNL     1      -0.197   2.185  -8.332  0.00  0.00    +0.009 C 
ENDBRANCH  19  20
ENDBRANCH  16  19
ENDBRANCH  11  13
ENDBRANCH   4   9
BRANCH   6  23
ATOM     23  S   UNL     1       0.057  -2.962   2.726  0.00  0.00    +0.056 S 
ATOM     24  O   UNL     1      -0.973  -2.402   3.530  0.00  0.00    -0.153 OA
ATOM     25  O   UNL     1       0.101  -4.344   2.400  0.00  0.00    -0.153 OA
BRANCH  23  26
ATOM     26  N   UNL     1       1.489  -2.606   3.477  0.00  0.00    -0.204 NA
ATOM     27  H   UNL     1       2.124  -2.008   3.052  0.00  0.00    +0.144 HD
ATOM     28  H   UNL     1       1.694  -2.996   4.341  0.00  0.00    +0.144 HD
ENDBRANCH  23  26
ENDBRANCH   6  23
TORSDOF 6
