REMARK  Name = ZINC35696743
REMARK  5 active torsions:
REMARK  status: ('A' for Active; 'I' for Inactive)
REMARK    1  A    between atoms: C_1  and  C_2
REMARK    2  A    between atoms: C_5  and  C_8
REMARK    3  A    between atoms: C_8  and  C_9
REMARK    4  A    between atoms: C_11  and  C_14
REMARK    5  A    between atoms: C_17  and  N_20
REMARK                            x       y       z     vdW  Elec       q    Type
REMARK                         _______ _______ _______ _____ _____    ______ ____
ROOT
ATOM      1  C   UNL     1       1.487  -4.759  -0.032  0.00  0.00    +0.232 A 
ATOM      2  N   UNL     1       2.211  -5.014   1.020  0.00  0.00    -0.191 NA
ATOM      3  C   UNL     1       3.436  -5.427   0.646  0.00  0.00    +0.202 A 
ATOM      4  N   UNL     1       3.494  -5.435  -0.664  0.00  0.00    -0.056 NA
ATOM      5  O   UNL     1       2.221  -5.005  -1.124  0.00  0.00    -0.337 OA
ENDROOT
BRANCH   3   6
ATOM      6  C   UNL     1       4.538  -5.809   1.563  0.00  0.00    +0.023 A 
ATOM      7  C   UNL     1       4.345  -5.761   2.943  0.00  0.00    +0.013 A 
ATOM      8  C   UNL     1       5.370  -6.117   3.793  0.00  0.00    +0.023 A 
ATOM      9  C   UNL     1       6.595  -6.522   3.275  0.00  0.00    +0.025 A 
ATOM     10  C   UNL     1       6.789  -6.570   1.899  0.00  0.00    +0.023 A 
ATOM     11  C   UNL     1       5.765  -6.221   1.046  0.00  0.00    +0.013 A 
BRANCH   9  12
ATOM     12  N   UNL     1       7.631  -6.881   4.137  0.00  0.00    -0.358 N 
ATOM     13  H   UNL     1       7.496  -6.848   5.097  0.00  0.00    +0.142 HD
ATOM     14  H   UNL     1       8.486  -7.164   3.777  0.00  0.00    +0.142 HD
ENDBRANCH   9  12
ENDBRANCH   3   6
BRANCH   1  15
ATOM     15  C   UNL     1       0.059  -4.275  -0.021  0.00  0.00    +0.134 C 
BRANCH  15  20
ATOM     16  C   UNL     1      -0.018   1.503   0.010  0.00  0.00    +0.044 C 
ATOM     17  C   UNL     1       0.002  -0.004   0.002  0.00  0.00    -0.050 A 
ATOM     18  C   UNL     1       0.006  -0.689  -1.199  0.00  0.00    +0.003 A 
ATOM     19  C   UNL     1       0.025  -2.071  -1.206  0.00  0.00    +0.004 A 
ATOM     20  C   UNL     1       0.040  -2.768  -0.013  0.00  0.00    -0.038 A 
ATOM     21  C   UNL     1       0.037  -2.084   1.188  0.00  0.00    +0.004 A 
ATOM     22  C   UNL     1       0.023  -0.702   1.195  0.00  0.00    +0.003 A 
ENDBRANCH  15  20
ENDBRANCH   1  15
TORSDOF 4
