REMARK  Name = ZINC09611351
REMARK  9 active torsions:
REMARK  status: ('A' for Active; 'I' for Inactive)
REMARK    1  A    between atoms: C_1  and  C_2
REMARK    2  A    between atoms: C_2  and  C_3
REMARK    3  A    between atoms: C_6  and  N_9
REMARK    4  A    between atoms: C_10  and  C_12
REMARK    5  A    between atoms: C_12  and  C_14
REMARK    6  A    between atoms: C_12  and  N_21
REMARK    7  A    between atoms: C_14  and  C_15
REMARK    8  A    between atoms: N_21  and  S_22
REMARK    9  A    between atoms: S_22  and  C_25
REMARK                            x       y       z     vdW  Elec       q    Type
REMARK                         _______ _______ _______ _____ _____    ______ ____
ROOT
ATOM      1  C   UNL     1      -2.946   0.714   1.468  0.00  0.00    +0.167 C 
ENDROOT
BRANCH   1   3
ATOM      2  N   UNL     1      -5.359   0.678   0.922  0.00  0.00    -0.284 N 
ATOM      3  C   UNL     1      -4.298   0.048   1.466  0.00  0.00    +0.236 C 
ATOM      4  O   UNL     1      -4.432  -1.055   1.952  0.00  0.00    -0.274 OA
ATOM      5  H   UNL     1      -5.267   1.586   0.594  0.00  0.00    +0.155 HD
BRANCH   2   9
ATOM      6  C   UNL     1      -9.029  -1.274   0.654  0.00  0.00    -0.048 A 
ATOM      7  C   UNL     1      -8.204  -1.504   1.740  0.00  0.00    +0.005 A 
ATOM      8  C   UNL     1      -6.986  -0.858   1.831  0.00  0.00    +0.023 A 
ATOM      9  C   UNL     1      -6.591   0.022   0.832  0.00  0.00    +0.033 A 
ATOM     10  C   UNL     1      -7.426   0.255  -0.254  0.00  0.00    +0.023 A 
ATOM     11  C   UNL     1      -8.639  -0.398  -0.342  0.00  0.00    +0.005 A 
BRANCH   6  13
ATOM     12  C   UNL     1     -11.436  -1.134   1.233  0.00  0.00    +0.009 C 
ATOM     13  C   UNL     1     -10.357  -1.981   0.557  0.00  0.00    +0.032 C 
ENDBRANCH   6  13
ENDBRANCH   2   9
ENDBRANCH   1   3
BRANCH   1  14
ATOM     14  N   UNL     1      -1.969  -0.169   2.110  0.00  0.00    -0.178 NA
ATOM     15  H   UNL     1      -2.038  -1.130   2.002  0.00  0.00    +0.149 HD
BRANCH  14  16
ATOM     16  S   UNL     1      -0.746   0.476   3.022  0.00  0.00    +0.059 S 
ATOM     17  O   UNL     1       0.007  -0.620   3.524  0.00  0.00    -0.153 OA
ATOM     18  O   UNL     1      -0.159   1.509   2.243  0.00  0.00    -0.153 OA
BRANCH  16  19
ATOM     19  C   UNL     1      -1.490   1.256   4.415  0.00  0.00    +0.106 A 
ATOM     20  C   UNL     1      -1.701   0.537   5.578  0.00  0.00    +0.030 A 
ATOM     21  C   UNL     1      -2.284   1.145   6.672  0.00  0.00    +0.025 A 
ATOM     22  C   UNL     1      -2.657   2.481   6.604  0.00  0.00    +0.037 A 
ATOM     23  C   UNL     1      -2.443   3.200   5.436  0.00  0.00    -0.024 A 
ATOM     24  C   UNL     1      -1.856   2.588   4.347  0.00  0.00    +0.034 A 
ATOM     25  C   UNL     1      -2.848   4.649   5.363  0.00  0.00    +0.046 C 
ATOM     26  C   UNL     1      -4.109   4.871   6.199  0.00  0.00    +0.101 C 
ATOM     27  C   UNL     1      -3.939   4.247   7.558  0.00  0.00    +0.218 C 
ATOM     28  O   UNL     1      -4.431   4.782   8.529  0.00  0.00    -0.275 OA
ATOM     29  N   UNL     1      -3.247   3.103   7.709  0.00  0.00    -0.285 N 
ATOM     30  H   UNL     1      -3.157   2.707   8.590  0.00  0.00    +0.155 HD
ENDBRANCH  16  19
ENDBRANCH  14  16
ENDBRANCH   1  14
BRANCH   1  31
ATOM     31  C   UNL     1      -2.513   0.993   0.028  0.00  0.00    +0.065 C 
BRANCH  31  32
ATOM     32  C   UNL     1      -1.220   1.768   0.034  0.00  0.00    -0.045 A 
ATOM     33  C   UNL     1      -0.012   1.096   0.023  0.00  0.00    +0.004 A 
ATOM     34  C   UNL     1       1.174   1.807   0.022  0.00  0.00    +0.000 A 
ATOM     35  C   UNL     1       1.152   3.189   0.038  0.00  0.00    +0.000 A 
ATOM     36  C   UNL     1      -0.057   3.860   0.055  0.00  0.00    +0.000 A 
ATOM     37  C   UNL     1      -1.242   3.150   0.055  0.00  0.00    +0.004 A 
ENDBRANCH  31  32
ENDBRANCH   1  31
TORSDOF 8
