REMARK  Name = ZINC15756954
REMARK  9 active torsions:
REMARK  status: ('A' for Active; 'I' for Inactive)
REMARK    1  A    between atoms: C_1  and  N_2
REMARK    2  A    between atoms: N_2  and  C_3
REMARK    3  A    between atoms: N_2  and  S_4
REMARK    4  A    between atoms: S_4  and  C_7
REMARK    5  A    between atoms: C_10  and  S_13
REMARK    6  A    between atoms: S_13  and  N_16
REMARK    7  A    between atoms: N_16  and  C_17
REMARK    8  A    between atoms: C_22  and  O_23
REMARK    9  A    between atoms: O_23  and  C_24
REMARK                            x       y       z     vdW  Elec       q    Type
REMARK                         _______ _______ _______ _____ _____    ______ ____
ROOT
ATOM      1  N   UNL     1       0.180  -2.774   0.079  0.00  0.00    -0.213 N 
ATOM      2  H   UNL     1       0.891  -2.404   0.625  0.00  0.00    +0.174 HD
ENDROOT
BRANCH   1   3
ATOM      3  C   UNL     1      -1.068  -2.143   0.033  0.00  0.00    +0.090 A 
ATOM      4  C   UNL     1      -2.226  -2.900  -0.066  0.00  0.00    +0.028 A 
ATOM      5  C   UNL     1      -3.458  -2.274  -0.110  0.00  0.00    +0.002 A 
ATOM      6  C   UNL     1      -3.539  -0.895  -0.055  0.00  0.00    +0.004 A 
ATOM      7  C   UNL     1      -2.389  -0.134   0.049  0.00  0.00    +0.048 A 
ATOM      8  C   UNL     1      -1.150  -0.753   0.088  0.00  0.00    +0.151 A 
BRANCH   8   9
ATOM      9  O   UNL     1      -0.018  -0.006   0.185  0.00  0.00    -0.453 OA
BRANCH   9  10
ATOM     10  C   UNL     1       0.495   0.216   1.424  0.00  0.00    +0.147 A 
ATOM     11  C   UNL     1      -0.167  -0.259   2.546  0.00  0.00    +0.048 A 
ATOM     12  C   UNL     1       0.359  -0.035   3.804  0.00  0.00    +0.004 A 
ATOM     13  C   UNL     1       1.540   0.670   3.946  0.00  0.00    +0.002 A 
ATOM     14  C   UNL     1       2.200   1.150   2.830  0.00  0.00    +0.024 A 
ATOM     15  C   UNL     1       1.681   0.925   1.568  0.00  0.00    +0.083 A 
ATOM     16 CL   UNL     1       2.510   1.527   0.167  0.00  0.00    -0.080 Cl
ENDBRANCH   9  10
ENDBRANCH   8   9
ENDBRANCH   1   3
BRANCH   1  17
ATOM     17  S   UNL     1       0.444  -4.152  -0.801  0.00  0.00    +0.072 S 
ATOM     18  O   UNL     1       1.821  -4.471  -0.655  0.00  0.00    -0.150 OA
ATOM     19  O   UNL     1      -0.590  -5.062  -0.450  0.00  0.00    -0.150 OA
BRANCH  17  23
ATOM     20  C   UNL     1      -0.186  -3.100  -5.159  0.00  0.00    +0.106 A 
ATOM     21  C   UNL     1       1.069  -2.976  -4.592  0.00  0.00    +0.030 A 
ATOM     22  C   UNL     1       1.261  -3.297  -3.261  0.00  0.00    +0.031 A 
ATOM     23  C   UNL     1       0.199  -3.743  -2.497  0.00  0.00    +0.109 A 
ATOM     24  C   UNL     1      -1.055  -3.872  -3.065  0.00  0.00    +0.031 A 
ATOM     25  C   UNL     1      -1.248  -3.546  -4.395  0.00  0.00    +0.030 A 
BRANCH  20  26
ATOM     26  S   UNL     1      -0.431  -2.689  -6.854  0.00  0.00    +0.060 S 
ATOM     27  O   UNL     1      -1.809  -2.372  -7.000  0.00  0.00    -0.153 OA
ATOM     28  O   UNL     1       0.602  -1.778  -7.205  0.00  0.00    -0.153 OA
BRANCH  26  30
ATOM     29  C   UNL     1      -1.278  -4.978  -8.020  0.00  0.00    +0.131 C 
ATOM     30  N   UNL     1      -0.167  -4.066  -7.735  0.00  0.00    -0.183 NA
ATOM     31  C   UNL     1       1.178  -4.373  -8.229  0.00  0.00    +0.131 C 
ENDBRANCH  26  30
ENDBRANCH  20  26
ENDBRANCH  17  23
ENDBRANCH   1  17
TORSDOF 7
