REMARK  Name = ZINC39533633
REMARK  7 active torsions:
REMARK  status: ('A' for Active; 'I' for Inactive)
REMARK    1  A    between atoms: C_4  and  C_7
REMARK    2  A    between atoms: C_7  and  C_8
REMARK    3  A    between atoms: N_11  and  C_15
REMARK    4  A    between atoms: C_15  and  C_17
REMARK    5  A    between atoms: C_15  and  C_20
REMARK    6  A    between atoms: C_17  and  N_18
REMARK    7  A    between atoms: C_23  and  C_26
REMARK                            x       y       z     vdW  Elec       q    Type
REMARK                         _______ _______ _______ _____ _____    ______ ____
ROOT
ATOM      1  C   UNL     1       7.078  -2.911   2.793  0.00  0.00    +0.101 C 
ENDROOT
BRANCH   1   4
ATOM      2  C   UNL     1       5.130   0.215   2.008  0.00  0.00    -0.053 C 
ATOM      3  C   UNL     1       5.709  -1.184   1.790  0.00  0.00    +0.069 C 
ATOM      4  N   UNL     1       6.548  -1.549   2.940  0.00  0.00    -0.297 NA
ATOM      5  C   UNL     1       7.636  -0.577   3.121  0.00  0.00    +0.066 C 
ATOM      6  C   UNL     1       7.041   0.817   3.329  0.00  0.00    -0.067 C 
ATOM      7  N   UNL     1       6.226   1.181   2.162  0.00  0.00    +0.383 N 
ATOM      8  H   UNL     1       6.802   1.170   1.333  0.00  0.00    -0.085 HD
ATOM      9  H   UNL     1       5.844   2.105   2.294  0.00  0.00    -0.085 HD
BRANCH   2  10
ATOM     10  C   UNL     1       4.271   0.606   0.803  0.00  0.00    +0.020 C 
BRANCH  10  14
ATOM     11  C   UNL     1       2.375   4.358   1.560  0.00  0.00    +0.000 A 
ATOM     12  C   UNL     1       3.618   4.321   0.957  0.00  0.00    +0.000 A 
ATOM     13  C   UNL     1       4.232   3.107   0.712  0.00  0.00    +0.003 A 
ATOM     14  C   UNL     1       3.603   1.930   1.071  0.00  0.00    -0.049 A 
ATOM     15  C   UNL     1       2.360   1.966   1.675  0.00  0.00    +0.003 A 
ATOM     16  C   UNL     1       1.745   3.181   1.919  0.00  0.00    +0.000 A 
ENDBRANCH  10  14
ENDBRANCH   2  10
ENDBRANCH   1   4
BRANCH   1  17
ATOM     17  C   UNL     1       7.535  -3.419   4.136  0.00  0.00    -0.029 A 
ATOM     18  C   UNL     1       7.489  -2.587   5.240  0.00  0.00    +0.006 A 
ATOM     19  C   UNL     1       7.907  -3.047   6.473  0.00  0.00    +0.009 A 
ATOM     20  C   UNL     1       8.375  -4.353   6.604  0.00  0.00    -0.018 A 
ATOM     21  C   UNL     1       8.419  -5.187   5.489  0.00  0.00    +0.009 A 
ATOM     22  C   UNL     1       7.994  -4.718   4.262  0.00  0.00    +0.006 A 
BRANCH  20  23
ATOM     23  C   UNL     1       8.825  -4.853   7.926  0.00  0.00    -0.018 A 
ATOM     24  C   UNL     1       8.776  -4.020   9.043  0.00  0.00    +0.008 A 
ATOM     25  C   UNL     1       9.196  -4.491  10.270  0.00  0.00    +0.001 A 
ATOM     26  C   UNL     1       9.665  -5.786  10.394  0.00  0.00    +0.000 A 
ATOM     27  C   UNL     1       9.716  -6.617   9.289  0.00  0.00    +0.001 A 
ATOM     28  C   UNL     1       9.293  -6.159   8.058  0.00  0.00    +0.008 A 
ENDBRANCH  20  23
ENDBRANCH   1  17
BRANCH   1  29
ATOM     29  C   UNL     1       8.262  -2.897   1.824  0.00  0.00    +0.115 C 
BRANCH  29  30
ATOM     30  N   UNL     1       7.820  -2.385   0.520  0.00  0.00    -0.259 NA
ATOM     31  I   UNL     1       9.373  -2.345  -0.818  0.00  0.00    +0.018 I 
ATOM     32  H   UNL     1       7.048  -2.926   0.161  0.00  0.00    +0.134 HD
ENDBRANCH  29  30
ENDBRANCH   1  29
TORSDOF 7
