REMARK  Name = ZINC09468334
REMARK  6 active torsions:
REMARK  status: ('A' for Active; 'I' for Inactive)
REMARK    1  A    between atoms: C_4  and  N_7
REMARK    2  A    between atoms: C_8  and  C_27
REMARK    3  A    between atoms: C_11  and  S_12
REMARK    4  A    between atoms: S_12  and  C_13
REMARK    5  A    between atoms: C_13  and  C_14
REMARK    6  A    between atoms: C_27  and  C_28
REMARK                            x       y       z     vdW  Elec       q    Type
REMARK                         _______ _______ _______ _____ _____    ______ ____
ROOT
ATOM      1  N   UNL     1       2.924   5.850   0.006  0.00  0.00    -0.274 N 
ATOM      2  C   UNL     1       4.293   5.861  -0.007  0.00  0.00    +0.143 A 
ATOM      3  N   UNL     1       4.690   4.620  -0.018  0.00  0.00    -0.133 NA
ATOM      4  N   UNL     1       3.676   3.830  -0.007  0.00  0.00    -0.122 NA
ATOM      5  C   UNL     1       2.565   4.530   0.002  0.00  0.00    +0.197 A 
ENDROOT
BRANCH   1   9
ATOM      6  C   UNL     1       0.379   9.152   0.050  0.00  0.00    +0.000 A 
ATOM      7  C   UNL     1       0.410   8.290   1.131  0.00  0.00    +0.002 A 
ATOM      8  C   UNL     1       1.252   7.195   1.119  0.00  0.00    +0.026 A 
ATOM      9  C   UNL     1       2.068   6.961   0.020  0.00  0.00    +0.050 A 
ATOM     10  C   UNL     1       2.039   7.831  -1.061  0.00  0.00    +0.026 A 
ATOM     11  C   UNL     1       1.191   8.921  -1.045  0.00  0.00    +0.002 A 
ENDBRANCH   1   9
BRANCH   5  12
ATOM     12  S   UNL     1       0.924   3.890   0.014  0.00  0.00    -0.076 S 
BRANCH  12  13
ATOM     13  C   UNL     1       1.278   2.115   0.001  0.00  0.00    +0.173 C 
BRANCH  13  14
ATOM     14  C   UNL     1      -0.016   1.344   0.009  0.00  0.00    +0.231 C 
ATOM     15  O   UNL     1      -1.075   1.936   0.018  0.00  0.00    -0.274 OA
ATOM     16  N   UNL     1       0.002  -0.004   0.002  0.00  0.00    -0.260 N 
ATOM     17  C   UNL     1       1.272  -0.746  -0.014  0.00  0.00    +0.209 C 
ATOM     18  C   UNL     1       1.152  -1.904  -0.972  0.00  0.00    +0.235 C 
ATOM     19  O   UNL     1       2.142  -2.315  -1.541  0.00  0.00    -0.274 OA
ATOM     20  N   UNL     1      -0.039  -2.487  -1.203  0.00  0.00    -0.283 N 
ATOM     21  C   UNL     1      -1.203  -2.001  -0.598  0.00  0.00    +0.055 A 
ATOM     22  C   UNL     1      -1.190  -0.745   0.015  0.00  0.00    +0.058 A 
ATOM     23  C   UNL     1      -2.332  -0.249   0.617  0.00  0.00    +0.025 A 
ATOM     24  C   UNL     1      -3.491  -1.005   0.618  0.00  0.00    +0.002 A 
ATOM     25  C   UNL     1      -3.508  -2.252   0.020  0.00  0.00    +0.002 A 
ATOM     26  C   UNL     1      -2.367  -2.752  -0.597  0.00  0.00    +0.025 A 
ATOM     27  H   UNL     1      -0.090  -3.254  -1.796  0.00  0.00    +0.155 HD
ENDBRANCH  13  14
ENDBRANCH  12  13
ENDBRANCH   5  12
BRANCH   2  28
ATOM     28  C   UNL     1       5.177   7.081  -0.009  0.00  0.00    +0.119 C 
BRANCH  28  29
ATOM     29  C   UNL     1       5.485   7.480   1.412  0.00  0.00    -0.003 A 
ATOM     30  C   UNL     1       6.513   7.088   2.204  0.00  0.00    +0.011 A 
ATOM     31  C   UNL     1       6.597   7.589   3.490  0.00  0.00    +0.008 A 
ATOM     32  C   UNL     1       5.649   8.458   3.920  0.00  0.00    +0.045 A 
ATOM     33  S   UNL     1       4.596   8.596   2.484  0.00  0.00    -0.101 S 
ENDBRANCH  28  29
ENDBRANCH   2  28
TORSDOF 6
