REMARK  Name = ZINC07770976
REMARK  12 active torsions:
REMARK  status: ('A' for Active; 'I' for Inactive)
REMARK    1  A    between atoms: C_1  and  C_2
REMARK    2  A    between atoms: C_2  and  N_3
REMARK    3  A    between atoms: N_3  and  C_4
REMARK    4  A    between atoms: N_3  and  S_6
REMARK    5  A    between atoms: C_4  and  C_5
REMARK    6  A    between atoms: S_6  and  C_9
REMARK    7  A    between atoms: C_13  and  C_15
REMARK    8  A    between atoms: N_17  and  C_18
REMARK    9  A    between atoms: C_20  and  C_25
REMARK   10  A    between atoms: C_20  and  C_26
REMARK   11  A    between atoms: C_21  and  C_23
REMARK   12  A    between atoms: C_21  and  C_24
REMARK                            x       y       z     vdW  Elec       q    Type
REMARK                         _______ _______ _______ _____ _____    ______ ____
ROOT
ATOM      1  C   UNL     1       0.077   5.700  -2.358  0.00  0.00    +0.244 C 
ATOM      2  O   UNL     1      -0.186   5.072  -3.364  0.00  0.00    -0.270 OA
ATOM      3  N   UNL     1       0.376   5.050  -1.216  0.00  0.00    -0.309 N 
ATOM      4  H   UNL     1       0.587   5.551  -0.413  0.00  0.00    +0.149 HD
ENDROOT
BRANCH   3   5
ATOM      5  C   UNL     1       0.383   3.582  -1.188  0.00  0.00    +0.071 C 
ATOM      6  C   UNL     1       1.307   3.104  -0.068  0.00  0.00    +0.009 C 
ATOM      7  C   UNL     1       1.318   1.579  -0.002  0.00  0.00    -0.072 C 
ATOM      8  C   UNL     1      -1.049   1.551  -0.842  0.00  0.00    -0.072 C 
ATOM      9  C   UNL     1      -1.030   3.077  -0.900  0.00  0.00    +0.009 C 
ATOM     10  C   UNL     1      -0.958   0.983  -2.263  0.00  0.00    -0.010 C 
ATOM     11  C   UNL     1      -2.418   1.125  -0.266  0.00  0.00    -0.010 C 
ATOM     12  C   UNL     1       2.027   1.175   1.309  0.00  0.00    -0.010 C 
ATOM     13  C   UNL     1       2.153   1.022  -1.161  0.00  0.00    -0.010 C 
ATOM     14  N   UNL     1      -0.027   0.945   0.053  0.00  0.00    +0.386 N 
ATOM     15  H   UNL     1      -0.370   1.012   1.019  0.00  0.00    -0.084 HD
ATOM     16  H   UNL     1       0.076  -0.043  -0.206  0.00  0.00    -0.084 HD
ENDBRANCH   3   5
BRANCH   1  21
ATOM     17  C   UNL     1      -0.242   9.235  -3.588  0.00  0.00    +0.106 A 
ATOM     18  C   UNL     1       0.058   9.947  -2.440  0.00  0.00    +0.028 A 
ATOM     19  C   UNL     1       0.365   9.282  -1.266  0.00  0.00    +0.003 A 
ATOM     20  C   UNL     1       0.373   7.903  -1.233  0.00  0.00    +0.013 A 
ATOM     21  C   UNL     1       0.070   7.178  -2.386  0.00  0.00    +0.039 A 
ATOM     22  C   UNL     1      -0.233   7.855  -3.569  0.00  0.00    +0.041 A 
BRANCH  17  23
ATOM     23  S   UNL     1      -0.631  10.091  -5.077  0.00  0.00    +0.061 S 
ATOM     24  O   UNL     1      -1.408   9.200  -5.867  0.00  0.00    -0.153 OA
ATOM     25  O   UNL     1      -1.100  11.377  -4.696  0.00  0.00    -0.153 OA
BRANCH  23  26
ATOM     26  N   UNL     1       0.791  10.328  -5.892  0.00  0.00    -0.177 NA
BRANCH  26  28
ATOM     27  C   UNL     1       0.815   9.713  -8.259  0.00  0.00    +0.022 C 
ATOM     28  C   UNL     1       1.263   9.324  -6.848  0.00  0.00    +0.106 C 
ENDBRANCH  26  28
BRANCH  26  29
ATOM     29  C   UNL     1       1.577  11.542  -5.656  0.00  0.00    +0.106 C 
ATOM     30  C   UNL     1       2.650  11.257  -4.603  0.00  0.00    +0.022 C 
ENDBRANCH  26  29
ENDBRANCH  23  26
ENDBRANCH  17  23
ENDBRANCH   1  21
TORSDOF 6
