REMARK  Name = ZINC33033266
REMARK  10 active torsions:
REMARK  status: ('A' for Active; 'I' for Inactive)
REMARK    1  A    between atoms: C_1  and  C_2
REMARK    2  A    between atoms: C_9  and  C_11
REMARK    3  A    between atoms: C_14  and  N_31
REMARK    4  A    between atoms: C_15  and  N_17
REMARK    5  A    between atoms: N_17  and  S_18
REMARK    6  A    between atoms: S_18  and  C_21
REMARK    7  A    between atoms: C_24  and  O_29
REMARK    8  A    between atoms: C_25  and  O_27
REMARK    9  A    between atoms: O_27  and  C_28
REMARK   10  A    between atoms: O_29  and  C_30
REMARK                            x       y       z     vdW  Elec       q    Type
REMARK                         _______ _______ _______ _____ _____    ______ ____
ROOT
ATOM      1  C   UNL     1       0.843   6.940  -2.961  0.00  0.00    +0.039 A 
ATOM      2  C   UNL     1       0.627   6.505  -4.271  0.00  0.00    +0.015 A 
ATOM      3  C   UNL     1       1.248   5.364  -4.730  0.00  0.00    +0.026 A 
ATOM      4  C   UNL     1       2.090   4.642  -3.892  0.00  0.00    +0.052 A 
ATOM      5  C   UNL     1       2.309   5.071  -2.580  0.00  0.00    +0.070 A 
ATOM      6  C   UNL     1       1.684   6.212  -2.114  0.00  0.00    +0.039 A 
ENDROOT
BRANCH   1  14
ATOM      7  C   UNL     1       0.108  12.979  -2.353  0.00  0.00    +0.009 C 
ATOM      8  C   UNL     1       0.718  11.637  -2.766  0.00  0.00    +0.003 C 
ATOM      9  C   UNL     1       1.234  11.732  -4.204  0.00  0.00    +0.006 C 
ATOM     10  C   UNL     1       1.874  10.402  -4.607  0.00  0.00    +0.019 C 
ATOM     11  C   UNL     1       0.824   9.294  -4.542  0.00  0.00    +0.108 C 
ATOM     12  N   UNL     1       0.214   9.291  -3.205  0.00  0.00    -0.297 N 
ATOM     13  C   UNL     1      -0.350  10.543  -2.683  0.00  0.00    +0.111 C 
ATOM     14  C   UNL     1       0.178   8.162  -2.470  0.00  0.00    +0.247 C 
ATOM     15  O   UNL     1      -0.403   8.150  -1.401  0.00  0.00    -0.270 OA
ENDBRANCH   1  14
BRANCH   4  16
ATOM     16  N   UNL     1       2.715   3.488  -4.360  0.00  0.00    -0.332 N 
ATOM     17  C   UNL     1       2.191   3.103  -5.678  0.00  0.00    +0.086 C 
ATOM     18  C   UNL     1       2.845   1.791  -6.120  0.00  0.00    -0.063 C 
ATOM     19  N   UNL     1       4.303   1.965  -6.166  0.00  0.00    +0.381 N 
ATOM     20  C   UNL     1       4.827   2.350  -4.848  0.00  0.00    -0.063 C 
ATOM     21  C   UNL     1       4.174   3.662  -4.406  0.00  0.00    +0.086 C 
ATOM     22  H   UNL     1       4.776   1.020  -6.472  0.00  0.00    -0.086 HD
ATOM     23  H   UNL     1       4.556   2.752  -6.891  0.00  0.00    -0.086 HD
ENDBRANCH   4  16
BRANCH   5  24
ATOM     24  N   UNL     1       3.156   4.342  -1.737  0.00  0.00    -0.214 N 
ATOM     25  H   UNL     1       4.239   4.535  -1.744  0.00  0.00    +0.174 HD
BRANCH  24  26
ATOM     26  S   UNL     1       2.528   3.189  -0.728  0.00  0.00    +0.073 S 
ATOM     27  O   UNL     1       1.456   3.804  -0.026  0.00  0.00    -0.150 OA
ATOM     28  O   UNL     1       3.631   2.589  -0.061  0.00  0.00    -0.150 OA
BRANCH  26  29
ATOM     29  C   UNL     1       1.814   1.940  -1.744  0.00  0.00    +0.112 A 
ATOM     30  C   UNL     1       2.580   0.867  -2.159  0.00  0.00    +0.032 A 
ATOM     31  C   UNL     1       2.025  -0.116  -2.957  0.00  0.00    +0.051 A 
ATOM     32  C   UNL     1       0.698  -0.024  -3.347  0.00  0.00    +0.162 A 
ATOM     33  C   UNL     1      -0.074   1.054  -2.926  0.00  0.00    +0.163 A 
ATOM     34  C   UNL     1       0.489   2.035  -2.126  0.00  0.00    +0.078 A 
BRANCH  33  35
ATOM     35  O   UNL     1      -1.378   1.147  -3.302  0.00  0.00    -0.491 OA
ATOM     36  C   UNL     1      -2.108   2.283  -2.836  0.00  0.00    +0.277 C 
ENDBRANCH  33  35
BRANCH  32  37
ATOM     37  O   UNL     1       0.151  -0.987  -4.136  0.00  0.00    -0.491 OA
ATOM     38  C   UNL     1       1.002  -2.067  -4.526  0.00  0.00    +0.277 C 
ENDBRANCH  32  37
ENDBRANCH  26  29
ENDBRANCH  24  26
ENDBRANCH   5  24
TORSDOF 7
