REMARK  Name = ZINC35781205
REMARK  16 active torsions:
REMARK  status: ('A' for Active; 'I' for Inactive)
REMARK    1  A    between atoms: C_1  and  C_2
REMARK    2  A    between atoms: C_2  and  C_3
REMARK    3  A    between atoms: C_2  and  C_4
REMARK    4  A    between atoms: C_4  and  O_5
REMARK    5  A    between atoms: O_5  and  C_6
REMARK    6  A    between atoms: C_6  and  C_7
REMARK    7  A    between atoms: C_7  and  C_9
REMARK    8  A    between atoms: C_7  and  O_37
REMARK    9  A    between atoms: C_9  and  N_10
REMARK   10  A    between atoms: N_10  and  C_11
REMARK   11  A    between atoms: N_10  and  C_30
REMARK   12  A    between atoms: C_11  and  C_12
REMARK   13  A    between atoms: C_13  and  C_24
REMARK   14  A    between atoms: C_16  and  N_17
REMARK   15  A    between atoms: N_20  and  C_23
REMARK   16  A    between atoms: C_30  and  C_31
REMARK                            x       y       z     vdW  Elec       q    Type
REMARK                         _______ _______ _______ _____ _____    ______ ____
ROOT
ATOM      1  C   UNL     1       7.086   0.062  -4.613  0.00  0.00    -0.035 C 
ENDROOT
BRANCH   1   2
ATOM      2  C   UNL     1       6.351   0.757  -5.731  0.00  0.00    +0.025 A 
ATOM      3  C   UNL     1       5.258   0.235  -6.454  0.00  0.00    +0.117 A 
ATOM      4  N   UNL     1       4.894   1.133  -7.340  0.00  0.00    -0.076 NA
ATOM      5  O   UNL     1       5.748   2.254  -7.204  0.00  0.00    -0.339 OA
ATOM      6  C   UNL     1       6.620   1.996  -6.214  0.00  0.00    +0.222 A 
BRANCH   6   7
ATOM      7  N   UNL     1       7.617   2.843  -5.768  0.00  0.00    -0.303 N 
ATOM      8  C   UNL     1       8.939   2.861  -6.412  0.00  0.00    +0.089 C 
ATOM      9  C   UNL     1       9.300   4.313  -6.742  0.00  0.00    -0.060 C 
ATOM     10  N   UNL     1       9.209   5.128  -5.524  0.00  0.00    +0.380 N 
ATOM     11  C   UNL     1       7.820   5.164  -5.049  0.00  0.00    -0.060 C 
ATOM     12  C   UNL     1       7.384   3.757  -4.639  0.00  0.00    +0.089 C 
ATOM     13  C   UNL     1       9.659   6.495  -5.816  0.00  0.00    -0.096 C 
ATOM     14  H   UNL     1       9.797   4.728  -4.808  0.00  0.00    -0.082 HD
ENDBRANCH   6   7
BRANCH   3  15
ATOM     15  C   UNL     1       4.629  -1.094  -6.249  0.00  0.00    +0.004 A 
ATOM     16  C   UNL     1       5.425  -2.220  -6.048  0.00  0.00    +0.010 A 
ATOM     17  C   UNL     1       4.836  -3.453  -5.858  0.00  0.00    +0.001 A 
ATOM     18  C   UNL     1       3.458  -3.573  -5.867  0.00  0.00    +0.000 A 
ATOM     19  C   UNL     1       2.663  -2.459  -6.066  0.00  0.00    +0.001 A 
ATOM     20  C   UNL     1       3.242  -1.219  -6.252  0.00  0.00    +0.010 A 
ENDBRANCH   3  15
ENDBRANCH   1   2
BRANCH   1  21
ATOM     21  N   UNL     1       6.555   0.517  -3.321  0.00  0.00    +0.386 N 
ATOM     22  H   UNL     1       6.607   1.523  -3.271  0.00  0.00    -0.081 HD
BRANCH  21  23
ATOM     23  C   UNL     1       5.155   0.092  -3.191  0.00  0.00    -0.044 C 
BRANCH  23  24
ATOM     24  C   UNL     1       4.564   0.670  -1.903  0.00  0.00    +0.124 C 
BRANCH  24  25
ATOM     25  O   UNL     1       4.519   2.095  -1.997  0.00  0.00    -0.391 OA
ATOM     26  H   UNL     1       3.982   2.424  -2.731  0.00  0.00    +0.210 HD
ENDBRANCH  24  25
BRANCH  24  27
ATOM     27  C   UNL     1       3.147   0.128  -1.703  0.00  0.00    +0.189 C 
BRANCH  27  28
ATOM     28  O   UNL     1       2.640   0.574  -0.444  0.00  0.00    -0.377 OA
BRANCH  28  29
ATOM     29  C   UNL     1       1.315   0.121  -0.158  0.00  0.00    +0.163 C 
BRANCH  29  31
ATOM     30  C   UNL     1       0.778   2.182   1.148  0.00  0.00    +0.009 C 
ATOM     31  C   UNL     1       0.876   0.656   1.206  0.00  0.00    +0.009 C 
ATOM     32  C   UNL     1      -0.490   0.071   1.569  0.00  0.00    +0.009 C 
ENDBRANCH  29  31
ENDBRANCH  28  29
ENDBRANCH  27  28
ENDBRANCH  24  27
ENDBRANCH  23  24
ENDBRANCH  21  23
BRANCH  21  33
ATOM     33  C   UNL     1       7.348  -0.070  -2.232  0.00  0.00    -0.046 C 
BRANCH  33  34
ATOM     34  C   UNL     1       8.771   0.489  -2.280  0.00  0.00    +0.102 C 
ATOM     35  C   UNL     1       9.617  -0.134  -1.148  0.00  0.00    +0.032 C 
ATOM     36  C   UNL     1      10.470   1.074  -0.672  0.00  0.00    +0.030 C 
ATOM     37  C   UNL     1       9.470   2.240  -0.878  0.00  0.00    +0.160 C 
ATOM     38  O   UNL     1       8.745   1.906  -2.074  0.00  0.00    -0.378 OA
ENDBRANCH  33  34
ENDBRANCH  21  33
ENDBRANCH   1  21
TORSDOF 13
