REMARK  Name = ZINC22196545
REMARK  13 active torsions:
REMARK  status: ('A' for Active; 'I' for Inactive)
REMARK    1  A    between atoms: C_1  and  C_2
REMARK    2  A    between atoms: C_2  and  C_4
REMARK    3  A    between atoms: C_2  and  N_17
REMARK    4  A    between atoms: N_6  and  C_7
REMARK    5  A    between atoms: C_11  and  S_13
REMARK    6  A    between atoms: S_13  and  N_16
REMARK    7  A    between atoms: N_17  and  C_18
REMARK    8  A    between atoms: C_20  and  C_26
REMARK    9  A    between atoms: C_23  and  O_24
REMARK   10  A    between atoms: O_24  and  C_25
REMARK   11  A    between atoms: C_26  and  C_27
REMARK   12  A    between atoms: C_26  and  C_28
REMARK   13  A    between atoms: C_26  and  C_29
REMARK                            x       y       z     vdW  Elec       q    Type
REMARK                         _______ _______ _______ _____ _____    ______ ____
ROOT
ATOM      1  C   UNL     1      -2.136   6.375   0.764  0.00  0.00    +0.038 C 
ATOM      2  C   UNL     1      -1.119   6.153   1.885  0.00  0.00    +0.154 C 
ENDROOT
BRANCH   2   3
ATOM      3  C   UNL     1      -0.846   7.460   2.583  0.00  0.00    +0.237 C 
ATOM      4  O   UNL     1      -1.079   7.576   3.768  0.00  0.00    -0.273 OA
ATOM      5  N   UNL     1      -0.344   8.502   1.890  0.00  0.00    -0.284 N 
ATOM      6  H   UNL     1      -0.062   8.376   0.835  0.00  0.00    +0.155 HD
BRANCH   5   7
ATOM      7  C   UNL     1      -0.182   9.744   2.514  0.00  0.00    +0.035 A 
ATOM      8  C   UNL     1       0.180   9.808   3.853  0.00  0.00    +0.023 A 
ATOM      9  C   UNL     1       0.340  11.035   4.466  0.00  0.00    +0.004 A 
ATOM     10  C   UNL     1       0.139  12.200   3.747  0.00  0.00    +0.028 A 
ATOM     11  C   UNL     1      -0.221  12.139   2.414  0.00  0.00    +0.107 A 
ATOM     12  C   UNL     1      -0.377  10.915   1.794  0.00  0.00    +0.051 A 
BRANCH  11  13
ATOM     13  S   UNL     1      -0.475  13.626   1.502  0.00  0.00    +0.056 S 
ATOM     14  O   UNL     1      -1.337  13.297   0.421  0.00  0.00    -0.153 OA
ATOM     15  O   UNL     1      -0.794  14.634   2.451  0.00  0.00    -0.153 OA
BRANCH  13  16
ATOM     16  N   UNL     1       0.981  14.047   0.837  0.00  0.00    -0.204 NA
ATOM     17  H   UNL     1       0.865  14.974   0.257  0.00  0.00    +0.144 HD
ATOM     18  H   UNL     1       1.328  13.241   0.173  0.00  0.00    +0.144 HD
ENDBRANCH  13  16
ENDBRANCH  11  13
ENDBRANCH   5   7
ENDBRANCH   2   3
BRANCH   2  19
ATOM     19  N   UNL     1      -1.657   5.189   2.848  0.00  0.00    -0.330 N 
ATOM     20  H   UNL     1      -2.179   5.544   3.749  0.00  0.00    +0.147 HD
BRANCH  19  21
ATOM     21  C   UNL     1      -1.507   3.816   2.622  0.00  0.00    +0.070 A 
ATOM     22  C   UNL     1      -0.845   3.366   1.489  0.00  0.00    +0.030 A 
ATOM     23  C   UNL     1      -0.703   2.009   1.264  0.00  0.00    -0.040 A 
ATOM     24  C   UNL     1      -1.210   1.098   2.173  0.00  0.00    +0.008 A 
ATOM     25  C   UNL     1      -1.867   1.540   3.307  0.00  0.00    +0.048 A 
ATOM     26  C   UNL     1      -2.018   2.897   3.536  0.00  0.00    +0.141 A 
BRANCH  23  27
ATOM     27  C   UNL     1       0.011   1.522   0.030  0.00  0.00    -0.013 C 
ATOM     28  C   UNL     1       0.036  -0.008   0.026  0.00  0.00    +0.015 C 
ATOM     29  C   UNL     1       1.445   2.055   0.027  0.00  0.00    +0.015 C 
ATOM     30  C   UNL     1      -0.722   2.024  -1.215  0.00  0.00    +0.015 C 
ENDBRANCH  23  27
BRANCH  26  31
ATOM     31  O   UNL     1      -2.664   3.332   4.651  0.00  0.00    -0.493 OA
ATOM     32  C   UNL     1      -3.161   2.334   5.544  0.00  0.00    +0.277 C 
ENDBRANCH  26  31
ENDBRANCH  19  21
ENDBRANCH   2  19
TORSDOF 8
