REMARK  Name = ZINC63526727
REMARK  14 active torsions:
REMARK  status: ('A' for Active; 'I' for Inactive)
REMARK    1  A    between atoms: C_1  and  C_2
REMARK    2  A    between atoms: C_2  and  O_3
REMARK    3  A    between atoms: O_3  and  C_4
REMARK    4  A    between atoms: C_4  and  C_6
REMARK    5  A    between atoms: C_8  and  C_29
REMARK    6  A    between atoms: C_10  and  N_13
REMARK    7  A    between atoms: C_14  and  C_16
REMARK    8  A    between atoms: C_16  and  S_17
REMARK    9  A    between atoms: S_17  and  C_18
REMARK   10  A    between atoms: C_21  and  C_28
REMARK   11  A    between atoms: C_22  and  C_24
REMARK   12  A    between atoms: C_24  and  C_25
REMARK   13  A    between atoms: C_25  and  C_26
REMARK   14  A    between atoms: C_25  and  C_27
REMARK                            x       y       z     vdW  Elec       q    Type
REMARK                         _______ _______ _______ _____ _____    ______ ____
ROOT
ATOM      1  N   UNL     1       4.503  -2.880   4.423  0.00  0.00    -0.288 N 
ATOM      2  C   UNL     1       5.241  -2.165   5.296  0.00  0.00    +0.225 C 
ATOM      3  O   UNL     1       4.700  -1.571   6.204  0.00  0.00    -0.275 OA
ATOM      4  H   UNL     1       4.936  -3.355   3.697  0.00  0.00    +0.151 HD
ENDROOT
BRANCH   1   9
ATOM      5  C   UNL     1       1.283  -2.355   2.566  0.00  0.00    +0.117 C 
ATOM      6  H   UNL     1       2.700  -4.961   3.920  0.00  0.00    +0.149 HD
ATOM      7  C   UNL     1       1.604  -3.664   2.785  0.00  0.00    +0.057 C 
ATOM      8  N   UNL     1       2.471  -4.032   3.762  0.00  0.00    -0.316 N 
ATOM      9  C   UNL     1       3.047  -2.939   4.572  0.00  0.00    +0.224 C 
ATOM     10  S   UNL     1       2.244  -1.480   3.791  0.00  0.00    -0.075 S 
BRANCH   7  11
ATOM     11  C   UNL     1       0.992  -4.706   1.939  0.00  0.00    -0.003 A 
ATOM     12  C   UNL     1       1.133  -4.654   0.550  0.00  0.00    +0.010 A 
ATOM     13  C   UNL     1       0.558  -5.631  -0.235  0.00  0.00    +0.001 A 
ATOM     14  C   UNL     1      -0.159  -6.661   0.349  0.00  0.00    +0.000 A 
ATOM     15  C   UNL     1      -0.303  -6.718   1.724  0.00  0.00    +0.001 A 
ATOM     16  C   UNL     1       0.272  -5.752   2.522  0.00  0.00    +0.010 A 
ENDBRANCH   7  11
BRANCH   5  17
ATOM     17  C   UNL     1       0.405  -1.820   1.597  0.00  0.00    +0.347 C 
ATOM     18  O   UNL     1      -0.255  -2.565   0.896  0.00  0.00    -0.244 OA
BRANCH  17  19
ATOM     19  O   UNL     1       0.298  -0.482   1.448  0.00  0.00    -0.461 OA
BRANCH  19  21
ATOM     20  C   UNL     1      -0.594   1.519   0.428  0.00  0.00    +0.048 C 
ATOM     21  C   UNL     1      -0.609  -0.011   0.449  0.00  0.00    +0.229 C 
ENDBRANCH  19  21
ENDBRANCH  17  19
ENDBRANCH   5  17
ENDBRANCH   1   9
BRANCH   2  22
ATOM     22  C   UNL     1       6.739  -2.104   5.143  0.00  0.00    +0.173 C 
BRANCH  22  23
ATOM     23  S   UNL     1       7.440  -1.072   6.460  0.00  0.00    -0.080 S 
BRANCH  23  24
ATOM     24  C   UNL     1       9.174  -1.100   6.146  0.00  0.00    +0.145 A 
ATOM     25  H   UNL     1       9.813   0.811   6.696  0.00  0.00    +0.168 HD
ATOM     26  N   UNL     1       9.851  -2.118   5.668  0.00  0.00    -0.338 N 
ATOM     27  C   UNL     1      11.147  -1.777   5.561  0.00  0.00    +0.034 A 
ATOM     28  C   UNL     1      11.287  -0.509   5.982  0.00  0.00    +0.037 A 
ATOM     29  N   UNL     1      10.037  -0.068   6.352  0.00  0.00    -0.338 N 
ATOM     30  C   UNL     1      12.253  -2.666   5.054  0.00  0.00    +0.065 C 
ATOM     31  H   UNL     1       9.476  -2.980   5.431  0.00  0.00    +0.167 HD
BRANCH  28  32
ATOM     32  C   UNL     1      12.569   0.281   6.036  0.00  0.00    +0.058 C 
BRANCH  32  33
ATOM     33  C   UNL     1      12.832   0.920   4.671  0.00  0.00    -0.011 C 
ATOM     34  C   UNL     1      11.737   1.946   4.369  0.00  0.00    +0.007 C 
ATOM     35  C   UNL     1      14.194   1.619   4.688  0.00  0.00    +0.007 C 
ENDBRANCH  32  33
ENDBRANCH  28  32
ENDBRANCH  23  24
ENDBRANCH  22  23
ENDBRANCH   2  22
TORSDOF 10
