REMARK  Name = ZINC40568157
REMARK  16 active torsions:
REMARK  status: ('A' for Active; 'I' for Inactive)
REMARK    1  A    between atoms: C_1  and  C_2
REMARK    2  A    between atoms: C_2  and  O_3
REMARK    3  A    between atoms: O_3  and  C_4
REMARK    4  A    between atoms: C_4  and  C_6
REMARK    5  A    between atoms: C_7  and  N_34
REMARK    6  A    between atoms: C_11  and  C_33
REMARK    7  A    between atoms: N_12  and  C_28
REMARK    8  A    between atoms: C_16  and  C_18
REMARK    9  A    between atoms: C_20  and  O_26
REMARK   10  A    between atoms: C_23  and  O_24
REMARK   11  A    between atoms: O_24  and  C_25
REMARK   12  A    between atoms: O_26  and  C_27
REMARK   13  A    between atoms: C_28  and  C_29
REMARK   14  A    between atoms: C_29  and  N_30
REMARK   15  A    between atoms: N_30  and  C_31
REMARK   16  A    between atoms: N_30  and  C_32
REMARK                            x       y       z     vdW  Elec       q    Type
REMARK                         _______ _______ _______ _____ _____    ______ ____
ROOT
ATOM      1  C   UNL     1       1.446  -2.321  -2.454  0.00  0.00    +0.105 C 
ATOM      2  C   UNL     1       1.605  -3.664  -2.570  0.00  0.00    +0.195 C 
ATOM      3  O   UNL     1       2.190  -4.218  -3.645  0.00  0.00    -0.441 OA
ATOM      4  C   UNL     1       2.292  -3.517  -4.794  0.00  0.00    +0.141 A 
ATOM      5  C   UNL     1       2.527  -4.191  -6.010  0.00  0.00    +0.068 A 
ATOM      6  C   UNL     1       2.627  -3.487  -7.158  0.00  0.00    +0.022 A 
ATOM      7  N   UNL     1       2.506  -2.134  -7.160  0.00  0.00    -0.314 N 
ATOM      8  C   UNL     1       2.282  -1.455  -6.019  0.00  0.00    +0.259 A 
ATOM      9  O   UNL     1       2.176  -0.239  -6.043  0.00  0.00    -0.267 OA
ATOM     10  C   UNL     1       2.170  -2.144  -4.804  0.00  0.00    +0.071 A 
ATOM     11  C   UNL     1       1.916  -1.385  -3.532  0.00  0.00    +0.103 C 
ATOM     12  C   UNL     1       2.879  -4.212  -8.455  0.00  0.00    +0.064 C 
ENDROOT
BRANCH  11  13
ATOM     13  C   UNL     1       3.192  -0.715  -3.092  0.00  0.00    +0.010 A 
ATOM     14  C   UNL     1       4.309  -1.476  -2.805  0.00  0.00    +0.053 A 
ATOM     15  C   UNL     1       5.483  -0.860  -2.400  0.00  0.00    +0.121 A 
ATOM     16  C   UNL     1       5.537   0.521  -2.283  0.00  0.00    +0.049 A 
ATOM     17  C   UNL     1       4.421   1.282  -2.569  0.00  0.00    +0.049 A 
ATOM     18  C   UNL     1       3.247   0.666  -2.979  0.00  0.00    +0.124 A 
BRANCH  18  19
ATOM     19  O   UNL     1       2.150   1.416  -3.266  0.00  0.00    -0.495 OA
ATOM     20  C   UNL     1       2.278   2.833  -3.129  0.00  0.00    +0.277 C 
ENDBRANCH  18  19
BRANCH  15  21
ATOM     21  O   UNL     1       6.582  -1.610  -2.118  0.00  0.00    -0.495 OA
ATOM     22  C   UNL     1       7.757  -0.909  -1.706  0.00  0.00    +0.277 C 
ENDBRANCH  15  21
ENDBRANCH  11  13
BRANCH   2  23
ATOM     23  N   UNL     1       1.157  -4.476  -1.564  0.00  0.00    -0.329 N 
ATOM     24  H   UNL     1       0.651  -4.101  -0.826  0.00  0.00    +0.145 HD
ATOM     25  H   UNL     1       1.345  -5.427  -1.588  0.00  0.00    +0.145 HD
ENDBRANCH   2  23
BRANCH   1  26
ATOM     26  C   UNL     1       0.827  -1.797  -1.309  0.00  0.00    +0.341 C 
ATOM     27  O   UNL     1      -0.337  -1.442  -1.354  0.00  0.00    -0.245 OA
BRANCH  26  28
ATOM     28  O   UNL     1       1.522  -1.688  -0.156  0.00  0.00    -0.462 OA
BRANCH  28  30
ATOM     29  C   UNL     1       1.771  -1.100   2.175  0.00  0.00    +0.048 C 
ATOM     30  C   UNL     1       0.829  -1.146   0.970  0.00  0.00    +0.229 C 
ENDBRANCH  28  30
ENDBRANCH  26  28
ENDBRANCH   1  26
BRANCH   7  31
ATOM     31  C   UNL     1       2.620  -1.401  -8.424  0.00  0.00    +0.106 C 
BRANCH  31  32
ATOM     32  C   UNL     1       1.237  -1.274  -9.066  0.00  0.00    -0.058 C 
BRANCH  32  33
ATOM     33  N   UNL     1       1.352  -0.539 -10.334  0.00  0.00    +0.377 N 
ATOM     34  C   UNL     1       2.152  -1.324 -11.284  0.00  0.00    -0.097 C 
ATOM     35  C   UNL     1       0.012  -0.313 -10.891  0.00  0.00    -0.097 C 
ATOM     36  H   UNL     1       1.802   0.348 -10.168  0.00  0.00    -0.083 HD
ENDBRANCH  32  33
ENDBRANCH  31  32
ENDBRANCH   7  31
TORSDOF 10
