REMARK  Name = ZINC31755499
REMARK  7 active torsions:
REMARK  status: ('A' for Active; 'I' for Inactive)
REMARK    1  A    between atoms: C_1  and  C_2
REMARK    2  A    between atoms: C_2  and  C_4
REMARK    3  A    between atoms: C_2  and  N_16
REMARK    4  A    between atoms: C_7  and  N_10
REMARK    5  A    between atoms: C_11  and  C_13
REMARK    6  A    between atoms: C_17  and  C_19
REMARK    7  A    between atoms: C_19  and  N_20
REMARK                            x       y       z     vdW  Elec       q    Type
REMARK                         _______ _______ _______ _____ _____    ______ ____
ROOT
ATOM      1  N   UNL     1      -0.986  -3.976  -2.358  0.00  0.00    -0.307 N 
ATOM      2  C   UNL     1       0.014  -3.309  -1.747  0.00  0.00    +0.231 C 
ATOM      3  O   UNL     1       0.859  -2.744  -2.409  0.00  0.00    -0.274 OA
ATOM      4  H   UNL     1      -1.751  -4.489  -1.757  0.00  0.00    +0.149 HD
ENDROOT
BRANCH   1   6
ATOM      5  C   UNL     1      -0.174  -5.156  -4.340  0.00  0.00    +0.033 C 
ATOM      6  C   UNL     1      -1.053  -4.016  -3.821  0.00  0.00    +0.100 C 
BRANCH   6   7
ATOM      7  C   UNL     1      -2.479  -4.245  -4.252  0.00  0.00    -0.027 A 
ATOM      8  C   UNL     1      -3.275  -5.138  -3.557  0.00  0.00    +0.007 A 
ATOM      9  C   UNL     1      -4.583  -5.346  -3.947  0.00  0.00    +0.023 A 
ATOM     10  C   UNL     1      -5.096  -4.666  -5.044  0.00  0.00    +0.033 A 
ATOM     11  C   UNL     1      -4.293  -3.775  -5.742  0.00  0.00    +0.023 A 
ATOM     12  C   UNL     1      -2.987  -3.567  -5.344  0.00  0.00    +0.007 A 
BRANCH  10  13
ATOM     13  N   UNL     1      -6.420  -4.880  -5.444  0.00  0.00    -0.285 N 
ATOM     14  C   UNL     1      -6.747  -4.819  -6.751  0.00  0.00    +0.220 C 
ATOM     15  O   UNL     1      -5.879  -4.676  -7.587  0.00  0.00    -0.275 OA
ATOM     16  H   UNL     1      -7.194  -5.096  -4.693  0.00  0.00    +0.155 HD
BRANCH  14  17
ATOM     17  C   UNL     1      -8.189  -4.931  -7.173  0.00  0.00    +0.075 C 
ATOM     18  C   UNL     1      -8.607  -6.191  -7.932  0.00  0.00    +0.013 C 
ATOM     19  C   UNL     1      -8.495  -4.855  -8.670  0.00  0.00    +0.013 C 
ENDBRANCH  14  17
ENDBRANCH  10  13
ENDBRANCH   6   7
ENDBRANCH   1   6
BRANCH   2  20
ATOM     20  C   UNL     1       0.084  -3.268  -0.243  0.00  0.00    +0.209 C 
BRANCH  20  21
ATOM     21  N   UNL     1       1.253  -2.488   0.171  0.00  0.00    -0.257 N 
ATOM     22  C   UNL     1       1.150  -1.104   0.375  0.00  0.00    +0.079 A 
ATOM     23  C   UNL     1      -0.088  -0.498   0.505  0.00  0.00    +0.028 A 
ATOM     24  C   UNL     1      -0.168   0.868   0.703  0.00  0.00    +0.017 A 
ATOM     25  C   UNL     1       0.985   1.630   0.772  0.00  0.00    +0.021 A 
ATOM     26  C   UNL     1       2.225   1.030   0.643  0.00  0.00    +0.062 A 
ATOM     27  C   UNL     1       2.312  -0.337   0.445  0.00  0.00    +0.144 A 
ATOM     28  O   UNL     1       3.522  -0.944   0.318  0.00  0.00    -0.481 OA
ATOM     29  C   UNL     1       3.629  -2.277   0.823  0.00  0.00    +0.325 C 
ATOM     30  C   UNL     1       2.447  -3.090   0.361  0.00  0.00    +0.258 C 
ATOM     31  O   UNL     1       2.567  -4.281   0.161  0.00  0.00    -0.271 OA
ATOM     32 BR   UNL     1       0.865   3.497   1.043  0.00  0.00    -0.050 Br
ENDBRANCH  20  21
ENDBRANCH   2  20
TORSDOF 6
